56
rmsd84.gzmat
N          0.00000        0.00000        0.00000
C          1.36140        0.00000        0.00000
S          2.33950        0.00000        1.31220
S          1.97720       -0.00700       -1.68100
C          0.30110        0.04760       -2.42270
C         -0.69380        0.32100       -1.28370
H         -1.56580       -0.38740       -1.36610
C         -1.25700        1.76890       -1.28490
C         -0.17630        2.84460       -1.21760
C         -2.13740        1.96020       -2.52360
C         -0.82540       -0.17370        1.18030
O         -1.67270        0.64280        1.41100
C         -0.61910       -1.44290        1.95110
H          0.45610       -1.75510        1.98580
C         -1.10800       -1.28610        3.41390
H         -0.60300       -0.38010        3.84540
N         -0.76750       -2.45880        4.22490
C         -1.85860       -3.28810        4.45680
O         -1.76760       -4.38750        4.94740
C         -3.12510       -2.54760        4.07120
C         -2.65320       -1.17300        3.56700
C          0.60860       -2.89000        4.40680
S         -1.58070       -2.70630        1.02570
C         -0.31170       -3.55200       -0.03240
C          0.80900       -4.21500        0.76530
C          0.31930       -5.41070        1.58990
C         -0.37560       -6.43540        0.68640
C         -1.54630       -5.78790       -0.06230
C         -1.06940       -4.57880       -0.87960
H          0.26250        0.83120       -3.20060
H          0.08460       -0.90900       -2.92920
H         -1.90890        1.87940       -0.37510
H          0.46490        2.71730       -0.33580
H         -0.62560        3.84280       -1.13580
H          0.46800        2.85520       -2.10170
H         -2.92350        1.19960       -2.58750
H         -1.56110        1.92940       -3.45370
H         -2.63930        2.93600       -2.49340
H         -3.68100       -3.11580        3.30320
H         -3.80340       -2.46870        4.93850
H         -3.15200       -0.86910        2.63290
H         -2.89770       -0.38050        4.29680
H          1.25770       -2.02490        4.62800
H          1.00680       -3.42340        3.52630
H          0.65950       -3.58900        5.26660
H          0.12600       -2.77200       -0.69920
H          1.33270       -3.48840        1.41540
H          1.58900       -4.56210        0.05230
H          1.17100       -5.88370        2.11340
H         -0.37400       -5.08330        2.39140
H          0.34810       -6.85920       -0.03360
H         -0.74020       -7.28610        1.29250
H         -2.02270       -6.52710       -0.73280
H         -2.33330       -5.49220        0.65780
H         -0.39230       -4.93370       -1.68540
H         -1.92600       -4.11650       -1.40750
