56
rmsd116.gzmat
N          0.00000        0.00000        0.00000
C          1.36900        0.00000        0.00000
S          2.37660        0.00000        1.28280
S          1.98140        0.08550       -1.68140
C          0.31420        0.27360       -2.41520
C         -0.66780        0.48060       -1.25390
H         -1.57800       -0.16450       -1.41080
C         -1.15060        1.94830       -1.08990
C         -0.01720        2.96050       -0.94450
C         -2.04880        2.31580       -2.27480
C         -0.88110       -0.40980        1.04940
O         -1.97390        0.10270        1.07590
C         -0.48310       -1.51720        1.98160
H          0.57140       -1.42070        2.34650
C         -1.40790       -1.49950        3.22390
H         -1.39320       -0.45860        3.64500
N         -0.90780       -2.45890        4.21750
C         -1.82020       -3.46170        4.51970
O         -1.60900       -4.32250        5.34030
C         -3.04190       -3.30420        3.63840
C         -2.87380       -1.94020        2.95140
C          0.22530       -2.12610        5.06700
S         -0.60590       -3.03310        0.94070
C          0.44940       -4.28940        1.81360
C          0.13970       -5.64990        1.18430
C          0.73990       -5.81430       -0.21890
C          2.24730       -5.53010       -0.20140
C          2.51480       -4.11880        0.33470
C          1.94000       -3.96990        1.74800
H          0.30400        1.12750       -3.11610
H          0.06150       -0.62550       -3.00560
H         -1.77380        1.98850       -0.15440
H          0.62380        2.73280       -0.08430
H         -0.41650        3.96910       -0.77840
H          0.62000        3.01380       -1.83250
H         -2.88080        1.61180       -2.38860
H         -1.49930        2.34640       -3.22080
H         -2.49080        3.31010       -2.12960
H         -3.09920       -4.13500        2.91030
H         -3.96370       -3.36450        4.24210
H         -3.10500       -1.98520        1.87380
H         -3.57530       -1.19450        3.36390
H          0.05310       -1.19530        5.63530
H          1.14310       -2.00730        4.46400
H          0.40070       -2.94370        5.79540
H          0.12280       -4.29790        2.88410
H         -0.95060       -5.84430        1.15830
H          0.55320       -6.43980        1.84890
H          0.55070       -6.83990       -0.58590
H          0.23980       -5.14420       -0.94270
H          2.76690       -6.27840        0.42550
H          2.66740       -5.63830       -1.21740
H          3.60050       -3.91050        0.34820
H          2.07890       -3.36500       -0.34760
H          2.47750       -4.66200        2.43220
H          2.15620       -2.95910        2.14180
