56

N         -0.34540       -0.13460       -0.13700
C          1.02150       -0.30890       -0.15450
S          2.05100       -0.41360        1.13310
S          1.60850       -0.34130       -1.81360
C         -0.07180       -0.14700       -2.51630
C         -0.94350        0.41040       -1.37870
H         -1.95340       -0.01690       -1.45210
C         -1.09630        1.94760       -1.33820
C          0.22150        2.71230       -1.19050
C         -1.90140        2.43280       -2.54790
C         -1.21110       -0.35980        0.96510
O         -2.22910        0.28970        1.06340
C         -0.91350       -1.55360        1.84660
H          0.12620       -1.85230        1.71070
C         -1.14380       -1.30530        3.34820
H         -0.58060       -0.38710        3.59490
N         -0.63210       -2.41600        4.12900
C         -1.60110       -3.20390        4.70730
O         -1.38990       -4.22350        5.33350
C         -2.95230       -2.56460        4.41180
C         -2.62080       -1.19720        3.79980
C          0.77310       -2.72360        4.22770
S         -1.94380       -2.91020        1.13340
C         -0.69950       -4.27860        0.99830
C         -1.46130       -5.53670        0.55280
C         -1.93260       -5.45790       -0.90520
C         -0.77610       -5.12950       -1.85750
C         -0.03230       -3.86150       -1.42360
C          0.44540       -3.96880        0.02630
H         -0.02820        0.53480       -3.37490
H         -0.42880       -1.12830       -2.85760
H         -1.70310        2.13480       -0.43940
H          0.78380        2.39850       -0.29860
H          0.01620        3.78940       -1.08840
H          0.87770        2.58130       -2.06540
H         -2.85820        1.89450       -2.64160
H         -1.34620        2.30590       -3.49240
H         -2.12980        3.50490       -2.44970
H         -3.48820       -3.22130        3.71080
H         -3.54170       -2.51290        5.33850
H         -3.26960       -0.91500        2.96300
H         -2.70140       -0.40550        4.55900
H          1.33950       -1.85840        4.61050
H          1.21110       -3.00660        3.25470
H          0.87690       -3.57080        4.91900
H         -0.30890       -4.43230        2.01420
H         -2.30830       -5.72660        1.23090
H         -0.76990       -6.39020        0.66750
H         -2.40700       -6.41060       -1.19180
H         -2.71210       -4.68220       -0.99720
H         -0.06530       -5.97620       -1.87040
H         -1.15090       -5.02270       -2.88890
H          0.82560       -3.66200       -2.08530
H         -0.70920       -2.99440       -1.50600
H          1.17380       -4.79620        0.11110
H          0.99170       -3.06310        0.32630
