56
rmsd115.gzmat
N          0.00000        0.00000        0.00000
C          1.36810        0.00000        0.00000
S          2.36340        0.00000        1.29340
S          1.97740        0.08610       -1.68290
C          0.30470        0.26020       -2.41280
C         -0.67040        0.48520       -1.24910
H         -1.59010       -0.14780       -1.39890
C         -1.13410        1.95870       -1.08260
C          0.01270        2.96270       -0.99900
C         -2.07770        2.31890       -2.23400
C         -0.87550       -0.43060        1.04730
O         -1.94880        0.11480        1.12350
C         -0.49050       -1.60040        1.90640
H          0.53900       -1.49450        2.33420
C         -1.48170       -1.71800        3.09100
H         -1.50260       -0.72720        3.61880
N         -1.02780       -2.77590        4.00310
C         -1.94610       -3.80960        4.14500
O         -1.77730       -4.74680        4.88800
C         -3.11370       -3.56860        3.21100
C         -2.92560       -2.13570        2.68900
C          0.04520       -2.52560        4.95290
S         -0.51080       -3.04640        0.76370
C          0.65300       -4.25800        1.56070
C          0.24030       -5.66230        1.11540
C          0.58010       -5.94760       -0.35300
C          2.06410       -5.67950       -0.63250
C          2.43130       -4.23860       -0.25950
C          2.11180       -3.97070        1.21630
H          0.29020        1.10140       -3.12820
H          0.04960       -0.65070       -2.98440
H         -1.71660        2.01460       -0.12180
H          0.71060        2.71940       -0.18870
H         -0.36900        3.97040       -0.79040
H          0.58810        3.02620       -1.92800
H         -2.91980        1.62100       -2.30470
H         -1.56650        2.33200       -3.20150
H         -2.50560        3.31880       -2.08430
H         -3.10980       -4.31530        2.39420
H         -4.07040       -3.70480        3.74350
H         -3.09800       -2.06410        1.60250
H         -3.65690       -1.44400        3.14240
H         -0.17060       -1.65530        5.59670
H          0.99890       -2.34710        4.42530
H          0.17980       -3.40960        5.60890
H          0.50860       -4.17060        2.66650
H         -0.83690       -5.84350        1.29990
H          0.76540       -6.39920        1.76120
H          0.33410       -6.99870       -0.59390
H         -0.04730       -5.33550       -1.02690
H          2.69040       -6.38910       -0.06090
H          2.28740       -5.86440       -1.69840
H          3.50520       -4.05500       -0.44870
H          1.89190       -3.52630       -0.91130
H          2.75800       -4.61480        1.85020
H          2.39510       -2.93510        1.48220
