56
rmsd117.gzmat
N          0.00000        0.00000        0.00000
C          1.36330        0.00000        0.00000
S          2.34790        0.00000        1.30620
S          1.97420        0.05000       -1.68410
C          0.29610        0.15010       -2.41900
C         -0.68240        0.41380       -1.26530
H         -1.58910       -0.24400       -1.38140
C         -1.17130        1.88620       -1.17590
C         -0.04320        2.91490       -1.17680
C         -2.14290        2.15700       -2.32840
C         -0.85840       -0.36700        1.09690
O         -1.84560        0.29560        1.27770
C         -0.53570       -1.62290        1.85180
H          0.56460       -1.75340        2.01670
C         -1.21700       -1.61810        3.24130
H         -0.89620       -0.68610        3.77820
N         -0.79770       -2.81100        3.98750
C         -1.84310       -3.67790        4.27370
O         -1.69950       -4.70850        4.88730
C         -3.12210       -3.12660        3.67710
C         -2.76930       -1.70810        3.20240
C          0.50320       -2.87490        4.63350
S         -1.11210       -2.97460        0.73800
C          0.09880       -4.33990        1.09130
C         -0.53470       -5.65450        0.63280
C         -0.58400       -5.79450       -0.89390
C          0.81030       -5.60240       -1.50280
C          1.38930       -4.24010       -1.10320
C          1.45170       -4.10620        0.42360
H          0.26230        0.95100       -3.17820
H          0.06110       -0.79470       -2.94120
H         -1.73550        1.99290       -0.20870
H          0.65880        2.74960       -0.35020
H         -0.44280        3.92900       -1.04930
H          0.53020        2.91450       -2.10900
H         -2.99000        1.46150       -2.31980
H         -1.65680        2.08760       -3.30640
H         -2.56260        3.16840       -2.25070
H         -3.46610       -3.77330        2.84780
H         -3.93260       -3.13430        4.42560
H         -3.17970       -1.48910        2.20260
H         -3.20760       -0.94420        3.86800
H          0.66860       -2.01230        5.30270
H          1.31450       -2.89970        3.88450
H          0.57450       -3.79880        5.24340
H          0.23090       -4.37090        2.20240
H         -1.54820       -5.78510        1.06150
H          0.05990       -6.49290        1.05610
H         -0.98050       -6.79140       -1.16320
H         -1.29180       -5.06710       -1.33280
H          1.48370       -6.41370       -1.17010
H          0.75740       -5.68360       -2.60340
H          2.40210       -4.11710       -1.53080
H          0.78140       -3.42710       -1.54100
H          2.17570       -4.84850        0.82300
H          1.87670       -3.12190        0.69730
