rmsd50.gzmat
 OpenBabel08211713403D

 56 58  0  0  1  0  0  0  0  0999 V2000
    0.0000    0.0000    0.0000 N   0  0  0  0  0  0  0  0  0  0  0  0
    1.3592    0.0000    0.0000 C   0  0  0  0  0  0  0  0  0  0  0  0
    2.3302    0.0000    1.3208 S   0  0  0  0  0  0  0  0  0  0  0  0
    1.9779    0.0100   -1.6798 S   0  0  0  0  0  0  0  0  0  0  0  0
    0.3003    0.0246   -2.4231 C   0  0  0  0  0  0  0  0  0  0  0  0
   -0.6991    0.2921   -1.2866 C   0  0  2  0  0  0  0  0  0  0  0  0
   -1.5588   -0.4321   -1.3642 H   0  0  0  0  0  0  0  0  0  0  0  0
   -1.2847    1.7314   -1.2932 C   0  0  0  0  0  0  0  0  0  0  0  0
   -0.2198    2.8252   -1.2689 C   0  0  0  0  0  0  0  0  0  0  0  0
   -2.2004    1.8905   -2.5104 C   0  0  0  0  0  0  0  0  0  0  0  0
   -0.8243   -0.2200    1.1732 C   0  0  0  0  0  0  0  0  0  0  0  0
   -1.6722    0.5864    1.4346 O   0  0  0  0  0  0  0  0  0  0  0  0
   -0.6045   -1.5142    1.8973 C   0  0  1  0  0  0  0  0  0  0  0  0
    0.4508   -1.8801    1.7947 H   0  0  0  0  0  0  0  0  0  0  0  0
   -0.9035   -1.3823    3.4080 C   0  0  2  0  0  0  0  0  0  0  0  0
   -0.2607   -0.5578    3.8174 H   0  0  0  0  0  0  0  0  0  0  0  0
   -0.5841   -2.6576    4.0625 N   0  0  0  0  0  0  0  0  0  0  0  0
   -1.6855   -3.2664    4.6482 C   0  0  0  0  0  0  0  0  0  0  0  0
   -1.6217   -4.3100    5.2531 O   0  0  0  0  0  0  0  0  0  0  0  0
   -2.9194   -2.4307    4.3729 C   0  0  0  0  0  0  0  0  0  0  0  0
   -2.3972   -1.1245    3.7537 C   0  0  0  0  0  0  0  0  0  0  0  0
    0.7909   -3.0139    4.3743 C   0  0  0  0  0  0  0  0  0  0  0  0
   -1.7012   -2.7061    1.0179 S   0  0  0  0  0  0  0  0  0  0  0  0
   -0.6488   -4.2369    0.9819 C   0  0  0  0  0  0  0  0  0  0  0  0
   -1.5455   -5.4102    0.5848 C   0  0  0  0  0  0  0  0  0  0  0  0
   -1.9396   -5.3876   -0.8978 C   0  0  0  0  0  0  0  0  0  0  0  0
   -0.6956   -5.3016   -1.7908 C   0  0  0  0  0  0  0  0  0  0  0  0
    0.1383   -4.0650   -1.4342 C   0  0  0  0  0  0  0  0  0  0  0  0
    0.5488   -4.1027    0.0433 C   0  0  0  0  0  0  0  0  0  0  0  0
    0.2460    0.7966   -3.2112 H   0  0  0  0  0  0  0  0  0  0  0  0
    0.1043   -0.9450   -2.9145 H   0  0  0  0  0  0  0  0  0  0  0  0
   -1.9137    1.8444   -0.3671 H   0  0  0  0  0  0  0  0  0  0  0  0
    0.4467    2.7206   -0.4026 H   0  0  0  0  0  0  0  0  0  0  0  0
   -0.6816    3.8175   -1.1875 H   0  0  0  0  0  0  0  0  0  0  0  0
    0.4009    2.8343   -2.1701 H   0  0  0  0  0  0  0  0  0  0  0  0
   -2.9902    1.1309   -2.5287 H   0  0  0  0  0  0  0  0  0  0  0  0
   -1.6524    1.8300   -3.4557 H   0  0  0  0  0  0  0  0  0  0  0  0
   -2.6989    2.8685   -2.4929 H   0  0  0  0  0  0  0  0  0  0  0  0
   -3.6037   -2.9730    3.6934 H   0  0  0  0  0  0  0  0  0  0  0  0
   -3.4855   -2.2612    5.3048 H   0  0  0  0  0  0  0  0  0  0  0  0
   -2.9875   -0.8176    2.8735 H   0  0  0  0  0  0  0  0  0  0  0  0
   -2.4804   -0.2846    4.4653 H   0  0  0  0  0  0  0  0  0  0  0  0
    1.2531   -2.2892    5.0685 H   0  0  0  0  0  0  0  0  0  0  0  0
    1.4040   -3.0589    3.4575 H   0  0  0  0  0  0  0  0  0  0  0  0
    0.8172   -4.0132    4.8544 H   0  0  0  0  0  0  0  0  0  0  0  0
   -0.2862   -4.3947    2.0296 H   0  0  0  0  0  0  0  0  0  0  0  0
   -2.4527   -5.4567    1.2204 H   0  0  0  0  0  0  0  0  0  0  0  0
   -1.0003   -6.3543    0.8019 H   0  0  0  0  0  0  0  0  0  0  0  0
   -2.5184   -6.2983   -1.1417 H   0  0  0  0  0  0  0  0  0  0  0  0
   -2.6182   -4.5411   -1.1116 H   0  0  0  0  0  0  0  0  0  0  0  0
   -0.0848   -6.2165   -1.6769 H   0  0  0  0  0  0  0  0  0  0  0  0
   -0.9935   -5.2658   -2.8542 H   0  0  0  0  0  0  0  0  0  0  0  0
    1.0411   -4.0176   -2.0713 H   0  0  0  0  0  0  0  0  0  0  0  0
   -0.4349   -3.1464   -1.6558 H   0  0  0  0  0  0  0  0  0  0  0  0
    1.2261   -4.9684    0.2086 H   0  0  0  0  0  0  0  0  0  0  0  0
    1.1622   -3.2140    0.2871 H   0  0  0  0  0  0  0  0  0  0  0  0
  1  2  1  0  0  0  0
  1 11  1  0  0  0  0
  2  3  2  0  0  0  0
  4  2  1  0  0  0  0
  5  4  1  0  0  0  0
  5  6  1  0  0  0  0
  6  7  1  6  0  0  0
  6  1  1  0  0  0  0
  8  6  1  0  0  0  0
  8  9  1  0  0  0  0
  8 32  1  0  0  0  0
  9 34  1  0  0  0  0
  9 33  1  0  0  0  0
 10 38  1  0  0  0  0
 10  8  1  0  0  0  0
 11 12  2  0  0  0  0
 11 13  1  0  0  0  0
 13 14  1  6  0  0  0
 13 15  1  0  0  0  0
 15 21  1  0  0  0  0
 15 16  1  1  0  0  0
 15 17  1  0  0  0  0
 17 22  1  0  0  0  0
 17 18  1  0  0  0  0
 18 19  2  0  0  0  0
 20 18  1  0  0  0  0
 20 40  1  0  0  0  0
 21 20  1  0  0  0  0
 21 42  1  0  0  0  0
 22 45  1  0  0  0  0
 22 43  1  0  0  0  0
 23 13  1  0  0  0  0
 24 23  1  0  0  0  0
 24 46  1  0  0  0  0
 25 48  1  0  0  0  0
 25 24  1  0  0  0  0
 25 47  1  0  0  0  0
 26 25  1  0  0  0  0
 27 51  1  0  0  0  0
 27 28  1  0  0  0  0
 27 26  1  0  0  0  0
 28 29  1  0  0  0  0
 29 55  1  0  0  0  0
 29 56  1  0  0  0  0
 29 24  1  0  0  0  0
 30  5  1  0  0  0  0
 31  5  1  0  0  0  0
 35  9  1  0  0  0  0
 36 10  1  0  0  0  0
 37 10  1  0  0  0  0
 39 20  1  0  0  0  0
 41 21  1  0  0  0  0
 44 22  1  0  0  0  0
 49 26  1  0  0  0  0
 50 26  1  0  0  0  0
 52 27  1  0  0  0  0
 53 28  1  0  0  0  0
 54 28  1  0  0  0  0
M  END
$$$$
