56

N         -0.36110       -0.04640       -0.20210
C          0.95130       -0.40080       -0.43750
S          2.15850       -0.68990        0.65020
S          1.26210       -0.45290       -2.17290
C         -0.47110       -0.03630       -2.59470
C         -1.06550        0.60520       -1.33190
H         -2.12310        0.32050       -1.24500
C         -1.00050        2.14690       -1.25710
C          0.41430        2.72830       -1.31620
C         -1.91350        2.76930       -2.31810
C         -1.10140       -0.22490        0.99650
O         -2.02980        0.51760        1.23230
C         -0.81750       -1.46620        1.81240
H          0.25700       -1.66550        1.81830
C         -1.31140       -1.35030        3.26740
H         -0.94420       -0.37820        3.64070
N         -0.77930       -2.42390        4.08410
C         -1.70200       -3.37500        4.45100
O         -1.44940       -4.39960        5.05430
C         -3.06780       -2.90740        3.96370
C         -2.84330       -1.47230        3.46960
C          0.61420       -2.52330        4.43920
S         -1.63080       -2.85170        0.90090
C         -0.21460       -3.68030        0.03900
C          0.85410       -4.22630        0.98980
C          0.35740       -5.39220        1.84770
C         -0.22720       -6.51040        0.97750
C         -1.32380       -5.98430        0.04460
C         -0.82140       -4.81160       -0.80740
H         -0.48260        0.64850       -3.45210
H         -1.00430       -0.95790       -2.86760
H         -1.42780        2.38560       -0.27100
H          1.06360        2.31660       -0.52950
H          0.37360        3.81940       -1.17260
H          0.90030        2.53950       -2.28640
H         -2.93700        2.36500       -2.26130
H         -1.53640        2.59730       -3.34010
H         -1.97660        3.85890       -2.17680
H         -3.39250       -3.58880        3.16360
H         -3.79370       -2.99140        4.78520
H         -3.38840       -1.22640        2.55080
H         -3.15780       -0.74600        4.23290
H          0.93510       -1.64700        5.02880
H          1.26700       -2.59360        3.55380
H          0.73660       -3.43420        5.04030
H          0.23010       -2.93000       -0.62940
H          1.26700       -3.41950        1.61180
H          1.69570       -4.56350        0.35720
H          1.18690       -5.77890        2.46130
H         -0.40690       -5.03700        2.55670
H          0.58020       -6.95700        0.36760
H         -0.62380       -7.31920        1.61220
H         -1.68850       -6.78900       -0.61470
H         -2.18890       -5.65770        0.64680
H         -0.02590       -5.16830       -1.48550
H         -1.62710       -4.41600       -1.44730
