56
rmsd50.gzmat
N          0.00000        0.00000        0.00000
C          1.35920        0.00000        0.00000
S          2.33020        0.00000        1.32080
S          1.97790        0.01000       -1.67980
C          0.30030        0.02460       -2.42310
C         -0.69910        0.29210       -1.28660
H         -1.55880       -0.43210       -1.36420
C         -1.28470        1.73140       -1.29320
C         -0.21980        2.82520       -1.26890
C         -2.20040        1.89050       -2.51040
C         -0.82430       -0.22000        1.17320
O         -1.67220        0.58640        1.43460
C         -0.60450       -1.51420        1.89730
H          0.45080       -1.88010        1.79470
C         -0.90350       -1.38230        3.40800
H         -0.26070       -0.55780        3.81740
N         -0.58410       -2.65760        4.06250
C         -1.68550       -3.26640        4.64820
O         -1.62170       -4.31000        5.25310
C         -2.91940       -2.43070        4.37290
C         -2.39720       -1.12450        3.75370
C          0.79090       -3.01390        4.37430
S         -1.70120       -2.70610        1.01790
C         -0.64880       -4.23690        0.98190
C         -1.54550       -5.41020        0.58480
C         -1.93960       -5.38760       -0.89780
C         -0.69560       -5.30160       -1.79080
C          0.13830       -4.06500       -1.43420
C          0.54880       -4.10270        0.04330
H          0.24600        0.79660       -3.21120
H          0.10430       -0.94500       -2.91450
H         -1.91370        1.84440       -0.36710
H          0.44670        2.72060       -0.40260
H         -0.68160        3.81750       -1.18750
H          0.40090        2.83430       -2.17010
H         -2.99020        1.13090       -2.52870
H         -1.65240        1.83000       -3.45570
H         -2.69890        2.86850       -2.49290
H         -3.60370       -2.97300        3.69340
H         -3.48550       -2.26120        5.30480
H         -2.98750       -0.81760        2.87350
H         -2.48040       -0.28460        4.46530
H          1.25310       -2.28920        5.06850
H          1.40400       -3.05890        3.45750
H          0.81720       -4.01320        4.85440
H         -0.28620       -4.39470        2.02960
H         -2.45270       -5.45670        1.22040
H         -1.00030       -6.35430        0.80190
H         -2.51840       -6.29830       -1.14170
H         -2.61820       -4.54110       -1.11160
H         -0.08480       -6.21650       -1.67690
H         -0.99350       -5.26580       -2.85420
H          1.04110       -4.01760       -2.07130
H         -0.43490       -3.14640       -1.65580
H          1.22610       -4.96840        0.20860
H          1.16220       -3.21400        0.28710
