34

C         -0.16910        0.10680       -0.03090
H          0.91190        0.27220        0.09590
N         -0.43510       -0.01420       -1.44800
C          0.37770        0.81600       -2.33020
C          0.34100        2.31050       -2.05460
C          1.45790        2.97480       -1.53220
C          1.39660        4.33180       -1.19870
C          0.21000        5.04370       -1.38760
C         -0.90970        4.39310       -1.91890
C         -0.84220        3.03940       -2.24860
C         -0.89380        1.24860        0.71230
H         -0.39310        2.22070        0.58560
O         -2.23110        1.31970        0.20830
C         -0.93360        0.77520        2.17240
H          0.07320        0.88700        2.61490
O         -1.87210        1.48040        2.94660
C         -1.29150       -0.72450        2.03900
H         -0.99630       -1.31510        2.91620
O         -2.70480       -0.84620        1.94100
C         -0.56040       -1.18250        0.75680
H         -1.25320       -1.78430        0.15260
S          0.84810       -2.32430        1.03850
H         -1.42730        0.14950       -1.61330
H          0.04140        0.62190       -3.36200
H          1.42090        0.46390       -2.26850
H          2.38720        2.41860       -1.37790
H          2.27710        4.83300       -0.78890
H          0.15680        6.10330       -1.12650
H         -1.83920        4.94640       -2.07560
H         -1.72640        2.53430       -2.64640
H         -2.68200        1.97960        0.75720
H         -2.62300        0.86850        3.04500
H         -2.95770       -0.33040        1.15390
H          1.56370       -1.48090        1.82070
