rmsd8.gzmat
 OpenBabel08211713433D

 34 35  0  0  1  0  0  0  0  0999 V2000
    0.0000    0.0000    0.0000 C   0  0  1  0  0  0  0  0  0  0  0  0
    1.1213    0.0000    0.0000 H   0  0  0  0  0  0  0  0  0  0  0  0
   -0.4486    0.0000   -1.4005 N   0  0  0  0  0  0  0  0  0  0  0  0
    0.2128    1.0509   -2.2164 C   0  0  0  0  0  0  0  0  0  0  0  0
    1.7089    0.8893   -2.2127 C   0  0  0  0  0  0  0  0  0  0  0  0
    2.2805   -0.3696   -2.4105 C   0  0  0  0  0  0  0  0  0  0  0  0
    3.6650   -0.5123   -2.4093 C   0  0  0  0  0  0  0  0  0  0  0  0
    4.4821    0.6005   -2.2122 C   0  0  0  0  0  0  0  0  0  0  0  0
    3.9117    1.8571   -2.0198 C   0  0  0  0  0  0  0  0  0  0  0  0
    2.5259    2.0037   -2.0194 C   0  0  0  0  0  0  0  0  0  0  0  0
   -0.4965    1.2261    0.8376 C   0  0  1  0  0  0  0  0  0  0  0  0
    0.2672    2.0164    0.9451 H   0  0  0  0  0  0  0  0  0  0  0  0
   -1.5945    1.7657    0.1292 O   0  0  0  0  0  0  0  0  0  0  0  0
   -0.9872    0.6452    2.1867 C   0  0  1  0  0  0  0  0  0  0  0  0
   -0.1961    0.6284    2.9611 H   0  0  0  0  0  0  0  0  0  0  0  0
   -1.9887    1.4731    2.7140 O   0  0  0  0  0  0  0  0  0  0  0  0
   -1.5147   -0.7640    1.8084 C   0  0  1  0  0  0  0  0  0  0  0  0
   -1.6612   -1.4488    2.6669 H   0  0  0  0  0  0  0  0  0  0  0  0
   -2.8208   -0.6144    1.2971 O   0  0  0  0  0  0  0  0  0  0  0  0
   -0.5689   -1.2617    0.7039 C   0  0  2  0  0  0  0  0  0  0  0  0
   -1.1391   -1.8903   -0.0298 H   0  0  0  0  0  0  0  0  0  0  0  0
    0.7230   -2.3781    1.3584 S   0  0  0  0  0  0  0  0  0  0  0  0
   -1.4638    0.1184   -1.4524 H   0  0  0  0  0  0  0  0  0  0  0  0
   -0.0810    2.0756   -1.8900 H   0  0  0  0  0  0  0  0  0  0  0  0
   -0.1659    0.9299   -3.2618 H   0  0  0  0  0  0  0  0  0  0  0  0
    1.6328   -1.2376   -2.5515 H   0  0  0  0  0  0  0  0  0  0  0  0
    4.1101   -1.4929   -2.5644 H   0  0  0  0  0  0  0  0  0  0  0  0
    5.5634    0.4877   -2.2091 H   0  0  0  0  0  0  0  0  0  0  0  0
    4.5484    2.7260   -1.8691 H   0  0  0  0  0  0  0  0  0  0  0  0
    2.0874    2.9881   -1.8688 H   0  0  0  0  0  0  0  0  0  0  0  0
   -2.0633    2.4158    0.7054 H   0  0  0  0  0  0  0  0  0  0  0  0
   -2.8815    1.0808    2.5389 H   0  0  0  0  0  0  0  0  0  0  0  0
   -2.7990   -0.0406    0.4921 H   0  0  0  0  0  0  0  0  0  0  0  0
    1.4551   -1.5112    2.0672 H   0  0  0  0  0  0  0  0  0  0  0  0
  1  2  1  1  0  0  0
  1 20  1  0  0  0  0
  3  1  1  0  0  0  0
  4  5  1  0  0  0  0
  4 24  1  0  0  0  0
  4  3  1  0  0  0  0
  5 10  2  0  0  0  0
  6  7  2  0  0  0  0
  6  5  1  0  0  0  0
  7  8  1  0  0  0  0
  8 28  1  0  0  0  0
  8  9  2  0  0  0  0
  9 10  1  0  0  0  0
  9 29  1  0  0  0  0
 10 30  1  0  0  0  0
 11  1  1  0  0  0  0
 11 12  1  1  0  0  0
 13 31  1  0  0  0  0
 13 11  1  0  0  0  0
 14 11  1  0  0  0  0
 14 16  1  0  0  0  0
 14 15  1  1  0  0  0
 17 20  1  0  0  0  0
 17 14  1  0  0  0  0
 17 18  1  1  0  0  0
 19 17  1  0  0  0  0
 20 21  1  6  0  0  0
 20 22  1  0  0  0  0
 22 34  1  0  0  0  0
 23  3  1  0  0  0  0
 25  4  1  0  0  0  0
 26  6  1  0  0  0  0
 27  7  1  0  0  0  0
 32 16  1  0  0  0  0
 33 19  1  0  0  0  0
M  END
$$$$
