34
rmsd5.gzmat
C          0.00000        0.00000        0.00000
H          1.11840        0.00000        0.00000
N         -0.47680        0.00000       -1.39020
C          0.38380        0.78120       -2.30240
C          0.42670        2.25810       -2.00620
C          1.63190        2.87130       -1.66520
C          1.66130        4.23330       -1.37090
C          0.48830        4.98400       -1.41660
C         -0.71580        4.37290       -1.76330
C         -0.74700        3.01300       -2.06090
C         -0.49150        1.22090        0.84760
H          0.19830        2.08040        0.82150
O         -1.73760        1.60450        0.28910
C         -0.76080        0.64690        2.25870
H          0.14260        0.61890        2.89620
O         -1.65520        1.47210        2.94940
C         -1.35880       -0.75260        1.94220
H         -1.40910       -1.44090        2.80680
O         -2.71210       -0.57070        1.59490
C         -0.56840       -1.25660        0.72080
H         -1.25500       -1.81500        0.03050
S          0.72090       -2.47010        1.17770
H         -1.44490        0.32650       -1.43610
H         -0.00060        0.61160       -3.33850
H          1.40410        0.33350       -2.29030
H          2.55230        2.29260       -1.63250
H          2.60270        4.71030       -1.10640
H          0.51160        6.04670       -1.18470
H         -1.63240        4.95890       -1.80590
H         -1.68960        2.53670       -2.32600
H         -2.06350        2.41630        0.74050
H         -2.58260        1.14530        2.82460
H         -2.77130        0.04680        0.82220
H          1.42840       -1.74420        2.05070
