
     RDKit          3D

 34 35  0  0  0  0  0  0  0  0999 V2000
   -0.1691    0.1068   -0.0309 C   0  0  1  0  0  0  0  0  0  0  0  0
    0.9119    0.2722    0.0959 H   0  0  0  0  0  0  0  0  0  0  0  0
   -0.4351   -0.0142   -1.4480 N   0  0  0  0  0  0  0  0  0  0  0  0
    0.3777    0.8160   -2.3302 C   0  0  0  0  0  0  0  0  0  0  0  0
    0.3410    2.3105   -2.0546 C   0  0  0  0  0  0  0  0  0  0  0  0
    1.4579    2.9748   -1.5322 C   0  0  0  0  0  0  0  0  0  0  0  0
    1.3966    4.3318   -1.1987 C   0  0  0  0  0  0  0  0  0  0  0  0
    0.2100    5.0437   -1.3876 C   0  0  0  0  0  0  0  0  0  0  0  0
   -0.9097    4.3931   -1.9189 C   0  0  0  0  0  0  0  0  0  0  0  0
   -0.8422    3.0394   -2.2486 C   0  0  0  0  0  0  0  0  0  0  0  0
   -0.8938    1.2486    0.7123 C   0  0  1  0  0  0  0  0  0  0  0  0
   -0.3931    2.2207    0.5856 H   0  0  0  0  0  0  0  0  0  0  0  0
   -2.2311    1.3197    0.2083 O   0  0  0  0  0  0  0  0  0  0  0  0
   -0.9336    0.7752    2.1724 C   0  0  1  0  0  0  0  0  0  0  0  0
    0.0732    0.8870    2.6149 H   0  0  0  0  0  0  0  0  0  0  0  0
   -1.8721    1.4804    2.9466 O   0  0  0  0  0  0  0  0  0  0  0  0
   -1.2915   -0.7245    2.0390 C   0  0  1  0  0  0  0  0  0  0  0  0
   -0.9963   -1.3151    2.9162 H   0  0  0  0  0  0  0  0  0  0  0  0
   -2.7048   -0.8462    1.9410 O   0  0  0  0  0  0  0  0  0  0  0  0
   -0.5604   -1.1825    0.7568 C   0  0  2  0  0  0  0  0  0  0  0  0
   -1.2532   -1.7843    0.1526 H   0  0  0  0  0  0  0  0  0  0  0  0
    0.8481   -2.3243    1.0385 S   0  0  0  0  0  0  0  0  0  0  0  0
   -1.4273    0.1495   -1.6133 H   0  0  0  0  0  0  0  0  0  0  0  0
    0.0414    0.6219   -3.3620 H   0  0  0  0  0  0  0  0  0  0  0  0
    1.4209    0.4639   -2.2685 H   0  0  0  0  0  0  0  0  0  0  0  0
    2.3872    2.4186   -1.3779 H   0  0  0  0  0  0  0  0  0  0  0  0
    2.2771    4.8330   -0.7889 H   0  0  0  0  0  0  0  0  0  0  0  0
    0.1568    6.1033   -1.1265 H   0  0  0  0  0  0  0  0  0  0  0  0
   -1.8392    4.9464   -2.0756 H   0  0  0  0  0  0  0  0  0  0  0  0
   -1.7264    2.5343   -2.6464 H   0  0  0  0  0  0  0  0  0  0  0  0
   -2.6820    1.9796    0.7572 H   0  0  0  0  0  0  0  0  0  0  0  0
   -2.6230    0.8685    3.0450 H   0  0  0  0  0  0  0  0  0  0  0  0
   -2.9577   -0.3304    1.1539 H   0  0  0  0  0  0  0  0  0  0  0  0
    1.5637   -1.4809    1.8207 H   0  0  0  0  0  0  0  0  0  0  0  0
  1  2  1  6
  1  3  1  0
  1 11  1  0
  1 20  1  0
  3  4  1  0
  3 23  1  0
  4  5  1  0
  4 24  1  0
  4 25  1  0
  5  6  2  0
  5 10  1  0
  6  7  1  0
  6 26  1  0
  7  8  2  0
  7 27  1  0
  8  9  1  0
  8 28  1  0
  9 10  2  0
  9 29  1  0
 10 30  1  0
 11 12  1  1
 11 13  1  0
 11 14  1  0
 13 31  1  0
 14 15  1  1
 14 16  1  0
 14 17  1  0
 16 32  1  0
 17 18  1  1
 17 19  1  0
 17 20  1  0
 19 33  1  0
 20 21  1  6
 20 22  1  0
 22 34  1  0
M  END

