34
rmsd10.gzmat
C          0.00000        0.00000        0.00000
H          1.12170        0.00000        0.00000
N         -0.46450        0.00000       -1.39560
C          0.30340        0.94170       -2.24940
C          1.73750        0.49670       -2.36430
C          2.02940       -0.82110       -2.72240
C          3.35340       -1.23480       -2.83720
C          4.38980       -0.33200       -2.60140
C          4.09860        0.98270       -2.24310
C          2.77370        1.39840       -2.12270
C         -0.48370        1.22210        0.84720
H          0.27120        2.02340        0.92510
O         -1.61530        1.74400        0.17850
C         -0.91160        0.63690        2.21490
H         -0.08310        0.61510        2.95140
O         -1.88970        1.46360        2.78800
C         -1.45310       -0.77230        1.85980
H         -1.55220       -1.45780        2.72490
O         -2.78530       -0.62730        1.41770
C         -0.57030       -1.26340        0.70070
H         -1.18730       -1.86220       -0.01370
S          0.76150       -2.33660        1.36000
H         -1.46190        0.22710       -1.44010
H          0.23070        1.99140       -1.88460
H         -0.16770        0.92670       -3.26290
H          1.21190       -1.51930       -2.90360
H          3.57930       -2.26220       -3.11430
H          5.42410       -0.65360       -2.69960
H          4.90660        1.68740       -2.05870
H          2.55270        2.42580       -1.84150
H         -2.08120        2.37630        0.77620
H         -2.78710        1.06170        2.67120
H         -2.80590       -0.06240        0.60630
H          1.32530       -2.71640        0.20430
