34
rmsd22.gzmat
C          0.00000        0.00000        0.00000
H          1.11900        0.00000        0.00000
N         -0.46270        0.00000       -1.39170
C          0.33190        0.91660       -2.24880
C         -0.29680        0.97170       -3.61470
C         -0.57190        2.20260       -4.21040
C         -1.15560        2.24470       -5.47510
C         -1.46600        1.06080       -6.14180
C         -1.18480       -0.16890       -5.54790
C         -0.59800       -0.21490       -4.28610
C         -0.49600        1.21930        0.84900
H          0.20630        2.06820        0.85950
O         -1.70970        1.63530        0.25140
C         -0.81420        0.63620        2.24690
H          0.06510        0.60420        2.91670
O         -1.73770        1.46220        2.90120
C         -1.39930       -0.76120        1.90580
H         -1.47660       -1.45200        2.76670
O         -2.74090       -0.57390        1.51730
C         -0.57150       -1.26050        0.70900
H         -1.23600       -1.82890        0.00400
S          0.71370       -2.46410        1.19980
H         -1.45850        0.22700       -1.45280
H          1.36460        0.50010       -2.33160
H          0.42530        1.93430       -1.80920
H         -0.33660        3.12940       -3.69220
H         -1.37230        3.20400       -5.94040
H         -1.92900        1.09710       -7.12500
H         -1.42440       -1.09360       -6.06850
H         -0.37860       -1.17220       -3.81030
H         -2.11610        2.34650        0.80140
H         -2.65210        1.08980        2.80840
H         -2.77640        0.02590        0.72900
H          1.48060       -1.68990        1.97480
