34
rmsd11.gzmat
C          0.00000        0.00000        0.00000
H          1.12190        0.00000        0.00000
N         -0.46990        0.00000       -1.39300
C          0.33980        0.88470       -2.26790
C          1.75230        0.37150       -2.37190
C          1.98580       -0.97870       -2.64090
C          3.29030       -1.45590       -2.73000
C          4.36560       -0.58450       -2.56100
C          4.13290        0.76460       -2.30250
C          2.82770        1.24410       -2.20630
C         -0.47660        1.21970        0.85220
H          0.26630        2.03480        0.89890
O         -1.63920        1.72000        0.22110
C         -0.84530        0.63160        2.23580
H          0.01310        0.61240        2.93700
O         -1.80220        1.45440        2.84860
C         -1.39500       -0.78070        1.90360
H         -1.44810       -1.46790        2.77170
O         -2.74820       -0.64260        1.52760
C         -0.56720       -1.26460        0.70200
H         -1.22350       -1.83810        0.00160
S          0.77020       -2.37620        1.28200
H         -1.45650        0.26960       -1.43910
H          0.31850        1.94520       -1.92890
H         -0.13220        0.86750       -3.28100
H          1.13820       -1.65190       -2.77150
H          3.47090       -2.50880       -2.93490
H          5.38460       -0.95770       -2.63240
H          4.97140        1.44610       -2.17570
H          2.65360        2.29860       -2.00480
H         -2.09710        2.34160        0.83540
H         -2.70090        1.04520        2.77520
H         -2.81100       -0.08130        0.71570
H          1.33860       -2.65910        0.10090
