34

C         -0.18750        0.20380       -0.09730
H          0.89210        0.33920        0.06660
N         -0.42820        0.19360       -1.52500
C          0.44950        1.05680       -2.30290
C          1.85760        0.49980       -2.36540
C          2.05990       -0.85640       -2.66770
C          3.34890       -1.38790       -2.72520
C          4.45810       -0.57070       -2.47810
C          4.26690        0.77850       -2.17540
C          2.97290        1.30760       -2.11750
C         -0.90500        1.30210        0.70280
H         -0.40540        2.28370        0.61880
O         -2.25080        1.39310        0.23280
C         -0.91260        0.75580        2.13670
H          0.09920        0.84590        2.56930
O         -1.84970        1.41400        2.95420
C         -1.26730       -0.74100        1.93420
H         -0.92210       -1.36310        2.77240
O         -2.68130       -0.87840        1.90560
C         -0.60600       -1.12520        0.59170
H         -1.34520       -1.65070       -0.02820
S          0.81790       -2.25190        0.88180
H         -1.40630        0.41400       -1.70370
H          0.49350        2.10220       -1.93010
H          0.03530        1.11210       -3.32410
H          1.18710       -1.48820       -2.84620
H          3.49160       -2.44510       -2.96320
H          5.46730       -0.98750       -2.51850
H          5.12680        1.42240       -1.97460
H          2.82710        2.36290       -1.86940
H         -2.70800        1.96000        0.87460
H         -2.57860        0.77690        3.06140
H         -2.97860       -0.36320        1.13510
H          1.35190       -2.11550       -0.35440
