
     RDKit          3D

 34 35  0  0  0  0  0  0  0  0999 V2000
   -0.2240    0.2128   -0.0773 C   0  0  1  0  0  0  0  0  0  0  0  0
    0.8463    0.3486    0.1428 H   0  0  0  0  0  0  0  0  0  0  0  0
   -0.3807    0.2119   -1.5132 N   0  0  0  0  0  0  0  0  0  0  0  0
    0.3961    1.2156   -2.2242 C   0  0  0  0  0  0  0  0  0  0  0  0
    1.8868    0.9382   -2.1815 C   0  0  0  0  0  0  0  0  0  0  0  0
    2.3709   -0.3776   -2.1426 C   0  0  0  0  0  0  0  0  0  0  0  0
    3.7452   -0.6258   -2.1309 C   0  0  0  0  0  0  0  0  0  0  0  0
    4.6555    0.4351   -2.1625 C   0  0  0  0  0  0  0  0  0  0  0  0
    4.1811    1.7491   -2.1970 C   0  0  0  0  0  0  0  0  0  0  0  0
    2.8057    1.9961   -2.1999 C   0  0  0  0  0  0  0  0  0  0  0  0
   -0.9785    1.3041    0.6992 C   0  0  1  0  0  0  0  0  0  0  0  0
   -0.4861    2.2904    0.6335 H   0  0  0  0  0  0  0  0  0  0  0  0
   -2.3088    1.3808    0.1857 O   0  0  0  0  0  0  0  0  0  0  0  0
   -1.0260    0.7541    2.1307 C   0  0  1  0  0  0  0  0  0  0  0  0
   -0.0253    0.8481    2.5902 H   0  0  0  0  0  0  0  0  0  0  0  0
   -1.9826    1.4096    2.9258 O   0  0  0  0  0  0  0  0  0  0  0  0
   -1.3729   -0.7428    1.9133 C   0  0  1  0  0  0  0  0  0  0  0  0
   -1.0365   -1.3803    2.7410 H   0  0  0  0  0  0  0  0  0  0  0  0
   -2.7874   -0.8794    1.8620 O   0  0  0  0  0  0  0  0  0  0  0  0
   -0.6916   -1.1181    0.5745 C   0  0  2  0  0  0  0  0  0  0  0  0
   -1.4462   -1.5956   -0.0672 H   0  0  0  0  0  0  0  0  0  0  0  0
    0.6183   -2.3952    0.6788 S   0  0  0  0  0  0  0  0  0  0  0  0
   -1.3688    0.3043   -1.7416 H   0  0  0  0  0  0  0  0  0  0  0  0
    0.2191    2.2520   -1.8644 H   0  0  0  0  0  0  0  0  0  0  0  0
    0.0606    1.2004   -3.2760 H   0  0  0  0  0  0  0  0  0  0  0  0
    1.6557   -1.2000   -2.0934 H   0  0  0  0  0  0  0  0  0  0  0  0
    4.1072   -1.6565   -2.0936 H   0  0  0  0  0  0  0  0  0  0  0  0
    5.7305    0.2390   -2.1533 H   0  0  0  0  0  0  0  0  0  0  0  0
    4.8840    2.5859   -2.2134 H   0  0  0  0  0  0  0  0  0  0  0  0
    2.4390    3.0268   -2.2151 H   0  0  0  0  0  0  0  0  0  0  0  0
   -2.7896    1.9552    0.8029 H   0  0  0  0  0  0  0  0  0  0  0  0
   -2.7099    0.7686    3.0209 H   0  0  0  0  0  0  0  0  0  0  0  0
   -3.0715   -0.3551    1.0924 H   0  0  0  0  0  0  0  0  0  0  0  0
    1.5091   -1.6430    1.3675 H   0  0  0  0  0  0  0  0  0  0  0  0
  1  2  1  6
  1  3  1  0
  1 11  1  0
  1 20  1  0
  3  4  1  0
  3 23  1  0
  4  5  1  0
  4 24  1  0
  4 25  1  0
  5  6  2  0
  5 10  1  0
  6  7  1  0
  6 26  1  0
  7  8  2  0
  7 27  1  0
  8  9  1  0
  8 28  1  0
  9 10  2  0
  9 29  1  0
 10 30  1  0
 11 12  1  1
 11 13  1  0
 11 14  1  0
 13 31  1  0
 14 15  1  1
 14 16  1  0
 14 17  1  0
 16 32  1  0
 17 18  1  1
 17 19  1  0
 17 20  1  0
 19 33  1  0
 20 21  1  6
 20 22  1  0
 22 34  1  0
M  END

