34
rmsd24.gzmat
C          0.00000        0.00000        0.00000
H          1.11860        0.00000        0.00000
N         -0.45250        0.00000       -1.39770
C          0.29770        0.96870       -2.24310
C         -0.60320        1.44950       -3.34870
C         -1.46240        2.52500       -3.11580
C         -2.33170        2.94810       -4.11770
C         -2.34010        2.30140       -5.35300
C         -1.47680        1.23250       -5.58680
C         -0.60940        0.80270       -4.58420
C         -0.51010        1.21680        0.84790
H          0.26660        1.98300        1.01600
O         -1.55280        1.80870        0.10200
C         -1.07940        0.62030        2.16000
H         -0.33650        0.60040        2.98050
O         -2.11400        1.43990        2.63570
C         -1.57810       -0.78840        1.74470
H         -1.76160       -1.47900        2.59170
O         -2.85910       -0.64650        1.17390
C         -0.57190       -1.27030        0.68990
H         -1.09030       -1.91740       -0.06760
S          0.71970       -2.34530        1.41120
H         -1.45750        0.18150       -1.45550
H          1.18340        0.42410       -2.64640
H          0.68880        1.83400       -1.66270
H         -1.45730        3.02320       -2.14630
H         -3.00630        3.78160       -3.93420
H         -3.02270        2.63010       -6.13360
H         -1.48220        0.72960       -6.55170
H          0.05320       -0.04330       -4.75930
H         -2.07860        2.40010        0.69460
H         -2.99360        1.03810        2.41670
H         -2.80230       -0.09070        0.35820
H          1.27670       -1.49480        2.28090
