rmsd10.gzmat
 OpenBabel08211713433D

 34 35  0  0  1  0  0  0  0  0999 V2000
    0.0000    0.0000    0.0000 C   0  0  1  0  0  0  0  0  0  0  0  0
    1.1217    0.0000    0.0000 H   0  0  0  0  0  0  0  0  0  0  0  0
   -0.4645    0.0000   -1.3956 N   0  0  0  0  0  0  0  0  0  0  0  0
    0.3034    0.9417   -2.2494 C   0  0  0  0  0  0  0  0  0  0  0  0
    1.7375    0.4967   -2.3643 C   0  0  0  0  0  0  0  0  0  0  0  0
    2.0294   -0.8211   -2.7224 C   0  0  0  0  0  0  0  0  0  0  0  0
    3.3534   -1.2348   -2.8372 C   0  0  0  0  0  0  0  0  0  0  0  0
    4.3898   -0.3320   -2.6014 C   0  0  0  0  0  0  0  0  0  0  0  0
    4.0986    0.9827   -2.2431 C   0  0  0  0  0  0  0  0  0  0  0  0
    2.7737    1.3984   -2.1227 C   0  0  0  0  0  0  0  0  0  0  0  0
   -0.4837    1.2221    0.8472 C   0  0  1  0  0  0  0  0  0  0  0  0
    0.2712    2.0234    0.9251 H   0  0  0  0  0  0  0  0  0  0  0  0
   -1.6153    1.7440    0.1785 O   0  0  0  0  0  0  0  0  0  0  0  0
   -0.9116    0.6369    2.2149 C   0  0  1  0  0  0  0  0  0  0  0  0
   -0.0831    0.6151    2.9514 H   0  0  0  0  0  0  0  0  0  0  0  0
   -1.8897    1.4636    2.7880 O   0  0  0  0  0  0  0  0  0  0  0  0
   -1.4531   -0.7723    1.8598 C   0  0  1  0  0  0  0  0  0  0  0  0
   -1.5522   -1.4578    2.7249 H   0  0  0  0  0  0  0  0  0  0  0  0
   -2.7853   -0.6273    1.4177 O   0  0  0  0  0  0  0  0  0  0  0  0
   -0.5703   -1.2634    0.7007 C   0  0  2  0  0  0  0  0  0  0  0  0
   -1.1873   -1.8622   -0.0137 H   0  0  0  0  0  0  0  0  0  0  0  0
    0.7615   -2.3366    1.3600 S   0  0  0  0  0  0  0  0  0  0  0  0
   -1.4619    0.2271   -1.4401 H   0  0  0  0  0  0  0  0  0  0  0  0
    0.2307    1.9914   -1.8846 H   0  0  0  0  0  0  0  0  0  0  0  0
   -0.1677    0.9267   -3.2629 H   0  0  0  0  0  0  0  0  0  0  0  0
    1.2119   -1.5193   -2.9036 H   0  0  0  0  0  0  0  0  0  0  0  0
    3.5793   -2.2622   -3.1143 H   0  0  0  0  0  0  0  0  0  0  0  0
    5.4241   -0.6536   -2.6996 H   0  0  0  0  0  0  0  0  0  0  0  0
    4.9066    1.6874   -2.0587 H   0  0  0  0  0  0  0  0  0  0  0  0
    2.5527    2.4258   -1.8415 H   0  0  0  0  0  0  0  0  0  0  0  0
   -2.0812    2.3763    0.7762 H   0  0  0  0  0  0  0  0  0  0  0  0
   -2.7871    1.0617    2.6712 H   0  0  0  0  0  0  0  0  0  0  0  0
   -2.8059   -0.0624    0.6063 H   0  0  0  0  0  0  0  0  0  0  0  0
    1.3253   -2.7164    0.2043 H   0  0  0  0  0  0  0  0  0  0  0  0
  1  2  1  1  0  0  0
  1 20  1  0  0  0  0
  3  1  1  0  0  0  0
  4 24  1  0  0  0  0
  4  3  1  0  0  0  0
  5  4  1  0  0  0  0
  5 10  2  0  0  0  0
  6  5  1  0  0  0  0
  7  6  2  0  0  0  0
  7  8  1  0  0  0  0
  8  9  2  0  0  0  0
  9 10  1  0  0  0  0
  9 29  1  0  0  0  0
 10 30  1  0  0  0  0
 11  1  1  0  0  0  0
 11 12  1  1  0  0  0
 13 31  1  0  0  0  0
 13 11  1  0  0  0  0
 14 11  1  0  0  0  0
 14 16  1  0  0  0  0
 14 15  1  1  0  0  0
 17 20  1  0  0  0  0
 17 14  1  0  0  0  0
 17 18  1  1  0  0  0
 19 17  1  0  0  0  0
 20 21  1  6  0  0  0
 20 22  1  0  0  0  0
 23  3  1  0  0  0  0
 25  4  1  0  0  0  0
 26  6  1  0  0  0  0
 27  7  1  0  0  0  0
 28  8  1  0  0  0  0
 32 16  1  0  0  0  0
 33 19  1  0  0  0  0
 34 22  1  0  0  0  0
M  END
$$$$
