
     RDKit          3D

 34 35  0  0  0  0  0  0  0  0999 V2000
   -0.1875    0.2038   -0.0973 C   0  0  1  0  0  0  0  0  0  0  0  0
    0.8921    0.3392    0.0666 H   0  0  0  0  0  0  0  0  0  0  0  0
   -0.4282    0.1936   -1.5250 N   0  0  0  0  0  0  0  0  0  0  0  0
    0.4495    1.0568   -2.3029 C   0  0  0  0  0  0  0  0  0  0  0  0
    1.8576    0.4998   -2.3654 C   0  0  0  0  0  0  0  0  0  0  0  0
    2.0599   -0.8564   -2.6677 C   0  0  0  0  0  0  0  0  0  0  0  0
    3.3489   -1.3879   -2.7252 C   0  0  0  0  0  0  0  0  0  0  0  0
    4.4581   -0.5707   -2.4781 C   0  0  0  0  0  0  0  0  0  0  0  0
    4.2669    0.7785   -2.1754 C   0  0  0  0  0  0  0  0  0  0  0  0
    2.9729    1.3076   -2.1175 C   0  0  0  0  0  0  0  0  0  0  0  0
   -0.9050    1.3021    0.7028 C   0  0  1  0  0  0  0  0  0  0  0  0
   -0.4054    2.2837    0.6188 H   0  0  0  0  0  0  0  0  0  0  0  0
   -2.2508    1.3931    0.2328 O   0  0  0  0  0  0  0  0  0  0  0  0
   -0.9126    0.7558    2.1367 C   0  0  1  0  0  0  0  0  0  0  0  0
    0.0992    0.8459    2.5693 H   0  0  0  0  0  0  0  0  0  0  0  0
   -1.8497    1.4140    2.9542 O   0  0  0  0  0  0  0  0  0  0  0  0
   -1.2673   -0.7410    1.9342 C   0  0  1  0  0  0  0  0  0  0  0  0
   -0.9221   -1.3631    2.7724 H   0  0  0  0  0  0  0  0  0  0  0  0
   -2.6813   -0.8784    1.9056 O   0  0  0  0  0  0  0  0  0  0  0  0
   -0.6060   -1.1252    0.5917 C   0  0  2  0  0  0  0  0  0  0  0  0
   -1.3452   -1.6507   -0.0282 H   0  0  0  0  0  0  0  0  0  0  0  0
    0.8179   -2.2519    0.8818 S   0  0  0  0  0  0  0  0  0  0  0  0
   -1.4063    0.4140   -1.7037 H   0  0  0  0  0  0  0  0  0  0  0  0
    0.4935    2.1022   -1.9301 H   0  0  0  0  0  0  0  0  0  0  0  0
    0.0353    1.1121   -3.3241 H   0  0  0  0  0  0  0  0  0  0  0  0
    1.1871   -1.4882   -2.8462 H   0  0  0  0  0  0  0  0  0  0  0  0
    3.4916   -2.4451   -2.9632 H   0  0  0  0  0  0  0  0  0  0  0  0
    5.4673   -0.9875   -2.5185 H   0  0  0  0  0  0  0  0  0  0  0  0
    5.1268    1.4224   -1.9746 H   0  0  0  0  0  0  0  0  0  0  0  0
    2.8271    2.3629   -1.8694 H   0  0  0  0  0  0  0  0  0  0  0  0
   -2.7080    1.9600    0.8746 H   0  0  0  0  0  0  0  0  0  0  0  0
   -2.5786    0.7769    3.0614 H   0  0  0  0  0  0  0  0  0  0  0  0
   -2.9786   -0.3632    1.1351 H   0  0  0  0  0  0  0  0  0  0  0  0
    1.3519   -2.1155   -0.3544 H   0  0  0  0  0  0  0  0  0  0  0  0
  1  2  1  6
  1  3  1  0
  1 11  1  0
  1 20  1  0
  3  4  1  0
  3 23  1  0
  4  5  1  0
  4 24  1  0
  4 25  1  0
  5  6  2  0
  5 10  1  0
  6  7  1  0
  6 26  1  0
  7  8  2  0
  7 27  1  0
  8  9  1  0
  8 28  1  0
  9 10  2  0
  9 29  1  0
 10 30  1  0
 11 12  1  1
 11 13  1  0
 11 14  1  0
 13 31  1  0
 14 15  1  1
 14 16  1  0
 14 17  1  0
 16 32  1  0
 17 18  1  1
 17 19  1  0
 17 20  1  0
 19 33  1  0
 20 21  1  6
 20 22  1  0
 22 34  1  0
M  END

