rmsd7.gzmat
 OpenBabel08211713433D

 34 35  0  0  1  0  0  0  0  0999 V2000
    0.0000    0.0000    0.0000 C   0  0  1  0  0  0  0  0  0  0  0  0
    1.1211    0.0000    0.0000 H   0  0  0  0  0  0  0  0  0  0  0  0
   -0.4459    0.0000   -1.4015 N   0  0  0  0  0  0  0  0  0  0  0  0
    0.2387    1.0357   -2.2168 C   0  0  0  0  0  0  0  0  0  0  0  0
    1.7222    0.7908   -2.2898 C   0  0  0  0  0  0  0  0  0  0  0  0
    2.2177   -0.4981   -2.4962 C   0  0  0  0  0  0  0  0  0  0  0  0
    3.5908   -0.7091   -2.5887 C   0  0  0  0  0  0  0  0  0  0  0  0
    4.4727    0.3656   -2.4805 C   0  0  0  0  0  0  0  0  0  0  0  0
    3.9784    1.6515   -2.2717 C   0  0  0  0  0  0  0  0  0  0  0  0
    2.6049    1.8657   -2.1751 C   0  0  0  0  0  0  0  0  0  0  0  0
   -0.4977    1.2281    0.8346 C   0  0  1  0  0  0  0  0  0  0  0  0
    0.2695    2.0144    0.9453 H   0  0  0  0  0  0  0  0  0  0  0  0
   -1.5874    1.7736    0.1186 O   0  0  0  0  0  0  0  0  0  0  0  0
   -0.9965    0.6516    2.1825 C   0  0  1  0  0  0  0  0  0  0  0  0
   -0.2107    0.6395    2.9629 H   0  0  0  0  0  0  0  0  0  0  0  0
   -2.0034    1.4791    2.7010 O   0  0  0  0  0  0  0  0  0  0  0  0
   -1.5172   -0.7612    1.8097 C   0  0  1  0  0  0  0  0  0  0  0  0
   -1.6567   -1.4412    2.6734 H   0  0  0  0  0  0  0  0  0  0  0  0
   -2.8266   -0.6226    1.3036 O   0  0  0  0  0  0  0  0  0  0  0  0
   -0.5722   -1.2595    0.7046 C   0  0  2  0  0  0  0  0  0  0  0  0
   -1.1429   -1.8880   -0.0289 H   0  0  0  0  0  0  0  0  0  0  0  0
    0.7179   -2.3760    1.3632 S   0  0  0  0  0  0  0  0  0  0  0  0
   -1.4588    0.1369   -1.4555 H   0  0  0  0  0  0  0  0  0  0  0  0
    0.0199    2.0644   -1.8479 H   0  0  0  0  0  0  0  0  0  0  0  0
   -0.1887    0.9714   -3.2482 H   0  0  0  0  0  0  0  0  0  0  0  0
    1.5213   -1.3358   -2.5736 H   0  0  0  0  0  0  0  0  0  0  0  0
    3.9753   -1.7144   -2.7465 H   0  0  0  0  0  0  0  0  0  0  0  0
    5.5446    0.2019   -2.5610 H   0  0  0  0  0  0  0  0  0  0  0  0
    4.6648    2.4907   -2.1841 H   0  0  0  0  0  0  0  0  0  0  0  0
    2.2262    2.8725   -2.0136 H   0  0  0  0  0  0  0  0  0  0  0  0
   -2.0661    2.4146    0.6975 H   0  0  0  0  0  0  0  0  0  0  0  0
   -2.8939    1.0799    2.5288 H   0  0  0  0  0  0  0  0  0  0  0  0
   -2.8097   -0.0677    0.4860 H   0  0  0  0  0  0  0  0  0  0  0  0
    1.4965   -1.4927    1.9985 H   0  0  0  0  0  0  0  0  0  0  0  0
  1  2  1  1  0  0  0
  1 20  1  0  0  0  0
  3  1  1  0  0  0  0
  4 24  1  0  0  0  0
  4  3  1  0  0  0  0
  5  4  1  0  0  0  0
  5 10  2  0  0  0  0
  6  5  1  0  0  0  0
  7  6  2  0  0  0  0
  7  8  1  0  0  0  0
  8  9  2  0  0  0  0
  9 29  1  0  0  0  0
  9 10  1  0  0  0  0
 10 30  1  0  0  0  0
 11  1  1  0  0  0  0
 11 12  1  1  0  0  0
 13 31  1  0  0  0  0
 13 11  1  0  0  0  0
 14 11  1  0  0  0  0
 14 16  1  0  0  0  0
 14 15  1  1  0  0  0
 17 20  1  0  0  0  0
 17 14  1  0  0  0  0
 17 18  1  1  0  0  0
 19 17  1  0  0  0  0
 20 21  1  6  0  0  0
 20 22  1  0  0  0  0
 22 34  1  0  0  0  0
 23  3  1  0  0  0  0
 25  4  1  0  0  0  0
 26  6  1  0  0  0  0
 27  7  1  0  0  0  0
 28  8  1  0  0  0  0
 32 16  1  0  0  0  0
 33 19  1  0  0  0  0
M  END
$$$$
