rmsd6.gzmat
 OpenBabel08211713433D

 34 35  0  0  1  0  0  0  0  0999 V2000
    0.0000    0.0000    0.0000 C   0  0  1  0  0  0  0  0  0  0  0  0
    1.1187    0.0000    0.0000 H   0  0  0  0  0  0  0  0  0  0  0  0
   -0.4724    0.0000   -1.3915 N   0  0  0  0  0  0  0  0  0  0  0  0
    0.3568    0.8304   -2.2914 C   0  0  0  0  0  0  0  0  0  0  0  0
    0.2352    2.3087   -2.0253 C   0  0  0  0  0  0  0  0  0  0  0  0
    1.2913    3.0151   -1.4497 C   0  0  0  0  0  0  0  0  0  0  0  0
    1.1402    4.3670   -1.1457 C   0  0  0  0  0  0  0  0  0  0  0  0
   -0.0633    5.0144   -1.4179 C   0  0  0  0  0  0  0  0  0  0  0  0
   -1.1119    4.3137   -2.0123 C   0  0  0  0  0  0  0  0  0  0  0  0
   -0.9617    2.9643   -2.3211 C   0  0  0  0  0  0  0  0  0  0  0  0
   -0.4913    1.2189    0.8506 C   0  0  1  0  0  0  0  0  0  0  0  0
    0.2034    2.0747    0.8357 H   0  0  0  0  0  0  0  0  0  0  0  0
   -1.7308    1.6114    0.2853 O   0  0  0  0  0  0  0  0  0  0  0  0
   -0.7719    0.6384    2.2572 C   0  0  1  0  0  0  0  0  0  0  0  0
    0.1288    0.5981    2.8979 H   0  0  0  0  0  0  0  0  0  0  0  0
   -1.6620    1.4667    2.9486 O   0  0  0  0  0  0  0  0  0  0  0  0
   -1.3763   -0.7553    1.9289 C   0  0  1  0  0  0  0  0  0  0  0  0
   -1.4446   -1.4477    2.7891 H   0  0  0  0  0  0  0  0  0  0  0  0
   -2.7226   -0.5627    1.5622 O   0  0  0  0  0  0  0  0  0  0  0  0
   -0.5701   -1.2581    0.7168 C   0  0  2  0  0  0  0  0  0  0  0  0
   -1.2476   -1.8216    0.0221 H   0  0  0  0  0  0  0  0  0  0  0  0
    0.7258   -2.4619    1.1814 S   0  0  0  0  0  0  0  0  0  0  0  0
   -1.4523    0.2905   -1.4374 H   0  0  0  0  0  0  0  0  0  0  0  0
    0.0324    0.5936   -3.3343 H   0  0  0  0  0  0  0  0  0  0  0  0
    1.4128    0.4850   -2.2263 H   0  0  0  0  0  0  0  0  0  0  0  0
    2.2335    2.5154   -1.2370 H   0  0  0  0  0  0  0  0  0  0  0  0
    1.9634    4.9176   -0.6946 H   0  0  0  0  0  0  0  0  0  0  0  0
   -0.1838    6.0671   -1.1710 H   0  0  0  0  0  0  0  0  0  0  0  0
   -2.0483    4.8216   -2.2370 H   0  0  0  0  0  0  0  0  0  0  0  0
   -1.7811    2.4186   -2.7860 H   0  0  0  0  0  0  0  0  0  0  0  0
   -2.0368    2.4448    0.7105 H   0  0  0  0  0  0  0  0  0  0  0  0
   -2.5924    1.1571    2.8075 H   0  0  0  0  0  0  0  0  0  0  0  0
   -2.7668    0.0775    0.8063 H   0  0  0  0  0  0  0  0  0  0  0  0
    1.3677   -1.7663    2.1266 H   0  0  0  0  0  0  0  0  0  0  0  0
  1  2  1  1  0  0  0
  1 20  1  0  0  0  0
  3  1  1  0  0  0  0
  4 25  1  0  0  0  0
  4  5  1  0  0  0  0
  4  3  1  0  0  0  0
  5  6  1  0  0  0  0
  6 26  1  0  0  0  0
  6  7  2  0  0  0  0
  7 27  1  0  0  0  0
  8 28  1  0  0  0  0
  8  7  1  0  0  0  0
  9  8  2  0  0  0  0
 10  5  2  0  0  0  0
 10  9  1  0  0  0  0
 11  1  1  0  0  0  0
 11 12  1  1  0  0  0
 13 31  1  0  0  0  0
 13 11  1  0  0  0  0
 14 11  1  0  0  0  0
 14 15  1  1  0  0  0
 14 16  1  0  0  0  0
 17 20  1  0  0  0  0
 17 14  1  0  0  0  0
 17 18  1  1  0  0  0
 19 17  1  0  0  0  0
 20 21  1  6  0  0  0
 20 22  1  0  0  0  0
 22 34  1  0  0  0  0
 23  3  1  0  0  0  0
 24  4  1  0  0  0  0
 29  9  1  0  0  0  0
 30 10  1  0  0  0  0
 32 16  1  0  0  0  0
 33 19  1  0  0  0  0
M  END
$$$$
