rmsd22.gzmat
 OpenBabel08211713433D

 34 35  0  0  1  0  0  0  0  0999 V2000
    0.0000    0.0000    0.0000 C   0  0  1  0  0  0  0  0  0  0  0  0
    1.1190    0.0000    0.0000 H   0  0  0  0  0  0  0  0  0  0  0  0
   -0.4627    0.0000   -1.3917 N   0  0  0  0  0  0  0  0  0  0  0  0
    0.3319    0.9166   -2.2488 C   0  0  0  0  0  0  0  0  0  0  0  0
   -0.2968    0.9717   -3.6147 C   0  0  0  0  0  0  0  0  0  0  0  0
   -0.5719    2.2026   -4.2104 C   0  0  0  0  0  0  0  0  0  0  0  0
   -1.1556    2.2447   -5.4751 C   0  0  0  0  0  0  0  0  0  0  0  0
   -1.4660    1.0608   -6.1418 C   0  0  0  0  0  0  0  0  0  0  0  0
   -1.1848   -0.1689   -5.5479 C   0  0  0  0  0  0  0  0  0  0  0  0
   -0.5980   -0.2149   -4.2861 C   0  0  0  0  0  0  0  0  0  0  0  0
   -0.4960    1.2193    0.8490 C   0  0  1  0  0  0  0  0  0  0  0  0
    0.2063    2.0682    0.8595 H   0  0  0  0  0  0  0  0  0  0  0  0
   -1.7097    1.6353    0.2514 O   0  0  0  0  0  0  0  0  0  0  0  0
   -0.8142    0.6362    2.2469 C   0  0  1  0  0  0  0  0  0  0  0  0
    0.0651    0.6042    2.9167 H   0  0  0  0  0  0  0  0  0  0  0  0
   -1.7377    1.4622    2.9012 O   0  0  0  0  0  0  0  0  0  0  0  0
   -1.3993   -0.7612    1.9058 C   0  0  1  0  0  0  0  0  0  0  0  0
   -1.4766   -1.4520    2.7667 H   0  0  0  0  0  0  0  0  0  0  0  0
   -2.7409   -0.5739    1.5173 O   0  0  0  0  0  0  0  0  0  0  0  0
   -0.5715   -1.2605    0.7090 C   0  0  2  0  0  0  0  0  0  0  0  0
   -1.2360   -1.8289    0.0040 H   0  0  0  0  0  0  0  0  0  0  0  0
    0.7137   -2.4641    1.1998 S   0  0  0  0  0  0  0  0  0  0  0  0
   -1.4585    0.2270   -1.4528 H   0  0  0  0  0  0  0  0  0  0  0  0
    1.3646    0.5001   -2.3316 H   0  0  0  0  0  0  0  0  0  0  0  0
    0.4253    1.9343   -1.8092 H   0  0  0  0  0  0  0  0  0  0  0  0
   -0.3366    3.1294   -3.6922 H   0  0  0  0  0  0  0  0  0  0  0  0
   -1.3723    3.2040   -5.9404 H   0  0  0  0  0  0  0  0  0  0  0  0
   -1.9290    1.0971   -7.1250 H   0  0  0  0  0  0  0  0  0  0  0  0
   -1.4244   -1.0936   -6.0685 H   0  0  0  0  0  0  0  0  0  0  0  0
   -0.3786   -1.1722   -3.8103 H   0  0  0  0  0  0  0  0  0  0  0  0
   -2.1161    2.3465    0.8014 H   0  0  0  0  0  0  0  0  0  0  0  0
   -2.6521    1.0898    2.8084 H   0  0  0  0  0  0  0  0  0  0  0  0
   -2.7764    0.0259    0.7290 H   0  0  0  0  0  0  0  0  0  0  0  0
    1.4806   -1.6899    1.9748 H   0  0  0  0  0  0  0  0  0  0  0  0
  1  2  1  1  0  0  0
  1 20  1  0  0  0  0
  3  1  1  0  0  0  0
  4 25  1  0  0  0  0
  4  3  1  0  0  0  0
  5  4  1  0  0  0  0
  6 26  1  0  0  0  0
  6  5  1  0  0  0  0
  7  6  2  0  0  0  0
  8  9  2  0  0  0  0
  8  7  1  0  0  0  0
  9 10  1  0  0  0  0
 10 30  1  0  0  0  0
 10  5  2  0  0  0  0
 11  1  1  0  0  0  0
 11 12  1  1  0  0  0
 13 31  1  0  0  0  0
 13 11  1  0  0  0  0
 14 11  1  0  0  0  0
 14 16  1  0  0  0  0
 14 15  1  1  0  0  0
 17 20  1  0  0  0  0
 17 14  1  0  0  0  0
 17 18  1  1  0  0  0
 19 17  1  0  0  0  0
 20 21  1  6  0  0  0
 20 22  1  0  0  0  0
 22 34  1  0  0  0  0
 23  3  1  0  0  0  0
 24  4  1  0  0  0  0
 27  7  1  0  0  0  0
 28  8  1  0  0  0  0
 29  9  1  0  0  0  0
 32 16  1  0  0  0  0
 33 19  1  0  0  0  0
M  END
$$$$
