rmsd9.gzmat
 OpenBabel08211713433D

 34 35  0  0  1  0  0  0  0  0999 V2000
    0.0000    0.0000    0.0000 C   0  0  1  0  0  0  0  0  0  0  0  0
    1.1213    0.0000    0.0000 H   0  0  0  0  0  0  0  0  0  0  0  0
   -0.4564    0.0000   -1.3963 N   0  0  0  0  0  0  0  0  0  0  0  0
    0.2084    1.0390   -2.2239 C   0  0  0  0  0  0  0  0  0  0  0  0
    1.7057    0.8918   -2.1873 C   0  0  0  0  0  0  0  0  0  0  0  0
    2.2888   -0.3655   -2.3618 C   0  0  0  0  0  0  0  0  0  0  0  0
    3.6731   -0.5026   -2.3201 C   0  0  0  0  0  0  0  0  0  0  0  0
    4.4795    0.6160   -2.1117 C   0  0  0  0  0  0  0  0  0  0  0  0
    3.8982    1.8711   -1.9438 C   0  0  0  0  0  0  0  0  0  0  0  0
    2.5119    2.0111   -1.9791 C   0  0  0  0  0  0  0  0  0  0  0  0
   -0.4859    1.2272    0.8406 C   0  0  1  0  0  0  0  0  0  0  0  0
    0.2311    2.0641    0.8536 H   0  0  0  0  0  0  0  0  0  0  0  0
   -1.6838    1.6661    0.2238 O   0  0  0  0  0  0  0  0  0  0  0  0
   -0.8296    0.6516    2.2358 C   0  0  1  0  0  0  0  0  0  0  0  0
    0.0385    0.6112    2.9199 H   0  0  0  0  0  0  0  0  0  0  0  0
   -1.7548    1.4911    2.8718 O   0  0  0  0  0  0  0  0  0  0  0  0
   -1.4248   -0.7394    1.8870 C   0  0  1  0  0  0  0  0  0  0  0  0
   -1.5377   -1.4277    2.7459 H   0  0  0  0  0  0  0  0  0  0  0  0
   -2.7525   -0.5312    1.4599 O   0  0  0  0  0  0  0  0  0  0  0  0
   -0.5730   -1.2549    0.7132 C   0  0  2  0  0  0  0  0  0  0  0  0
   -1.2192   -1.8406    0.0073 H   0  0  0  0  0  0  0  0  0  0  0  0
    0.7067   -2.4431    1.2554 S   0  0  0  0  0  0  0  0  0  0  0  0
   -1.4720    0.1215   -1.4427 H   0  0  0  0  0  0  0  0  0  0  0  0
   -0.1026    2.0675   -1.9296 H   0  0  0  0  0  0  0  0  0  0  0  0
   -0.1500    0.8861   -3.2726 H   0  0  0  0  0  0  0  0  0  0  0  0
    1.6489   -1.2372   -2.5153 H   0  0  0  0  0  0  0  0  0  0  0  0
    4.1254   -1.4834   -2.4511 H   0  0  0  0  0  0  0  0  0  0  0  0
    5.5612    0.5086   -2.0819 H   0  0  0  0  0  0  0  0  0  0  0  0
    4.5268    2.7443   -1.7841 H   0  0  0  0  0  0  0  0  0  0  0  0
    2.0648    2.9937   -1.8451 H   0  0  0  0  0  0  0  0  0  0  0  0
   -2.1079    2.3517    0.7935 H   0  0  0  0  0  0  0  0  0  0  0  0
   -2.6691    1.1197    2.7825 H   0  0  0  0  0  0  0  0  0  0  0  0
   -2.7577    0.0758    0.6777 H   0  0  0  0  0  0  0  0  0  0  0  0
    1.5799   -1.6113    1.8347 H   0  0  0  0  0  0  0  0  0  0  0  0
  1  2  1  1  0  0  0
  1 20  1  0  0  0  0
  3  1  1  0  0  0  0
  4  5  1  0  0  0  0
  4 24  1  0  0  0  0
  4  3  1  0  0  0  0
  5 10  2  0  0  0  0
  6  7  2  0  0  0  0
  6  5  1  0  0  0  0
  7  8  1  0  0  0  0
  8 28  1  0  0  0  0
  8  9  2  0  0  0  0
  9 29  1  0  0  0  0
 10  9  1  0  0  0  0
 10 30  1  0  0  0  0
 11  1  1  0  0  0  0
 11 12  1  1  0  0  0
 13 31  1  0  0  0  0
 13 11  1  0  0  0  0
 14 11  1  0  0  0  0
 14 16  1  0  0  0  0
 14 15  1  1  0  0  0
 17 20  1  0  0  0  0
 17 14  1  0  0  0  0
 17 18  1  1  0  0  0
 19 17  1  0  0  0  0
 20 21  1  6  0  0  0
 20 22  1  0  0  0  0
 22 34  1  0  0  0  0
 23  3  1  0  0  0  0
 25  4  1  0  0  0  0
 26  6  1  0  0  0  0
 27  7  1  0  0  0  0
 32 16  1  0  0  0  0
 33 19  1  0  0  0  0
M  END
$$$$
