40
rmsd200.gzmat
O          0.00000        0.00000        0.00000
C          1.40900        0.00000        0.00000
C          1.94750        0.00000        1.44960
H          1.52630       -0.90300        1.97220
N          1.43270        1.18190        2.16890
C          1.96270        2.45220        1.63780
C          3.43180        2.44290        1.31710
C          4.08110        3.65930        1.10510
C          5.43830        3.68460        0.79630
C          6.14540        2.49040        0.65990
C          5.49720        1.27590        0.86120
C          4.14070        1.24340        1.19970
C          3.48910       -0.07710        1.45470
S          6.26120        5.21800        0.59930
O          7.47100        5.03360       -0.16360
O          5.28820        6.22730        0.28020
N          6.88100        5.52760        2.20650
C          6.12020        5.76100        3.35360
C          6.73630        5.56110        4.60880
C          6.00220        5.71540        5.77640
C          4.66270        6.07130        5.68170
C          4.04160        6.31090        4.46330
C          4.77470        6.16730        3.29140
Cl         3.74960        6.23170        7.11900
H         -0.32920        0.61190        0.69920
H          1.76170        0.87070       -0.57890
H          1.67280       -0.93060       -0.53430
H          1.63130        1.10180        3.16790
H          1.71940        3.26070        2.36730
H          1.38500        2.69910        0.71090
H          3.50330        4.58890        1.18020
H          7.20760        2.49000        0.38850
H          6.05140        0.34490        0.75600
H          3.82760       -0.83400        0.71720
H          3.83560       -0.46370        2.43890
H          7.89200        5.51550        2.32350
H          7.78390        5.27820        4.66310
H          6.47300        5.55580        6.74750
H          2.99580        6.61790        4.41820
H          4.30290        6.41910        2.33890
