40
rmsd183.gzmat
O          0.00000        0.00000        0.00000
C          1.41050        0.00000        0.00000
C          1.91180        0.00000        1.46410
H          1.40330        0.83670        2.01310
N          3.35890        0.28250        1.48730
C          4.14770       -0.77870        0.83180
C          3.71300       -2.18420        1.14760
C          4.54690       -3.24110        0.78490
C          4.14730       -4.55680        1.00540
C          2.92910       -4.82140        1.63050
C          2.10040       -3.76830        2.00350
C          2.47810       -2.44540        1.75170
C          1.55510       -1.33960        2.14490
S          5.15980       -5.87680        0.46560
O          6.50910       -5.39990        0.32330
O          4.83430       -7.08190        1.18790
N          4.51930       -6.22000       -1.12840
C          4.61030       -5.40480       -2.25720
C          3.77420       -5.70490       -3.35630
C          3.77970       -4.88900       -4.47900
C          4.61890       -3.78150       -4.49680
C          5.47210       -3.47900       -3.44440
C          5.47960       -4.29980       -2.32260
Cl         4.60910       -2.76170       -5.87090
H         -0.34900        0.87330        0.26430
H          1.80070        0.86450       -0.56380
H          1.66220       -0.93680       -0.53000
H          3.67580        0.42140        2.44820
H          5.22100       -0.62560        1.09330
H          4.08060       -0.61220       -0.27380
H          5.51780       -3.01720        0.32640
H          2.61200       -5.85020        1.83810
H          1.14630       -3.97550        2.48570
H          0.50140       -1.59790        1.88800
H          1.56540       -1.22060        3.24810
H          4.07110       -7.12560       -1.25660
H          3.11870       -6.57100       -3.32150
H          3.13160       -5.11590       -5.32700
H          6.13980       -2.61780       -3.49350
H          6.19920       -4.09630       -1.52750
