40
rmsd221.gzmat
O          0.00000        0.00000        0.00000
C          1.41050        0.00000        0.00000
C          1.91570        0.00000        1.46290
H          1.41970        0.84710        2.00820
N          3.36630        0.26550        1.47900
C          4.14120       -0.81530        0.83950
C          3.70750       -2.20860        1.20580
C          4.54820       -3.27770        0.89940
C          4.14930       -4.58340        1.17350
C          2.92140       -4.82440        1.78900
C          2.08630       -3.75840        2.10650
C          2.46690       -2.44620        1.80780
C          1.54100       -1.32830        2.15660
S          5.17110       -5.92530        0.70800
O          6.54410       -5.49770        0.71730
O          4.72880       -7.13150        1.36350
N          4.68690       -6.19650       -0.95240
C          4.88070       -5.31030       -2.01470
C          3.99510       -5.38330       -3.11200
C          4.12090       -4.49080       -4.16800
C          5.13030       -3.53770       -4.12010
C          6.03330       -3.46180       -3.06820
C          5.91540       -4.35690       -2.01160
Cl         5.27300       -2.42440       -5.41170
H         -0.34960        0.86390        0.29410
H          1.79830        0.86600       -0.56390
H          1.66160       -0.93610       -0.53180
H          3.68700        0.41570        2.43670
H          5.21930       -0.65680        1.07750
H          4.05640       -0.68170       -0.26920
H          5.52290       -3.07130        0.44100
H          2.60170       -5.84490        2.03260
H          1.12590       -3.94670        2.58400
H          0.49240       -1.58820        1.88100
H          1.52720       -1.19030        3.25790
H          4.15730       -7.04150       -1.15260
H          3.20720       -6.13160       -3.12840
H          3.43330       -4.53840       -5.01340
H          6.83350       -2.72030       -3.06830
H          6.66160       -4.33520       -1.21260
