40
rmsd187.gzmat
O          0.00000        0.00000        0.00000
C          1.40840        0.00000        0.00000
C          1.96030        0.00000        1.45060
H          3.07980       -0.02210        1.40440
N          1.48010       -1.25090        2.08980
C          0.49410       -1.03780        3.17200
C          0.96900       -0.02110        4.16930
C          0.89900       -0.21170        5.54320
C          1.37780        0.78250        6.39870
C          1.93800        1.94820        5.87910
C          2.00810        2.13830        4.49930
C          1.51730        1.15700        3.64120
C          1.52560        1.30590        2.15950
S          1.28930        0.54540        8.13070
O          1.23860       -0.86850        8.41280
O          2.22070        1.43460        8.77110
N         -0.34040        1.05380        8.52910
C         -0.75660        2.32690        8.93340
C          0.07620        3.45840        8.87250
C         -0.42480        4.70570        9.22830
C         -1.74420        4.81100        9.64800
C         -2.58670        3.70980        9.73250
C         -2.09200        2.46330        9.37470
Cl        -2.35200        6.34830       10.08800
H         -0.31990       -0.80210        0.47170
H          1.67120        0.92770       -0.53800
H          1.77020       -0.88070       -0.56020
H          2.26960       -1.79200        2.44530
H          0.27430       -2.02330        3.64000
H         -0.46300       -0.69300        2.70800
H          0.47890       -1.14390        5.93800
H          2.33700        2.72700        6.54110
H          2.44270        3.05110        4.09750
H          0.49480        1.57690        1.81670
H          2.16770        2.14180        1.82360
H         -0.98230        0.29260        8.76110
H          1.12480        3.38180        8.58160
H          0.22050        5.58450        9.18410
H         -3.61780        3.81590       10.07300
H         -2.73900        1.59200        9.43530
