40
rmsd19.gzmat
O          0.00000        0.00000        0.00000
C          1.41050        0.00000        0.00000
C          1.91640        0.00000        1.46270
H          1.39690        0.82760        2.01610
N          3.35860        0.30730        1.48110
C          4.16340       -0.74290        0.82720
C          3.77210       -2.15240        1.17900
C          4.64360       -3.19340        0.85940
C          4.29990       -4.51030        1.15430
C          3.08670       -4.79080        1.78250
C          2.21170       -3.75540        2.09340
C          2.54400       -2.43130        1.78930
C          1.58060       -1.34650        2.14160
S          5.40130       -5.80330        0.73270
O          6.63270       -5.23650        0.23730
O          5.37100       -6.80710        1.76110
N          4.68850       -6.47360       -0.72030
C          3.66510       -7.42130       -0.80330
C          3.08020       -8.01530        0.32960
C          2.01200       -8.89250        0.17820
C          1.55060       -9.18280       -1.09840
C          2.12820       -8.63700       -2.23850
C          3.18950       -7.75460       -2.09240
Cl         0.23270      -10.25930       -1.27530
H         -0.34940        0.86250        0.29990
H          1.79770        0.86640       -0.56420
H          1.66080       -0.93610       -0.53180
H          3.67630        0.45320        2.44090
H          5.23680       -0.55590        1.06760
H          4.07410       -0.59700       -0.27890
H          5.60210       -2.95790        0.37850
H          2.80390       -5.81750        2.04140
H          1.25910       -3.97810        2.57230
H          0.54240       -1.63800        1.85590
H          1.55260       -1.21910        3.24410
H          5.18880       -6.28200       -1.58900
H          3.47160       -7.84120        1.33450
H          1.55500       -9.35000        1.05730
H          1.75860       -8.89290       -3.23260
H          3.64990       -7.31600       -2.97400
