40

O          0.16380       -1.55270       -0.79720
C          1.43580       -0.94180       -0.71390
C          1.79490       -0.47510        0.70410
H          1.11310        0.35290        0.96790
N          3.15330        0.06360        0.70200
C          4.18110       -0.93130        0.42090
C          3.92260       -2.32500        0.97280
C          4.87310       -3.33100        0.76380
C          4.61360       -4.63230        1.18430
C          3.42660       -4.96140        1.84670
C          2.48420       -3.95890        2.04910
C          2.70340       -2.64640        1.59640
C          1.62840       -1.59550        1.74260
S          5.64760       -5.95140        0.57090
O          6.92990       -5.38200        0.16530
O          5.54230       -7.12310        1.43770
N          4.81190       -6.40370       -0.86680
C          4.35270       -5.34410       -1.69020
C          2.99170       -5.00970       -1.74480
C          2.55980       -3.89750       -2.46600
C          3.50630       -3.10510       -3.12140
C          4.86470       -3.43210       -3.08770
C          5.28530       -4.55760       -2.38090
Cl         2.99000       -1.66400       -3.96790
H         -0.51180       -0.87080       -0.68920
H          1.54290       -0.08770       -1.40620
H          2.15020       -1.70670       -1.04350
H          3.33990        0.51300        1.59540
H          5.14330       -0.55620        0.80440
H          4.32120       -1.02490       -0.67240
H          5.80650       -3.11560        0.24090
H          3.24920       -5.98820        2.17170
H          1.53950       -4.19660        2.54530
H          0.63690       -2.06230        1.64260
H          1.67450       -1.15320        2.75450
H          4.09000       -7.07230       -0.60210
H          2.26620       -5.60300       -1.18360
H          1.50480       -3.61970       -2.48230
H          5.58550       -2.80510       -3.61420
H          6.34150       -4.82150       -2.32560
