rmsd234.gzmat
 OpenBabel08211713433D

 40 42  0  0  1  0  0  0  0  0999 V2000
    0.0000    0.0000    0.0000 O   0  0  0  0  0  0  0  0  0  0  0  0
    1.4106    0.0000    0.0000 C   0  0  0  0  0  0  0  0  0  0  0  0
    1.9116    0.0000    1.4642 C   0  0  2  0  0  0  0  0  0  0  0  0
    1.3682    0.8097    2.0212 H   0  0  0  0  0  0  0  0  0  0  0  0
    3.3449    0.3452    1.4909 N   0  0  0  0  0  0  0  0  0  0  0  0
    4.1794   -0.6824    0.8398 C   0  0  0  0  0  0  0  0  0  0  0  0
    3.8340   -2.0999    1.2063 C   0  0  0  0  0  0  0  0  0  0  0  0
    4.7471   -3.1124    0.9154 C   0  0  0  0  0  0  0  0  0  0  0  0
    4.4329   -4.4406    1.1921 C   0  0  0  0  0  0  0  0  0  0  0  0
    3.2148   -4.7591    1.7913 C   0  0  0  0  0  0  0  0  0  0  0  0
    2.3067   -3.7492    2.0928 C   0  0  0  0  0  0  0  0  0  0  0  0
    2.6041   -2.4155    1.7950 C   0  0  0  0  0  0  0  0  0  0  0  0
    1.6042   -1.3594    2.1322 C   0  0  0  0  0  0  0  0  0  0  0  0
    5.5587   -5.7093    0.7646 S   0  0  0  0  0  0  0  0  0  0  0  0
    6.8899   -5.1656    0.7487 O   0  0  0  0  0  0  0  0  0  0  0  0
    5.2240   -6.9244    1.4661 O   0  0  0  0  0  0  0  0  0  0  0  0
    5.0947   -6.0936   -0.8798 N   0  0  0  0  0  0  0  0  0  0  0  0
    5.2727   -5.2893   -2.0065 C   0  0  0  0  0  0  0  0  0  0  0  0
    4.5295   -5.6072   -3.1656 C   0  0  0  0  0  0  0  0  0  0  0  0
    4.6227   -4.8058   -4.2946 C   0  0  0  0  0  0  0  0  0  0  0  0
    5.4569   -3.6949   -4.2587 C   0  0  0  0  0  0  0  0  0  0  0  0
    6.2196   -3.3743   -3.1439 C   0  0  0  0  0  0  0  0  0  0  0  0
    6.1392   -4.1806   -2.0143 C   0  0  0  0  0  0  0  0  0  0  0  0
    5.5573   -2.6946   -5.6435 Cl  0  0  0  0  0  0  0  0  0  0  0  0
   -0.3489    0.8628    0.2996 H   0  0  0  0  0  0  0  0  0  0  0  0
    1.7980    0.8669   -0.5626 H   0  0  0  0  0  0  0  0  0  0  0  0
    1.6621   -0.9343   -0.5344 H   0  0  0  0  0  0  0  0  0  0  0  0
    3.6542    0.5004    2.4515 H   0  0  0  0  0  0  0  0  0  0  0  0
    5.2476   -0.4581    1.0687 H   0  0  0  0  0  0  0  0  0  0  0  0
    4.0760   -0.5512   -0.2673 H   0  0  0  0  0  0  0  0  0  0  0  0
    5.7122   -2.8434    0.4699 H   0  0  0  0  0  0  0  0  0  0  0  0
    2.9597   -5.7971    2.0360 H   0  0  0  0  0  0  0  0  0  0  0  0
    1.3544   -4.0000    2.5578 H   0  0  0  0  0  0  0  0  0  0  0  0
    0.5801   -1.6796    1.8277 H   0  0  0  0  0  0  0  0  0  0  0  0
    1.5529   -1.2379    3.2344 H   0  0  0  0  0  0  0  0  0  0  0  0
    4.6814   -7.0111   -1.0373 H   0  0  0  0  0  0  0  0  0  0  0  0
    3.8776   -6.4769   -3.1734 H   0  0  0  0  0  0  0  0  0  0  0  0
    4.0460   -5.0465   -5.1890 H   0  0  0  0  0  0  0  0  0  0  0  0
    6.8837   -2.5087   -3.1488 H   0  0  0  0  0  0  0  0  0  0  0  0
    6.7920   -3.9638   -1.1659 H   0  0  0  0  0  0  0  0  0  0  0  0
  1  2  1  0  0  0  0
  1 25  1  0  0  0  0
  2  3  1  0  0  0  0
  3  5  1  0  0  0  0
  3  4  1  1  0  0  0
  3 13  1  0  0  0  0
  5 28  1  0  0  0  0
  6 29  1  0  0  0  0
  6  7  1  0  0  0  0
  6  5  1  0  0  0  0
  7 12  2  0  0  0  0
  8  9  2  0  0  0  0
  8  7  1  0  0  0  0
  9 10  1  0  0  0  0
 10 32  1  0  0  0  0
 10 11  2  0  0  0  0
 11 33  1  0  0  0  0
 12 11  1  0  0  0  0
 12 13  1  0  0  0  0
 13 35  1  0  0  0  0
 14  9  1  0  0  0  0
 14 16  2  0  0  0  0
 15 14  2  0  0  0  0
 17 14  1  0  0  0  0
 18 17  1  0  0  0  0
 19 18  2  0  0  0  0
 20 21  2  0  0  0  0
 20 19  1  0  0  0  0
 21 22  1  0  0  0  0
 22 23  2  0  0  0  0
 23 18  1  0  0  0  0
 23 40  1  0  0  0  0
 24 21  1  0  0  0  0
 26  2  1  0  0  0  0
 27  2  1  0  0  0  0
 30  6  1  0  0  0  0
 31  8  1  0  0  0  0
 34 13  1  0  0  0  0
 36 17  1  0  0  0  0
 37 19  1  0  0  0  0
 38 20  1  0  0  0  0
 39 22  1  0  0  0  0
M  END
$$$$
