40
rmsd201.gzmat
O          0.00000        0.00000        0.00000
C          1.40920        0.00000        0.00000
C          1.94660        0.00000        1.45040
H          1.51470       -0.89480        1.97720
N          1.44720        1.19340        2.16170
C          1.98600        2.45600        1.61990
C          3.43740        2.42040        1.22680
C          4.07340        3.62050        0.90660
C          5.41070        3.62380        0.52010
C          6.12030        2.42510        0.45210
C          5.48480        1.22620        0.75900
C          4.13970        1.21420        1.14010
C          3.48710       -0.09180        1.45800
S          6.20360        5.12400        0.08470
O          7.52560        4.82880       -0.41200
O          5.27330        5.95510       -0.62900
N          6.54090        5.86970        1.63370
C          5.74210        6.78620        2.32580
C          6.27740        7.34760        3.50740
C          5.51470        8.21350        4.27790
C          4.22380        8.51630        3.86290
C          3.67610        7.99010        2.70130
C          4.43800        7.12520        1.92320
Cl         3.28430        9.58640        4.81010
H         -0.32770        0.61490        0.69770
H          1.76230        0.87210       -0.57680
H          1.67470       -0.92930       -0.53590
H          1.64610        1.11790        3.16040
H          1.80030        3.26240        2.36850
H          1.36850        2.72670        0.72530
H          3.49840        4.55190        0.95690
H          7.17500        2.40870        0.14940
H          6.03930        0.29130        0.69670
H          3.81750       -0.88140        0.75130
H          3.83430       -0.43980        2.45530
H          7.51980        5.83800        1.92500
H          7.28830        7.09910        3.82000
H          5.92710        8.64750        5.18980
H          2.66390        8.25300        2.38940
H          4.01350        6.76030        0.98590
