rmsd22.gzmat
 OpenBabel08211713433D

 40 42  0  0  1  0  0  0  0  0999 V2000
    0.0000    0.0000    0.0000 O   0  0  0  0  0  0  0  0  0  0  0  0
    1.4107    0.0000    0.0000 C   0  0  0  0  0  0  0  0  0  0  0  0
    1.9108    0.0000    1.4649 C   0  0  2  0  0  0  0  0  0  0  0  0
    1.3549    0.7971    2.0277 H   0  0  0  0  0  0  0  0  0  0  0  0
    3.3387    0.3664    1.4957 N   0  0  0  0  0  0  0  0  0  0  0  0
    4.1878   -0.6399    0.8298 C   0  0  0  0  0  0  0  0  0  0  0  0
    3.8537   -2.0691    1.1607 C   0  0  0  0  0  0  0  0  0  0  0  0
    4.7671   -3.0677    0.8257 C   0  0  0  0  0  0  0  0  0  0  0  0
    4.4662   -4.4048    1.0742 C   0  0  0  0  0  0  0  0  0  0  0  0
    3.2640   -4.7465    1.6928 C   0  0  0  0  0  0  0  0  0  0  0  0
    2.3533   -3.7511    2.0317 C   0  0  0  0  0  0  0  0  0  0  0  0
    2.6346   -2.4086    1.7577 C   0  0  0  0  0  0  0  0  0  0  0  0
    1.6278   -1.3685    2.1236 C   0  0  0  0  0  0  0  0  0  0  0  0
    5.5884   -5.6499    0.5729 S   0  0  0  0  0  0  0  0  0  0  0  0
    6.7889   -5.0144    0.0995 O   0  0  0  0  0  0  0  0  0  0  0  0
    5.6136   -6.7337    1.5235 O   0  0  0  0  0  0  0  0  0  0  0  0
    4.7656   -6.3875   -0.7864 N   0  0  0  0  0  0  0  0  0  0  0  0
    4.4047   -5.7616   -1.9798 C   0  0  0  0  0  0  0  0  0  0  0  0
    3.5093   -6.4402   -2.8365 C   0  0  0  0  0  0  0  0  0  0  0  0
    3.0663   -5.8320   -4.0026 C   0  0  0  0  0  0  0  0  0  0  0  0
    3.5223   -4.5548   -4.3055 C   0  0  0  0  0  0  0  0  0  0  0  0
    4.4238   -3.8759   -3.4971 C   0  0  0  0  0  0  0  0  0  0  0  0
    4.8786   -4.4842   -2.3330 C   0  0  0  0  0  0  0  0  0  0  0  0
    2.9607   -3.7978   -5.7332 Cl  0  0  0  0  0  0  0  0  0  0  0  0
   -0.3488    0.8727    0.2700 H   0  0  0  0  0  0  0  0  0  0  0  0
    1.7994    0.8666   -0.5624 H   0  0  0  0  0  0  0  0  0  0  0  0
    1.6626   -0.9357   -0.5324 H   0  0  0  0  0  0  0  0  0  0  0  0
    3.6458    0.5133    2.4582 H   0  0  0  0  0  0  0  0  0  0  0  0
    5.2518   -0.4115    1.0729 H   0  0  0  0  0  0  0  0  0  0  0  0
    4.0916   -0.4837   -0.2747 H   0  0  0  0  0  0  0  0  0  0  0  0
    5.7226   -2.7823    0.3659 H   0  0  0  0  0  0  0  0  0  0  0  0
    3.0205   -5.7902    1.9197 H   0  0  0  0  0  0  0  0  0  0  0  0
    1.4104   -4.0198    2.5057 H   0  0  0  0  0  0  0  0  0  0  0  0
    0.6028   -1.6952    1.8301 H   0  0  0  0  0  0  0  0  0  0  0  0
    1.5915   -1.2591    3.2274 H   0  0  0  0  0  0  0  0  0  0  0  0
    4.5717   -7.3852   -0.7185 H   0  0  0  0  0  0  0  0  0  0  0  0
    3.1602   -7.4369   -2.5808 H   0  0  0  0  0  0  0  0  0  0  0  0
    2.3701   -6.3508   -4.6634 H   0  0  0  0  0  0  0  0  0  0  0  0
    4.7835   -2.8824   -3.7692 H   0  0  0  0  0  0  0  0  0  0  0  0
    5.6289   -3.9715   -1.7311 H   0  0  0  0  0  0  0  0  0  0  0  0
  1  2  1  0  0  0  0
  1 25  1  0  0  0  0
  2  3  1  0  0  0  0
  3  5  1  0  0  0  0
  3  4  1  1  0  0  0
  3 13  1  0  0  0  0
  5 28  1  0  0  0  0
  6 29  1  0  0  0  0
  6  7  1  0  0  0  0
  6  5  1  0  0  0  0
  7 12  2  0  0  0  0
  8  9  2  0  0  0  0
  8  7  1  0  0  0  0
  9 10  1  0  0  0  0
 10 32  1  0  0  0  0
 10 11  2  0  0  0  0
 11 33  1  0  0  0  0
 12 11  1  0  0  0  0
 12 13  1  0  0  0  0
 13 35  1  0  0  0  0
 14  9  1  0  0  0  0
 14 16  2  0  0  0  0
 15 14  2  0  0  0  0
 17 36  1  0  0  0  0
 17 14  1  0  0  0  0
 18 17  1  0  0  0  0
 19 37  1  0  0  0  0
 19 18  2  0  0  0  0
 20 19  1  0  0  0  0
 21 20  2  0  0  0  0
 21 22  1  0  0  0  0
 22 23  2  0  0  0  0
 23 18  1  0  0  0  0
 23 40  1  0  0  0  0
 24 21  1  0  0  0  0
 26  2  1  0  0  0  0
 27  2  1  0  0  0  0
 30  6  1  0  0  0  0
 31  8  1  0  0  0  0
 34 13  1  0  0  0  0
 38 20  1  0  0  0  0
 39 22  1  0  0  0  0
M  END
$$$$
