rmsd249.gzmat
 OpenBabel08211713433D

 40 42  0  0  1  0  0  0  0  0999 V2000
    0.0000    0.0000    0.0000 O   0  0  0  0  0  0  0  0  0  0  0  0
    1.4109    0.0000    0.0000 C   0  0  0  0  0  0  0  0  0  0  0  0
    1.9092    0.0000    1.4655 C   0  0  2  0  0  0  0  0  0  0  0  0
    1.3804    0.8237    2.0165 H   0  0  0  0  0  0  0  0  0  0  0  0
    3.3489    0.3171    1.4930 N   0  0  0  0  0  0  0  0  0  0  0  0
    4.1662   -0.7320    0.8545 C   0  0  0  0  0  0  0  0  0  0  0  0
    3.7938   -2.1391    1.2338 C   0  0  0  0  0  0  0  0  0  0  0  0
    4.6915   -3.1707    0.9627 C   0  0  0  0  0  0  0  0  0  0  0  0
    4.3515   -4.4898    1.2524 C   0  0  0  0  0  0  0  0  0  0  0  0
    3.1197   -4.7807    1.8376 C   0  0  0  0  0  0  0  0  0  0  0  0
    2.2279   -3.7514    2.1210 C   0  0  0  0  0  0  0  0  0  0  0  0
    2.5541   -2.4260    1.8160 C   0  0  0  0  0  0  0  0  0  0  0  0
    1.5740   -1.3478    2.1414 C   0  0  0  0  0  0  0  0  0  0  0  0
    5.4593   -5.7867    0.8614 S   0  0  0  0  0  0  0  0  0  0  0  0
    6.8081   -5.3423    1.0875 O   0  0  0  0  0  0  0  0  0  0  0  0
    4.9545   -7.0313    1.3874 O   0  0  0  0  0  0  0  0  0  0  0  0
    5.2198   -5.9739   -0.8623 N   0  0  0  0  0  0  0  0  0  0  0  0
    5.6512   -5.0953   -1.8591 C   0  0  0  0  0  0  0  0  0  0  0  0
    4.9883   -5.1357   -3.1059 C   0  0  0  0  0  0  0  0  0  0  0  0
    5.3470   -4.2511   -4.1138 C   0  0  0  0  0  0  0  0  0  0  0  0
    6.3648   -3.3374   -3.8704 C   0  0  0  0  0  0  0  0  0  0  0  0
    7.0520   -3.2937   -2.6649 C   0  0  0  0  0  0  0  0  0  0  0  0
    6.7001   -4.1807   -1.6543 C   0  0  0  0  0  0  0  0  0  0  0  0
    6.7965   -2.2355   -5.1064 Cl  0  0  0  0  0  0  0  0  0  0  0  0
   -0.3491    0.8735    0.2642 H   0  0  0  0  0  0  0  0  0  0  0  0
    1.8002    0.8663   -0.5626 H   0  0  0  0  0  0  0  0  0  0  0  0
    1.6639   -0.9357   -0.5311 H   0  0  0  0  0  0  0  0  0  0  0  0
    3.6582    0.4742    2.4537 H   0  0  0  0  0  0  0  0  0  0  0  0
    5.2375   -0.5239    1.0843 H   0  0  0  0  0  0  0  0  0  0  0  0
    4.0704   -0.6111   -0.2544 H   0  0  0  0  0  0  0  0  0  0  0  0
    5.6636   -2.9231    0.5202 H   0  0  0  0  0  0  0  0  0  0  0  0
    2.8403   -5.8128    2.0841 H   0  0  0  0  0  0  0  0  0  0  0  0
    1.2663   -3.9795    2.5781 H   0  0  0  0  0  0  0  0  0  0  0  0
    0.5442   -1.6489    1.8364 H   0  0  0  0  0  0  0  0  0  0  0  0
    1.5232   -1.2168    3.2427 H   0  0  0  0  0  0  0  0  0  0  0  0
    4.7099   -6.7985   -1.1721 H   0  0  0  0  0  0  0  0  0  0  0  0
    4.1899   -5.8533   -3.2757 H   0  0  0  0  0  0  0  0  0  0  0  0
    4.8316   -4.2736   -5.0747 H   0  0  0  0  0  0  0  0  0  0  0  0
    7.8666   -2.5847   -2.5091 H   0  0  0  0  0  0  0  0  0  0  0  0
    7.2811   -4.1818   -0.7274 H   0  0  0  0  0  0  0  0  0  0  0  0
  1  2  1  0  0  0  0
  1 25  1  0  0  0  0
  2  3  1  0  0  0  0
  3  5  1  0  0  0  0
  3  4  1  1  0  0  0
  3 13  1  0  0  0  0
  5 28  1  0  0  0  0
  6 29  1  0  0  0  0
  6  7  1  0  0  0  0
  6  5  1  0  0  0  0
  7 12  1  0  0  0  0
  8  7  2  0  0  0  0
  8  9  1  0  0  0  0
  9 10  2  0  0  0  0
 10 32  1  0  0  0  0
 10 11  1  0  0  0  0
 11 33  1  0  0  0  0
 12 11  2  0  0  0  0
 12 13  1  0  0  0  0
 13 35  1  0  0  0  0
 14 15  2  0  0  0  0
 14  9  1  0  0  0  0
 14 16  2  0  0  0  0
 17 14  1  0  0  0  0
 18 23  1  0  0  0  0
 18 17  1  0  0  0  0
 19 18  2  0  0  0  0
 20 21  2  0  0  0  0
 20 19  1  0  0  0  0
 21 22  1  0  0  0  0
 22 39  1  0  0  0  0
 22 23  2  0  0  0  0
 23 40  1  0  0  0  0
 24 21  1  0  0  0  0
 26  2  1  0  0  0  0
 27  2  1  0  0  0  0
 30  6  1  0  0  0  0
 31  8  1  0  0  0  0
 34 13  1  0  0  0  0
 36 17  1  0  0  0  0
 37 19  1  0  0  0  0
 38 20  1  0  0  0  0
M  END
$$$$
