40
rmsd22.gzmat
O          0.00000        0.00000        0.00000
C          1.41070        0.00000        0.00000
C          1.91080        0.00000        1.46490
H          1.35490        0.79710        2.02770
N          3.33870        0.36640        1.49570
C          4.18780       -0.63990        0.82980
C          3.85370       -2.06910        1.16070
C          4.76710       -3.06770        0.82570
C          4.46620       -4.40480        1.07420
C          3.26400       -4.74650        1.69280
C          2.35330       -3.75110        2.03170
C          2.63460       -2.40860        1.75770
C          1.62780       -1.36850        2.12360
S          5.58840       -5.64990        0.57290
O          6.78890       -5.01440        0.09950
O          5.61360       -6.73370        1.52350
N          4.76560       -6.38750       -0.78640
C          4.40470       -5.76160       -1.97980
C          3.50930       -6.44020       -2.83650
C          3.06630       -5.83200       -4.00260
C          3.52230       -4.55480       -4.30550
C          4.42380       -3.87590       -3.49710
C          4.87860       -4.48420       -2.33300
Cl         2.96070       -3.79780       -5.73320
H         -0.34880        0.87270        0.27000
H          1.79940        0.86660       -0.56240
H          1.66260       -0.93570       -0.53240
H          3.64580        0.51330        2.45820
H          5.25180       -0.41150        1.07290
H          4.09160       -0.48370       -0.27470
H          5.72260       -2.78230        0.36590
H          3.02050       -5.79020        1.91970
H          1.41040       -4.01980        2.50570
H          0.60280       -1.69520        1.83010
H          1.59150       -1.25910        3.22740
H          4.57170       -7.38520       -0.71850
H          3.16020       -7.43690       -2.58080
H          2.37010       -6.35080       -4.66340
H          4.78350       -2.88240       -3.76920
H          5.62890       -3.97150       -1.73110
