
     RDKit          3D

 40 42  0  0  0  0  0  0  0  0999 V2000
    0.1915    0.4973    0.9398 O   0  0  0  0  0  0  0  0  0  0  0  0
    1.5762    0.3128    1.0461 C   0  0  0  0  0  0  0  0  0  0  0  0
    2.1280    1.0902    2.2503 C   0  0  2  0  0  0  0  0  0  0  0  0
    1.7231    0.6142    3.1578 H   0  0  0  0  0  0  0  0  0  0  0  0
    1.5687    2.4432    2.2045 N   0  0  0  0  0  0  0  0  0  0  0  0
    2.0795    3.2617    1.1144 C   0  0  0  0  0  0  0  0  0  0  0  0
    3.5750    3.1636    0.8830 C   0  0  0  0  0  0  0  0  0  0  0  0
    4.2263    4.1534    0.1404 C   0  0  0  0  0  0  0  0  0  0  0  0
    5.6074    4.1006   -0.0323 C   0  0  0  0  0  0  0  0  0  0  0  0
    6.3596    3.0291    0.4586 C   0  0  0  0  0  0  0  0  0  0  0  0
    5.6999    2.0254    1.1617 C   0  0  0  0  0  0  0  0  0  0  0  0
    4.3193    2.0969    1.4171 C   0  0  0  0  0  0  0  0  0  0  0  0
    3.6609    1.0765    2.3186 C   0  0  0  0  0  0  0  0  0  0  0  0
    6.4481    5.5964   -0.5267 S   0  0  0  0  0  0  0  0  0  0  0  0
    7.7800    5.2926   -1.0444 O   0  0  0  0  0  0  0  0  0  0  0  0
    5.4971    6.4464   -1.2369 O   0  0  0  0  0  0  0  0  0  0  0  0
    6.7422    6.3375    1.0130 N   0  0  0  0  0  0  0  0  0  0  0  0
    5.6863    6.2280    1.9517 C   0  0  0  0  0  0  0  0  0  0  0  0
    5.7584    5.3158    3.0149 C   0  0  0  0  0  0  0  0  0  0  0  0
    4.6429    5.0653    3.8105 C   0  0  0  0  0  0  0  0  0  0  0  0
    3.4452    5.7266    3.5308 C   0  0  0  0  0  0  0  0  0  0  0  0
    3.3709    6.6805    2.5136 C   0  0  0  0  0  0  0  0  0  0  0  0
    4.4965    6.9365    1.7309 C   0  0  0  0  0  0  0  0  0  0  0  0
    2.0056    5.3185    4.4439 Cl  0  0  0  0  0  0  0  0  0  0  0  0
    0.0333    1.3681    1.3502 H   0  0  0  0  0  0  0  0  0  0  0  0
    2.1077    0.6343    0.1242 H   0  0  0  0  0  0  0  0  0  0  0  0
    1.7944   -0.7613    1.1742 H   0  0  0  0  0  0  0  0  0  0  0  0
    1.6776    2.9245    3.0950 H   0  0  0  0  0  0  0  0  0  0  0  0
    1.8060    4.3088    1.3121 H   0  0  0  0  0  0  0  0  0  0  0  0
    1.5608    2.9854    0.1776 H   0  0  0  0  0  0  0  0  0  0  0  0
    3.6706    4.9993   -0.2656 H   0  0  0  0  0  0  0  0  0  0  0  0
    7.4396    3.0036    0.3024 H   0  0  0  0  0  0  0  0  0  0  0  0
    6.2693    1.1785    1.5545 H   0  0  0  0  0  0  0  0  0  0  0  0
    4.0481    0.0681    2.0933 H   0  0  0  0  0  0  0  0  0  0  0  0
    3.9736    1.2909    3.3567 H   0  0  0  0  0  0  0  0  0  0  0  0
    7.6365    5.9815    1.3483 H   0  0  0  0  0  0  0  0  0  0  0  0
    6.6797    4.7540    3.1836 H   0  0  0  0  0  0  0  0  0  0  0  0
    4.6872    4.3339    4.6184 H   0  0  0  0  0  0  0  0  0  0  0  0
    2.4329    7.2050    2.3266 H   0  0  0  0  0  0  0  0  0  0  0  0
    4.4523    7.6456    0.9039 H   0  0  0  0  0  0  0  0  0  0  0  0
  1  2  1  0
  1 25  1  0
  2  3  1  0
  2 26  1  0
  2 27  1  0
  3  4  1  1
  3  5  1  0
  3 13  1  0
  5  6  1  0
  5 28  1  0
  6  7  1  0
  6 29  1  0
  6 30  1  0
  7  8  1  0
  7 12  2  0
  8  9  2  0
  8 31  1  0
  9 10  1  0
  9 14  1  0
 10 11  2  0
 10 32  1  0
 11 12  1  0
 11 33  1  0
 12 13  1  0
 13 34  1  0
 13 35  1  0
 14 15  2  0
 14 16  2  0
 14 17  1  0
 17 18  1  0
 17 36  1  0
 18 19  2  0
 18 23  1  0
 19 20  1  0
 19 37  1  0
 20 21  2  0
 20 38  1  0
 21 22  1  0
 21 24  1  0
 22 23  2  0
 22 39  1  0
 23 40  1  0
M  END

