rmsd19.gzmat
 OpenBabel08211713433D

 40 42  0  0  1  0  0  0  0  0999 V2000
    0.0000    0.0000    0.0000 O   0  0  0  0  0  0  0  0  0  0  0  0
    1.4105    0.0000    0.0000 C   0  0  0  0  0  0  0  0  0  0  0  0
    1.9164    0.0000    1.4627 C   0  0  2  0  0  0  0  0  0  0  0  0
    1.3969    0.8276    2.0161 H   0  0  0  0  0  0  0  0  0  0  0  0
    3.3586    0.3073    1.4811 N   0  0  0  0  0  0  0  0  0  0  0  0
    4.1634   -0.7429    0.8272 C   0  0  0  0  0  0  0  0  0  0  0  0
    3.7721   -2.1524    1.1790 C   0  0  0  0  0  0  0  0  0  0  0  0
    4.6436   -3.1934    0.8594 C   0  0  0  0  0  0  0  0  0  0  0  0
    4.2999   -4.5103    1.1543 C   0  0  0  0  0  0  0  0  0  0  0  0
    3.0867   -4.7908    1.7825 C   0  0  0  0  0  0  0  0  0  0  0  0
    2.2117   -3.7554    2.0934 C   0  0  0  0  0  0  0  0  0  0  0  0
    2.5440   -2.4313    1.7893 C   0  0  0  0  0  0  0  0  0  0  0  0
    1.5806   -1.3465    2.1416 C   0  0  0  0  0  0  0  0  0  0  0  0
    5.4013   -5.8033    0.7327 S   0  0  0  0  0  0  0  0  0  0  0  0
    6.6327   -5.2365    0.2373 O   0  0  0  0  0  0  0  0  0  0  0  0
    5.3710   -6.8071    1.7611 O   0  0  0  0  0  0  0  0  0  0  0  0
    4.6885   -6.4736   -0.7203 N   0  0  0  0  0  0  0  0  0  0  0  0
    3.6651   -7.4213   -0.8033 C   0  0  0  0  0  0  0  0  0  0  0  0
    3.0802   -8.0153    0.3296 C   0  0  0  0  0  0  0  0  0  0  0  0
    2.0120   -8.8925    0.1782 C   0  0  0  0  0  0  0  0  0  0  0  0
    1.5506   -9.1828   -1.0984 C   0  0  0  0  0  0  0  0  0  0  0  0
    2.1282   -8.6370   -2.2385 C   0  0  0  0  0  0  0  0  0  0  0  0
    3.1895   -7.7546   -2.0924 C   0  0  0  0  0  0  0  0  0  0  0  0
    0.2327  -10.2593   -1.2753 Cl  0  0  0  0  0  0  0  0  0  0  0  0
   -0.3494    0.8625    0.2999 H   0  0  0  0  0  0  0  0  0  0  0  0
    1.7977    0.8664   -0.5642 H   0  0  0  0  0  0  0  0  0  0  0  0
    1.6608   -0.9361   -0.5318 H   0  0  0  0  0  0  0  0  0  0  0  0
    3.6763    0.4532    2.4409 H   0  0  0  0  0  0  0  0  0  0  0  0
    5.2368   -0.5559    1.0676 H   0  0  0  0  0  0  0  0  0  0  0  0
    4.0741   -0.5970   -0.2789 H   0  0  0  0  0  0  0  0  0  0  0  0
    5.6021   -2.9579    0.3785 H   0  0  0  0  0  0  0  0  0  0  0  0
    2.8039   -5.8175    2.0414 H   0  0  0  0  0  0  0  0  0  0  0  0
    1.2591   -3.9781    2.5723 H   0  0  0  0  0  0  0  0  0  0  0  0
    0.5424   -1.6380    1.8559 H   0  0  0  0  0  0  0  0  0  0  0  0
    1.5526   -1.2191    3.2441 H   0  0  0  0  0  0  0  0  0  0  0  0
    5.1888   -6.2820   -1.5890 H   0  0  0  0  0  0  0  0  0  0  0  0
    3.4716   -7.8412    1.3345 H   0  0  0  0  0  0  0  0  0  0  0  0
    1.5550   -9.3500    1.0573 H   0  0  0  0  0  0  0  0  0  0  0  0
    1.7586   -8.8929   -3.2326 H   0  0  0  0  0  0  0  0  0  0  0  0
    3.6499   -7.3160   -2.9740 H   0  0  0  0  0  0  0  0  0  0  0  0
  1 25  1  0  0  0  0
  2  1  1  0  0  0  0
  2  3  1  0  0  0  0
  3  5  1  0  0  0  0
  3  4  1  1  0  0  0
  3 13  1  0  0  0  0
  5 28  1  0  0  0  0
  6 29  1  0  0  0  0
  6  7  1  0  0  0  0
  6  5  1  0  0  0  0
  7 12  2  0  0  0  0
  8  9  2  0  0  0  0
  8  7  1  0  0  0  0
  9 10  1  0  0  0  0
 10 32  1  0  0  0  0
 10 11  2  0  0  0  0
 11 33  1  0  0  0  0
 12 11  1  0  0  0  0
 12 13  1  0  0  0  0
 13 35  1  0  0  0  0
 14  9  1  0  0  0  0
 14 16  2  0  0  0  0
 15 14  2  0  0  0  0
 17 14  1  0  0  0  0
 18 17  1  0  0  0  0
 18 19  2  0  0  0  0
 19 37  1  0  0  0  0
 20 19  1  0  0  0  0
 20 38  1  0  0  0  0
 21 20  2  0  0  0  0
 22 23  2  0  0  0  0
 22 21  1  0  0  0  0
 23 18  1  0  0  0  0
 24 21  1  0  0  0  0
 26  2  1  0  0  0  0
 27  2  1  0  0  0  0
 30  6  1  0  0  0  0
 31  8  1  0  0  0  0
 34 13  1  0  0  0  0
 36 17  1  0  0  0  0
 39 22  1  0  0  0  0
 40 23  1  0  0  0  0
M  END
$$$$
