
     RDKit          3D

 40 42  0  0  0  0  0  0  0  0999 V2000
   -0.0347   -0.9598   -0.5003 O   0  0  0  0  0  0  0  0  0  0  0  0
    1.3409   -0.6489   -0.4518 C   0  0  0  0  0  0  0  0  0  0  0  0
    1.8279   -0.3675    0.9770 C   0  0  2  0  0  0  0  0  0  0  0  0
    1.2361    0.4882    1.3485 H   0  0  0  0  0  0  0  0  0  0  0  0
    3.2261    0.0562    0.9635 N   0  0  0  0  0  0  0  0  0  0  0  0
    4.1549   -0.9909    0.5633 C   0  0  0  0  0  0  0  0  0  0  0  0
    3.8456   -2.3833    1.0906 C   0  0  0  0  0  0  0  0  0  0  0  0
    4.7793   -3.4120    0.9204 C   0  0  0  0  0  0  0  0  0  0  0  0
    4.4886   -4.6973    1.3728 C   0  0  0  0  0  0  0  0  0  0  0  0
    3.2720   -4.9927    1.9962 C   0  0  0  0  0  0  0  0  0  0  0  0
    2.3423   -3.9687    2.1483 C   0  0  0  0  0  0  0  0  0  0  0  0
    2.6097   -2.6635    1.7045 C   0  0  0  0  0  0  0  0  0  0  0  0
    1.5894   -1.5662    1.9075 C   0  0  0  0  0  0  0  0  0  0  0  0
    5.6533   -6.0118    1.0504 S   0  0  0  0  0  0  0  0  0  0  0  0
    6.9556   -5.4267    0.7395 O   0  0  0  0  0  0  0  0  0  0  0  0
    5.4705   -7.0413    2.0700 O   0  0  0  0  0  0  0  0  0  0  0  0
    5.1279   -6.6779   -0.4308 N   0  0  0  0  0  0  0  0  0  0  0  0
    3.7987   -7.1495   -0.5551 C   0  0  0  0  0  0  0  0  0  0  0  0
    3.3674   -8.2396    0.2164 C   0  0  0  0  0  0  0  0  0  0  0  0
    2.0518   -8.6885    0.1193 C   0  0  0  0  0  0  0  0  0  0  0  0
    1.1691   -8.0664   -0.7690 C   0  0  0  0  0  0  0  0  0  0  0  0
    1.5902   -6.9915   -1.5552 C   0  0  0  0  0  0  0  0  0  0  0  0
    2.8999   -6.5283   -1.4339 C   0  0  0  0  0  0  0  0  0  0  0  0
   -0.4761   -8.6397   -0.8984 Cl  0  0  0  0  0  0  0  0  0  0  0  0
   -0.5314   -0.1733   -0.2384 H   0  0  0  0  0  0  0  0  0  0  0  0
    1.6053    0.2193   -1.0852 H   0  0  0  0  0  0  0  0  0  0  0  0
    1.8607   -1.5271   -0.8666 H   0  0  0  0  0  0  0  0  0  0  0  0
    3.4799    0.4071    1.8846 H   0  0  0  0  0  0  0  0  0  0  0  0
    5.1692   -0.6950    0.8744 H   0  0  0  0  0  0  0  0  0  0  0  0
    4.1958   -1.0439   -0.5410 H   0  0  0  0  0  0  0  0  0  0  0  0
    5.7449   -3.2172    0.4471 H   0  0  0  0  0  0  0  0  0  0  0  0
    3.0699   -6.0028    2.3522 H   0  0  0  0  0  0  0  0  0  0  0  0
    1.3808   -4.1807    2.6232 H   0  0  0  0  0  0  0  0  0  0  0  0
    0.5736   -1.9615    1.7530 H   0  0  0  0  0  0  0  0  0  0  0  0
    1.6382   -1.2235    2.9572 H   0  0  0  0  0  0  0  0  0  0  0  0
    5.4448   -6.0762   -1.1885 H   0  0  0  0  0  0  0  0  0  0  0  0
    4.0711   -8.7162    0.8979 H   0  0  0  0  0  0  0  0  0  0  0  0
    1.7092   -9.5320    0.7202 H   0  0  0  0  0  0  0  0  0  0  0  0
    0.8911   -6.5124   -2.2417 H   0  0  0  0  0  0  0  0  0  0  0  0
    3.2267   -5.6677   -2.0228 H   0  0  0  0  0  0  0  0  0  0  0  0
  1  2  1  0
  1 25  1  0
  2  3  1  0
  2 26  1  0
  2 27  1  0
  3  4  1  1
  3  5  1  0
  3 13  1  0
  5  6  1  0
  5 28  1  0
  6  7  1  0
  6 29  1  0
  6 30  1  0
  7  8  1  0
  7 12  2  0
  8  9  2  0
  8 31  1  0
  9 10  1  0
  9 14  1  0
 10 11  2  0
 10 32  1  0
 11 12  1  0
 11 33  1  0
 12 13  1  0
 13 34  1  0
 13 35  1  0
 14 15  2  0
 14 16  2  0
 14 17  1  0
 17 18  1  0
 17 36  1  0
 18 19  2  0
 18 23  1  0
 19 20  1  0
 19 37  1  0
 20 21  2  0
 20 38  1  0
 21 22  1  0
 21 24  1  0
 22 23  2  0
 22 39  1  0
 23 40  1  0
M  END

