rmsd95.gzmat
 OpenBabel08211713413D

 59 61  0  0  1  0  0  0  0  0999 V2000
    0.0000    0.0000    0.0000 C   0  0  0  0  0  0  0  0  0  0  0  0
    1.3944    0.0000    0.0000 C   0  0  0  0  0  0  0  0  0  0  0  0
    2.0939    0.0000    1.2038 C   0  0  0  0  0  0  0  0  0  0  0  0
    1.3974   -0.0074    2.4156 C   0  0  0  0  0  0  0  0  0  0  0  0
    0.0001    0.0013    2.4145 C   0  0  0  0  0  0  0  0  0  0  0  0
   -0.6953    0.0045    1.2076 C   0  0  0  0  0  0  0  0  0  0  0  0
    2.1393   -0.0427    3.7090 C   0  0  0  0  0  0  0  0  0  0  0  0
    2.7582   -1.6832    4.0764 S   0  0  0  0  0  0  0  0  0  0  0  0
    4.0551   -1.8197    3.4680 O   0  0  0  0  0  0  0  0  0  0  0  0
    2.5977   -1.9414    5.4975 O   0  0  0  0  0  0  0  0  0  0  0  0
    1.6497   -2.7480    3.3007 N   0  0  0  0  0  0  0  0  0  0  0  0
    1.5078   -4.1141    3.7605 C   0  0  1  0  0  0  0  0  0  0  0  0
    1.7039   -4.1621    4.8753 H   0  0  0  0  0  0  0  0  0  0  0  0
    0.0568   -4.5557    3.5287 C   0  0  0  0  0  0  0  0  0  0  0  0
   -0.8142   -3.8910    3.0204 O   0  0  0  0  0  0  0  0  0  0  0  0
   -0.2022   -5.8195    4.0483 N   0  0  0  0  0  0  0  0  0  0  0  0
    0.9309   -6.6838    4.3913 C   0  0  2  0  0  0  0  0  0  0  0  0
    1.3174   -6.3991    5.4097 H   0  0  0  0  0  0  0  0  0  0  0  0
    2.0483   -6.5780    3.3412 C   0  0  0  0  0  0  0  0  0  0  0  0
    2.4395   -5.1193    3.0464 C   0  0  0  0  0  0  0  0  0  0  0  0
    0.2389   -8.4009    4.5019 S   0  0  0  0  0  0  0  0  0  0  0  0
   -1.3416   -7.9602    3.6841 C   0  0  0  0  0  0  0  0  0  0  0  0
   -1.5083   -6.4498    3.8472 C   0  0  1  0  0  0  0  0  0  0  0  0
   -2.0047   -5.9983    2.9344 H   0  0  0  0  0  0  0  0  0  0  0  0
   -2.4640   -6.1687    5.0273 C   0  0  0  0  0  0  0  0  0  0  0  0
   -3.6435   -6.4395    4.9053 O   0  0  0  0  0  0  0  0  0  0  0  0
   -1.9566   -5.6444    6.1858 N   0  0  0  0  0  0  0  0  0  0  0  0
   -2.8647   -5.2082    7.2517 C   0  0  0  0  0  0  0  0  0  0  0  0
   -2.7281   -3.6949    7.4970 C   0  0  0  0  0  0  0  0  0  0  0  0
   -1.5608   -3.3388    8.4330 C   0  0  0  0  0  0  0  0  0  0  0  0
   -0.2598   -3.3035    7.7536 N   0  0  0  0  0  0  0  0  0  0  0  0
    0.7905   -4.1366    8.1872 C   0  0  0  0  0  0  0  0  0  0  0  0
    0.9396   -4.7370    9.3230 N   0  0  0  0  0  0  0  0  0  0  0  0
    1.8156   -4.2820    7.2100 N   0  0  0  0  0  0  0  0  0  0  0  0
   -0.5448   -0.0071   -0.9421 H   0  0  0  0  0  0  0  0  0  0  0  0
    1.9371   -0.0028   -0.9439 H   0  0  0  0  0  0  0  0  0  0  0  0
    3.1849   -0.0045    1.1958 H   0  0  0  0  0  0  0  0  0  0  0  0
   -0.5520   -0.0121    3.3539 H   0  0  0  0  0  0  0  0  0  0  0  0
   -1.7846   -0.0014    1.2099 H   0  0  0  0  0  0  0  0  0  0  0  0
    1.5033    0.3137    4.5503 H   0  0  0  0  0  0  0  0  0  0  0  0
    2.9902    0.6755    3.6884 H   0  0  0  0  0  0  0  0  0  0  0  0
    1.3006   -2.5660    2.3660 H   0  0  0  0  0  0  0  0  0  0  0  0
    2.9361   -7.1441    3.6882 H   0  0  0  0  0  0  0  0  0  0  0  0
    1.7415   -7.0683    2.3954 H   0  0  0  0  0  0  0  0  0  0  0  0
    3.4867   -4.9296    3.3547 H   0  0  0  0  0  0  0  0  0  0  0  0
    2.4268   -4.9352    1.9554 H   0  0  0  0  0  0  0  0  0  0  0  0
   -1.3232   -8.2583    2.6210 H   0  0  0  0  0  0  0  0  0  0  0  0
   -2.1765   -8.5214    4.1517 H   0  0  0  0  0  0  0  0  0  0  0  0
   -0.9969   -5.3574    6.2830 H   0  0  0  0  0  0  0  0  0  0  0  0
   -2.6374   -5.7888    8.1741 H   0  0  0  0  0  0  0  0  0  0  0  0
   -3.9196   -5.4585    6.9731 H   0  0  0  0  0  0  0  0  0  0  0  0
   -3.6718   -3.3130    7.9360 H   0  0  0  0  0  0  0  0  0  0  0  0
   -2.6304   -3.1615    6.5299 H   0  0  0  0  0  0  0  0  0  0  0  0
   -1.5434   -4.0382    9.2982 H   0  0  0  0  0  0  0  0  0  0  0  0
   -1.7269   -2.3199    8.8640 H   0  0  0  0  0  0  0  0  0  0  0  0
   -0.2824   -3.0595    6.7706 H   0  0  0  0  0  0  0  0  0  0  0  0
    0.2198   -4.7548   10.0156 H   0  0  0  0  0  0  0  0  0  0  0  0
    2.1069   -3.4103    6.7575 H   0  0  0  0  0  0  0  0  0  0  0  0
    2.6258   -4.7825    7.5648 H   0  0  0  0  0  0  0  0  0  0  0  0
  1  6  1  0  0  0  0
  2  1  2  0  0  0  0
  2  3  1  0  0  0  0
  3  4  2  0  0  0  0
  4  7  1  0  0  0  0
  5  4  1  0  0  0  0
  5 38  1  0  0  0  0
  6 39  1  0  0  0  0
  6  5  2  0  0  0  0
  7  8  1  0  0  0  0
  7 40  1  0  0  0  0
  8 10  2  0  0  0  0
  9  8  2  0  0  0  0
 11 12  1  0  0  0  0
 11  8  1  0  0  0  0
 12 13  1  1  0  0  0
 14 12  1  0  0  0  0
 14 16  1  0  0  0  0
 15 14  2  0  0  0  0
 16 17  1  0  0  0  0
 17 21  1  0  0  0  0
 17 18  1  1  0  0  0
 19 43  1  0  0  0  0
 19 17  1  0  0  0  0
 20 19  1  0  0  0  0
 20 45  1  0  0  0  0
 20 12  1  0  0  0  0
 22 23  1  0  0  0  0
 22 48  1  0  0  0  0
 22 21  1  0  0  0  0
 23 24  1  6  0  0  0
 23 16  1  0  0  0  0
 23 25  1  0  0  0  0
 25 27  1  0  0  0  0
 26 25  2  0  0  0  0
 27 49  1  0  0  0  0
 27 28  1  0  0  0  0
 28 29  1  0  0  0  0
 28 50  1  0  0  0  0
 29 52  1  0  0  0  0
 29 30  1  0  0  0  0
 30 55  1  0  0  0  0
 30 54  1  0  0  0  0
 31 32  1  0  0  0  0
 31 30  1  0  0  0  0
 32 33  1  0  0  0  0
 33 57  1  0  0  0  0
 34 59  1  0  0  0  0
 34 32  2  0  0  0  0
 35  1  1  0  0  0  0
 36  2  1  0  0  0  0
 37  3  1  0  0  0  0
 41  7  1  0  0  0  0
 42 11  1  0  0  0  0
 44 19  1  0  0  0  0
 46 20  1  0  0  0  0
 47 22  1  0  0  0  0
 51 28  1  0  0  0  0
 53 29  1  0  0  0  0
 56 31  1  0  0  0  0
 58 34  1  0  0  0  0
M  RAD  1  33   2
M  END
$$$$
