
     RDKit          3D

 59 61  0  0  0  0  0  0  0  0999 V2000
    0.6171    0.4378   -0.1678 C   0  0  0  0  0  0  0  0  0  0  0  0
    1.8948   -0.0645    0.0939 C   0  0  0  0  0  0  0  0  0  0  0  0
    2.3198   -0.2399    1.4117 C   0  0  0  0  0  0  0  0  0  0  0  0
    1.4664    0.0740    2.4781 C   0  0  0  0  0  0  0  0  0  0  0  0
    0.1907    0.5907    2.2098 C   0  0  0  0  0  0  0  0  0  0  0  0
   -0.2327    0.7679    0.8921 C   0  0  0  0  0  0  0  0  0  0  0  0
    1.9425   -0.0579    3.8936 C   0  0  0  0  0  0  0  0  0  0  0  0
    2.5775    1.5356    4.4897 S   0  0  0  0  0  0  0  0  0  0  0  0
    3.7611    1.8643    3.6688 O   0  0  0  0  0  0  0  0  0  0  0  0
    1.4616    2.4758    4.6021 O   0  0  0  0  0  0  0  0  0  0  0  0
    3.0837    1.1729    6.0566 N   0  0  0  0  0  0  0  0  0  0  0  0
    4.5065    1.2238    6.3500 C   0  0  1  0  0  0  0  0  0  0  0  0
    5.0449    1.5386    5.4423 H   0  0  0  0  0  0  0  0  0  0  0  0
    4.7468    2.3235    7.3872 C   0  0  0  0  0  0  0  0  0  0  0  0
    3.8403    3.0165    7.8271 O   0  0  0  0  0  0  0  0  0  0  0  0
    6.0533    2.4474    7.7358 N   0  0  0  0  0  0  0  0  0  0  0  0
    7.0354    1.4552    7.2826 C   0  0  2  0  0  0  0  0  0  0  0  0
    7.3033    1.6298    6.2272 H   0  0  0  0  0  0  0  0  0  0  0  0
    6.4715    0.0425    7.4752 C   0  0  0  0  0  0  0  0  0  0  0  0
    5.0864   -0.1271    6.8102 C   0  0  0  0  0  0  0  0  0  0  0  0
    8.5527    1.7779    8.2736 S   0  0  0  0  0  0  0  0  0  0  0  0
    7.5901    2.7037    9.5316 C   0  0  0  0  0  0  0  0  0  0  0  0
    6.5205    3.4204    8.7190 C   0  0  1  0  0  0  0  0  0  0  0  0
    5.6577    3.7154    9.3368 H   0  0  0  0  0  0  0  0  0  0  0  0
    7.1078    4.7101    8.0920 C   0  0  0  0  0  0  0  0  0  0  0  0
    7.9737    5.3329    8.6873 O   0  0  0  0  0  0  0  0  0  0  0  0
    6.5808    5.0738    6.9023 N   0  0  0  0  0  0  0  0  0  0  0  0
    7.0046    6.2785    6.2114 C   0  0  0  0  0  0  0  0  0  0  0  0
    7.6816    5.9846    4.8677 C   0  0  0  0  0  0  0  0  0  0  0  0
    6.8112    5.2061    3.8696 C   0  0  0  0  0  0  0  0  0  0  0  0
    5.5470    5.8550    3.5431 N   0  0  0  0  0  0  0  0  0  0  0  0
    4.4308    5.7946    4.3745 C   0  0  0  0  0  0  0  0  0  0  0  0
    3.5919    6.7362    4.5990 N   0  0  0  0  0  0  0  0  0  0  0  0
    4.2684    4.5514    5.0037 N   0  0  0  0  0  0  0  0  0  0  0  0
    0.2844    0.5764   -1.1992 H   0  0  0  0  0  0  0  0  0  0  0  0
    2.5648   -0.3165   -0.7314 H   0  0  0  0  0  0  0  0  0  0  0  0
    3.3246   -0.6160    1.6179 H   0  0  0  0  0  0  0  0  0  0  0  0
   -0.4632    0.8685    3.0391 H   0  0  0  0  0  0  0  0  0  0  0  0
   -1.2286    1.1694    0.6917 H   0  0  0  0  0  0  0  0  0  0  0  0
    2.7767   -0.7637    4.0042 H   0  0  0  0  0  0  0  0  0  0  0  0
    1.1449   -0.3201    4.6018 H   0  0  0  0  0  0  0  0  0  0  0  0
    2.5712    1.7880    6.7021 H   0  0  0  0  0  0  0  0  0  0  0  0
    7.1970   -0.6847    7.0832 H   0  0  0  0  0  0  0  0  0  0  0  0
    6.4011   -0.1330    8.5590 H   0  0  0  0  0  0  0  0  0  0  0  0
    5.1420   -0.7920    5.9349 H   0  0  0  0  0  0  0  0  0  0  0  0
    4.3738   -0.5843    7.5118 H   0  0  0  0  0  0  0  0  0  0  0  0
    7.1530    2.0227   10.2757 H   0  0  0  0  0  0  0  0  0  0  0  0
    8.2540    3.4312   10.0130 H   0  0  0  0  0  0  0  0  0  0  0  0
    5.7754    4.5856    6.5040 H   0  0  0  0  0  0  0  0  0  0  0  0
    7.7048    6.8007    6.8768 H   0  0  0  0  0  0  0  0  0  0  0  0
    6.1303    6.9326    6.0632 H   0  0  0  0  0  0  0  0  0  0  0  0
    8.6119    5.4175    5.0448 H   0  0  0  0  0  0  0  0  0  0  0  0
    7.9792    6.9474    4.4143 H   0  0  0  0  0  0  0  0  0  0  0  0
    6.5930    4.2053    4.2669 H   0  0  0  0  0  0  0  0  0  0  0  0
    7.3748    5.0493    2.9353 H   0  0  0  0  0  0  0  0  0  0  0  0
    5.6524    6.7623    3.1006 H   0  0  0  0  0  0  0  0  0  0  0  0
    3.8981    7.6128    4.1692 H   0  0  0  0  0  0  0  0  0  0  0  0
    3.3848    4.5393    5.5109 H   0  0  0  0  0  0  0  0  0  0  0  0
    4.2984    3.7676    4.3463 H   0  0  0  0  0  0  0  0  0  0  0  0
  1  2  2  0
  1  6  1  0
  1 35  1  0
  2  3  1  0
  2 36  1  0
  3  4  2  0
  3 37  1  0
  4  5  1  0
  4  7  1  0
  5  6  2  0
  5 38  1  0
  6 39  1  0
  7  8  1  0
  7 40  1  0
  7 41  1  0
  8  9  2  0
  8 10  2  0
  8 11  1  0
 11 12  1  0
 11 42  1  0
 12 13  1  6
 12 14  1  0
 12 20  1  0
 14 15  2  0
 14 16  1  0
 16 17  1  0
 16 23  1  0
 17 18  1  6
 17 19  1  0
 17 21  1  0
 19 20  1  0
 19 43  1  0
 19 44  1  0
 20 45  1  0
 20 46  1  0
 21 22  1  0
 22 23  1  0
 22 47  1  0
 22 48  1  0
 23 24  1  1
 23 25  1  0
 25 26  2  0
 25 27  1  0
 27 28  1  0
 27 49  1  0
 28 29  1  0
 28 50  1  0
 28 51  1  0
 29 30  1  0
 29 52  1  0
 29 53  1  0
 30 31  1  0
 30 54  1  0
 30 55  1  0
 31 32  1  0
 31 56  1  0
 32 33  2  0
 32 34  1  0
 33 57  1  0
 34 58  1  0
 34 59  1  0
M  END

