
     RDKit          3D

 59 61  0  0  0  0  0  0  0  0999 V2000
    0.1956    0.3878   -0.1176 C   0  0  0  0  0  0  0  0  0  0  0  0
    1.5697    0.1604   -0.0185 C   0  0  0  0  0  0  0  0  0  0  0  0
    2.1646    0.0101    1.2370 C   0  0  0  0  0  0  0  0  0  0  0  0
    1.3864    0.0819    2.4024 C   0  0  0  0  0  0  0  0  0  0  0  0
    0.0054    0.3075    2.2910 C   0  0  0  0  0  0  0  0  0  0  0  0
   -0.5874    0.4569    1.0382 C   0  0  0  0  0  0  0  0  0  0  0  0
    2.0326   -0.0091    3.7515 C   0  0  0  0  0  0  0  0  0  0  0  0
    2.3254    1.6180    4.5148 S   0  0  0  0  0  0  0  0  0  0  0  0
    1.0495    2.3628    4.5476 O   0  0  0  0  0  0  0  0  0  0  0  0
    3.0399    1.4239    5.7788 O   0  0  0  0  0  0  0  0  0  0  0  0
    3.4093    2.2806    3.3824 N   0  0  0  0  0  0  0  0  0  0  0  0
    3.7645    3.7057    3.5671 C   0  0  1  0  0  0  0  0  0  0  0  0
    4.4657    3.9066    2.7424 H   0  0  0  0  0  0  0  0  0  0  0  0
    2.5151    4.5462    3.2368 C   0  0  0  0  0  0  0  0  0  0  0  0
    1.8889    4.2516    2.2174 O   0  0  0  0  0  0  0  0  0  0  0  0
    2.1359    5.5276    4.0717 N   0  0  0  0  0  0  0  0  0  0  0  0
    2.8485    5.8652    5.3149 C   0  0  2  0  0  0  0  0  0  0  0  0
    3.6054    6.6370    5.0899 H   0  0  0  0  0  0  0  0  0  0  0  0
    3.5052    4.6387    5.9219 C   0  0  0  0  0  0  0  0  0  0  0  0
    4.4598    4.0231    4.8997 C   0  0  0  0  0  0  0  0  0  0  0  0
    1.5791    6.6135    6.4041 S   0  0  0  0  0  0  0  0  0  0  0  0
    0.7606    7.2947    4.9189 C   0  0  0  0  0  0  0  0  0  0  0  0
    0.8347    6.1828    3.8739 C   0  0  1  0  0  0  0  0  0  0  0  0
    0.0523    5.4305    4.0562 H   0  0  0  0  0  0  0  0  0  0  0  0
    0.6955    6.7580    2.4540 C   0  0  0  0  0  0  0  0  0  0  0  0
    1.5373    7.5066    1.9853 O   0  0  0  0  0  0  0  0  0  0  0  0
   -0.4598    6.4020    1.8446 N   0  0  0  0  0  0  0  0  0  0  0  0
   -0.7129    6.7317    0.4509 C   0  0  0  0  0  0  0  0  0  0  0  0
    0.0405    5.8449   -0.5538 C   0  0  0  0  0  0  0  0  0  0  0  0
   -0.4602    4.3974   -0.6541 C   0  0  0  0  0  0  0  0  0  0  0  0
   -0.4059    3.6894    0.6091 N   0  0  0  0  0  0  0  0  0  0  0  0
   -1.5178    3.4793    1.3981 C   0  0  0  0  0  0  0  0  0  0  0  0
   -2.7427    3.3340    1.0319 N   0  0  0  0  0  0  0  0  0  0  0  0
   -1.2268    3.4859    2.7664 N   0  0  0  0  0  0  0  0  0  0  0  0
   -0.2680    0.5220   -1.0972 H   0  0  0  0  0  0  0  0  0  0  0  0
    2.1839    0.1027   -0.9200 H   0  0  0  0  0  0  0  0  0  0  0  0
    3.2408   -0.1660    1.3153 H   0  0  0  0  0  0  0  0  0  0  0  0
   -0.6015    0.3853    3.1950 H   0  0  0  0  0  0  0  0  0  0  0  0
   -1.6555    0.6695    0.9660 H   0  0  0  0  0  0  0  0  0  0  0  0
    3.0172   -0.4941    3.7408 H   0  0  0  0  0  0  0  0  0  0  0  0
    1.3983   -0.4981    4.5057 H   0  0  0  0  0  0  0  0  0  0  0  0
    2.9391    2.2054    2.4719 H   0  0  0  0  0  0  0  0  0  0  0  0
    4.0555    4.9272    6.8299 H   0  0  0  0  0  0  0  0  0  0  0  0
    2.7283    3.9198    6.2168 H   0  0  0  0  0  0  0  0  0  0  0  0
    5.2734    4.7379    4.6975 H   0  0  0  0  0  0  0  0  0  0  0  0
    4.9179    3.1071    5.2939 H   0  0  0  0  0  0  0  0  0  0  0  0
   -0.2776    7.5585    5.1574 H   0  0  0  0  0  0  0  0  0  0  0  0
    1.2939    8.1874    4.5597 H   0  0  0  0  0  0  0  0  0  0  0  0
   -0.9855    5.6417    2.2726 H   0  0  0  0  0  0  0  0  0  0  0  0
   -0.4027    7.7760    0.3000 H   0  0  0  0  0  0  0  0  0  0  0  0
   -1.7996    6.6709    0.2813 H   0  0  0  0  0  0  0  0  0  0  0  0
    1.1093    5.8547   -0.2842 H   0  0  0  0  0  0  0  0  0  0  0  0
   -0.0343    6.3090   -1.5526 H   0  0  0  0  0  0  0  0  0  0  0  0
    0.1366    3.8610   -1.4137 H   0  0  0  0  0  0  0  0  0  0  0  0
   -1.4996    4.3870   -1.0189 H   0  0  0  0  0  0  0  0  0  0  0  0
    0.4584    3.8385    1.1274 H   0  0  0  0  0  0  0  0  0  0  0  0
   -2.8320    3.3851    0.0167 H   0  0  0  0  0  0  0  0  0  0  0  0
   -0.3083    3.1516    3.0582 H   0  0  0  0  0  0  0  0  0  0  0  0
   -1.9798    3.0809    3.3139 H   0  0  0  0  0  0  0  0  0  0  0  0
  1  2  2  0
  1  6  1  0
  1 35  1  0
  2  3  1  0
  2 36  1  0
  3  4  2  0
  3 37  1  0
  4  5  1  0
  4  7  1  0
  5  6  2  0
  5 38  1  0
  6 39  1  0
  7  8  1  0
  7 40  1  0
  7 41  1  0
  8  9  2  0
  8 10  2  0
  8 11  1  0
 11 12  1  0
 11 42  1  0
 12 13  1  6
 12 14  1  0
 12 20  1  0
 14 15  2  0
 14 16  1  0
 16 17  1  0
 16 23  1  0
 17 18  1  6
 17 19  1  0
 17 21  1  0
 19 20  1  0
 19 43  1  0
 19 44  1  0
 20 45  1  0
 20 46  1  0
 21 22  1  0
 22 23  1  0
 22 47  1  0
 22 48  1  0
 23 24  1  1
 23 25  1  0
 25 26  2  0
 25 27  1  0
 27 28  1  0
 27 49  1  0
 28 29  1  0
 28 50  1  0
 28 51  1  0
 29 30  1  0
 29 52  1  0
 29 53  1  0
 30 31  1  0
 30 54  1  0
 30 55  1  0
 31 32  1  0
 31 56  1  0
 32 33  2  0
 32 34  1  0
 33 57  1  0
 34 58  1  0
 34 59  1  0
M  END

