59
rmsd236.gzmat
C          0.00000        0.00000        0.00000
C          1.39370        0.00000        0.00000
C          2.09330        0.00000        1.20450
C          1.39850       -0.00080        2.41670
C          0.00080        0.00110        2.41520
C         -0.69440        0.00270        1.20870
C          2.14430       -0.01520        3.70590
S          2.31150        1.63220        4.36520
O          3.16620        2.43620        3.52830
O          1.02830        2.10250        4.82580
N          3.28490        1.35830        5.79690
C          2.62990        1.10430        7.07580
H          1.51740        1.31560        7.02160
C          2.78650       -0.41730        7.27930
O          2.15300       -1.20110        6.58720
N          3.63910       -0.91370        8.23660
C          4.35400       -0.08120        9.20100
H          3.78040       -0.06130       10.16690
C          4.57600        1.33620        8.67450
C          3.22990        1.91580        8.23530
S          5.96110       -0.96260        9.50110
C          5.37300       -2.55550        8.80530
C          3.95700       -2.34820        8.26580
H          3.87840       -2.75640        7.21420
C          2.91970       -3.09880        9.13800
O          3.24730       -3.72470       10.13130
N          1.62660       -3.02220        8.70920
C          0.53420       -3.64860        9.45940
C         -0.06720       -4.85580        8.72200
C          0.94240       -5.99040        8.44870
N          1.80290       -6.32500        9.59550
C          1.17960       -6.78750       10.79300
N          1.50900       -6.43090       11.99370
N          0.15320       -7.74210       10.62130
H         -0.54460        0.00280       -0.94140
H          1.93750        0.00490       -0.94230
H          3.18240        0.01350        1.19690
H         -0.54710        0.01590        3.35800
H         -1.78250        0.01050        1.20980
H          3.14300       -0.49050        3.59440
H          1.63240       -0.67350        4.45470
H          4.16110        1.86430        5.86240
H          5.03510        1.97170        9.45860
H          5.29330        1.34700        7.82740
H          2.52130        1.93130        9.08800
H          3.34100        2.97810        7.93700
H          6.06810       -2.88400        8.01260
H          5.40140       -3.33360        9.60330
H          1.39200       -2.54720        7.83970
H         -0.25910       -2.88220        9.62930
H          0.89220       -3.95100       10.47410
H         -0.51710       -4.53420        7.76470
H         -0.90280       -5.25580        9.33540
H          1.61730       -5.70600        7.60820
H          0.39410       -6.89970        8.11860
H          2.47470       -5.56560        9.77480
H          2.15110       -5.66890       12.13360
H          0.29090       -8.40100        9.87500
H         -0.14550       -8.18230       11.48220
