59

C          0.19560        0.38780       -0.11760
C          1.56970        0.16040       -0.01850
C          2.16460        0.01010        1.23700
C          1.38640        0.08190        2.40240
C          0.00540        0.30750        2.29100
C         -0.58740        0.45690        1.03820
C          2.03260       -0.00910        3.75150
S          2.32540        1.61800        4.51480
O          1.04950        2.36280        4.54760
O          3.03990        1.42390        5.77880
N          3.40930        2.28060        3.38240
C          3.76450        3.70570        3.56710
H          4.46570        3.90660        2.74240
C          2.51510        4.54620        3.23680
O          1.88890        4.25160        2.21740
N          2.13590        5.52760        4.07170
C          2.84850        5.86520        5.31490
H          3.60540        6.63700        5.08990
C          3.50520        4.63870        5.92190
C          4.45980        4.02310        4.89970
S          1.57910        6.61350        6.40410
C          0.76060        7.29470        4.91890
C          0.83470        6.18280        3.87390
H          0.05230        5.43050        4.05620
C          0.69550        6.75800        2.45400
O          1.53730        7.50660        1.98530
N         -0.45980        6.40200        1.84460
C         -0.71290        6.73170        0.45090
C          0.04050        5.84490       -0.55380
C         -0.46020        4.39740       -0.65410
N         -0.40590        3.68940        0.60910
C         -1.51780        3.47930        1.39810
N         -2.74270        3.33400        1.03190
N         -1.22680        3.48590        2.76640
H         -0.26800        0.52200       -1.09720
H          2.18390        0.10270       -0.92000
H          3.24080       -0.16600        1.31530
H         -0.60150        0.38530        3.19500
H         -1.65550        0.66950        0.96600
H          3.01720       -0.49410        3.74080
H          1.39830       -0.49810        4.50570
H          2.93910        2.20540        2.47190
H          4.05550        4.92720        6.82990
H          2.72830        3.91980        6.21680
H          5.27340        4.73790        4.69750
H          4.91790        3.10710        5.29390
H         -0.27760        7.55850        5.15740
H          1.29390        8.18740        4.55970
H         -0.98550        5.64170        2.27260
H         -0.40270        7.77600        0.30000
H         -1.79960        6.67090        0.28130
H          1.10930        5.85470       -0.28420
H         -0.03430        6.30900       -1.55260
H          0.13660        3.86100       -1.41370
H         -1.49960        4.38700       -1.01890
H          0.45840        3.83850        1.12740
H         -2.83200        3.38510        0.01670
H         -0.30830        3.15160        3.05820
H         -1.97980        3.08090        3.31390
