59
rmsd124.gzmat
C          0.00000        0.00000        0.00000
C          1.39350        0.00000        0.00000
C          2.09300        0.00000        1.20470
C          1.39820       -0.00510        2.41640
C          0.00030       -0.02090        2.41520
C         -0.69450       -0.01410        1.20860
C          2.14680        0.02380        3.70700
S          2.20160       -1.60770        4.44050
O          0.84110       -2.01760        4.71970
O          3.14020       -2.44150        3.74500
N          2.95720       -1.26590        5.98190
C          2.11270       -1.00580        7.14580
H          1.11420       -0.58750        6.82090
C          1.79420       -2.30350        7.90700
O          1.97840       -3.40910        7.43710
N          1.19560       -2.14370        9.13480
C          1.24930       -0.84970        9.81310
H          0.39870       -0.20370        9.47760
C          2.60120       -0.18300        9.53980
C          2.81760        0.04320        8.04020
S          1.03370       -1.21590       11.62050
C          0.86980       -3.03050       11.39050
C          0.67230       -3.28370        9.89850
H          1.20430       -4.22550        9.57780
C         -0.83950       -3.42420        9.56770
O         -1.70390       -3.22910       10.39920
N         -1.11340       -3.79240        8.28680
C         -2.50070       -3.90090        7.81330
C         -2.60980       -5.01490        6.75840
C         -1.96410       -4.63080        5.40780
N         -0.50300       -4.57280        5.52140
C          0.24380       -5.77080        5.45430
N         -0.18290       -6.99500        5.52580
N          1.62590       -5.54710        5.32420
H         -0.54460        0.00530       -0.94210
H          1.93700       -0.00330       -0.94300
H          3.18190       -0.00710        1.19540
H         -0.54950       -0.06000        3.35660
H         -1.78300       -0.02540        1.20890
H          1.68020        0.74680        4.40970
H          3.18020        0.40790        3.56440
H          3.75350       -1.86920        6.20660
H          2.67610        0.78120       10.08110
H          3.42720       -0.80720        9.94420
H          2.46650        1.05190        7.74940
H          3.90670        0.05150        7.82370
H          1.76770       -3.54010       11.78050
H         -0.00130       -3.38900       11.98400
H         -0.40060       -3.96450        7.58100
H         -2.81910       -2.92200        7.38900
H         -3.17510       -4.11340        8.67760
H         -3.67560       -5.26070        6.59670
H         -2.13700       -5.93840        7.15330
H         -2.33080       -3.63010        5.08350
H         -2.28460       -5.35180        4.62210
H         -0.06880       -3.71190        5.17560
H         -1.15970       -7.20270        5.50360
H          1.97680       -4.66850        5.66150
H          2.21210       -6.33670        5.54030
