rmsd124.gzmat
 OpenBabel08211713413D

 59 61  0  0  1  0  0  0  0  0999 V2000
    0.0000    0.0000    0.0000 C   0  0  0  0  0  0  0  0  0  0  0  0
    1.3935    0.0000    0.0000 C   0  0  0  0  0  0  0  0  0  0  0  0
    2.0930    0.0000    1.2047 C   0  0  0  0  0  0  0  0  0  0  0  0
    1.3982   -0.0051    2.4164 C   0  0  0  0  0  0  0  0  0  0  0  0
    0.0003   -0.0209    2.4152 C   0  0  0  0  0  0  0  0  0  0  0  0
   -0.6945   -0.0141    1.2086 C   0  0  0  0  0  0  0  0  0  0  0  0
    2.1468    0.0238    3.7070 C   0  0  0  0  0  0  0  0  0  0  0  0
    2.2016   -1.6077    4.4405 S   0  0  0  0  0  0  0  0  0  0  0  0
    0.8411   -2.0176    4.7197 O   0  0  0  0  0  0  0  0  0  0  0  0
    3.1402   -2.4415    3.7450 O   0  0  0  0  0  0  0  0  0  0  0  0
    2.9572   -1.2659    5.9819 N   0  0  0  0  0  0  0  0  0  0  0  0
    2.1127   -1.0058    7.1458 C   0  0  1  0  0  0  0  0  0  0  0  0
    1.1142   -0.5875    6.8209 H   0  0  0  0  0  0  0  0  0  0  0  0
    1.7942   -2.3035    7.9070 C   0  0  0  0  0  0  0  0  0  0  0  0
    1.9784   -3.4091    7.4371 O   0  0  0  0  0  0  0  0  0  0  0  0
    1.1956   -2.1437    9.1348 N   0  0  0  0  0  0  0  0  0  0  0  0
    1.2493   -0.8497    9.8131 C   0  0  2  0  0  0  0  0  0  0  0  0
    0.3987   -0.2037    9.4776 H   0  0  0  0  0  0  0  0  0  0  0  0
    2.6012   -0.1830    9.5398 C   0  0  0  0  0  0  0  0  0  0  0  0
    2.8176    0.0432    8.0402 C   0  0  0  0  0  0  0  0  0  0  0  0
    1.0337   -1.2159   11.6205 S   0  0  0  0  0  0  0  0  0  0  0  0
    0.8698   -3.0305   11.3905 C   0  0  0  0  0  0  0  0  0  0  0  0
    0.6723   -3.2837    9.8985 C   0  0  1  0  0  0  0  0  0  0  0  0
    1.2043   -4.2255    9.5778 H   0  0  0  0  0  0  0  0  0  0  0  0
   -0.8395   -3.4242    9.5677 C   0  0  0  0  0  0  0  0  0  0  0  0
   -1.7039   -3.2291   10.3992 O   0  0  0  0  0  0  0  0  0  0  0  0
   -1.1134   -3.7924    8.2868 N   0  0  0  0  0  0  0  0  0  0  0  0
   -2.5007   -3.9009    7.8133 C   0  0  0  0  0  0  0  0  0  0  0  0
   -2.6098   -5.0149    6.7584 C   0  0  0  0  0  0  0  0  0  0  0  0
   -1.9641   -4.6308    5.4078 C   0  0  0  0  0  0  0  0  0  0  0  0
   -0.5030   -4.5728    5.5214 N   0  0  0  0  0  0  0  0  0  0  0  0
    0.2438   -5.7708    5.4543 C   0  0  0  0  0  0  0  0  0  0  0  0
   -0.1829   -6.9950    5.5258 N   0  0  0  0  0  0  0  0  0  0  0  0
    1.6259   -5.5471    5.3242 N   0  0  0  0  0  0  0  0  0  0  0  0
   -0.5446    0.0053   -0.9421 H   0  0  0  0  0  0  0  0  0  0  0  0
    1.9370   -0.0033   -0.9430 H   0  0  0  0  0  0  0  0  0  0  0  0
    3.1819   -0.0071    1.1954 H   0  0  0  0  0  0  0  0  0  0  0  0
   -0.5495   -0.0600    3.3566 H   0  0  0  0  0  0  0  0  0  0  0  0
   -1.7830   -0.0254    1.2089 H   0  0  0  0  0  0  0  0  0  0  0  0
    1.6802    0.7468    4.4097 H   0  0  0  0  0  0  0  0  0  0  0  0
    3.1802    0.4079    3.5644 H   0  0  0  0  0  0  0  0  0  0  0  0
    3.7535   -1.8692    6.2066 H   0  0  0  0  0  0  0  0  0  0  0  0
    2.6761    0.7812   10.0811 H   0  0  0  0  0  0  0  0  0  0  0  0
    3.4272   -0.8072    9.9442 H   0  0  0  0  0  0  0  0  0  0  0  0
    2.4665    1.0519    7.7494 H   0  0  0  0  0  0  0  0  0  0  0  0
    3.9067    0.0515    7.8237 H   0  0  0  0  0  0  0  0  0  0  0  0
    1.7677   -3.5401   11.7805 H   0  0  0  0  0  0  0  0  0  0  0  0
   -0.0013   -3.3890   11.9840 H   0  0  0  0  0  0  0  0  0  0  0  0
   -0.4006   -3.9645    7.5810 H   0  0  0  0  0  0  0  0  0  0  0  0
   -2.8191   -2.9220    7.3890 H   0  0  0  0  0  0  0  0  0  0  0  0
   -3.1751   -4.1134    8.6776 H   0  0  0  0  0  0  0  0  0  0  0  0
   -3.6756   -5.2607    6.5967 H   0  0  0  0  0  0  0  0  0  0  0  0
   -2.1370   -5.9384    7.1533 H   0  0  0  0  0  0  0  0  0  0  0  0
   -2.3308   -3.6301    5.0835 H   0  0  0  0  0  0  0  0  0  0  0  0
   -2.2846   -5.3518    4.6221 H   0  0  0  0  0  0  0  0  0  0  0  0
   -0.0688   -3.7119    5.1756 H   0  0  0  0  0  0  0  0  0  0  0  0
   -1.1597   -7.2027    5.5036 H   0  0  0  0  0  0  0  0  0  0  0  0
    1.9768   -4.6685    5.6615 H   0  0  0  0  0  0  0  0  0  0  0  0
    2.2121   -6.3367    5.5403 H   0  0  0  0  0  0  0  0  0  0  0  0
  1  6  1  0  0  0  0
  2  1  2  0  0  0  0
  2  3  1  0  0  0  0
  3  4  2  0  0  0  0
  4  7  1  0  0  0  0
  5  4  1  0  0  0  0
  5 38  1  0  0  0  0
  6 39  1  0  0  0  0
  6  5  2  0  0  0  0
  7 40  1  0  0  0  0
  7  8  1  0  0  0  0
  8  9  2  0  0  0  0
  8 11  1  0  0  0  0
 10  8  2  0  0  0  0
 11 42  1  0  0  0  0
 11 12  1  0  0  0  0
 12 13  1  6  0  0  0
 12 14  1  0  0  0  0
 12 20  1  0  0  0  0
 14 16  1  0  0  0  0
 15 14  2  0  0  0  0
 16 17  1  0  0  0  0
 16 23  1  0  0  0  0
 17 18  1  6  0  0  0
 17 21  1  0  0  0  0
 19 17  1  0  0  0  0
 19 44  1  0  0  0  0
 19 43  1  0  0  0  0
 20 19  1  0  0  0  0
 22 21  1  0  0  0  0
 22 47  1  0  0  0  0
 22 48  1  0  0  0  0
 23 24  1  6  0  0  0
 23 22  1  0  0  0  0
 25 23  1  0  0  0  0
 25 26  2  0  0  0  0
 27 25  1  0  0  0  0
 28 27  1  0  0  0  0
 28 51  1  0  0  0  0
 29 53  1  0  0  0  0
 29 28  1  0  0  0  0
 30 31  1  0  0  0  0
 30 29  1  0  0  0  0
 32 31  1  0  0  0  0
 32 33  1  0  0  0  0
 34 32  2  0  0  0  0
 34 59  1  0  0  0  0
 34 58  1  0  0  0  0
 35  1  1  0  0  0  0
 36  2  1  0  0  0  0
 37  3  1  0  0  0  0
 41  7  1  0  0  0  0
 45 20  1  0  0  0  0
 46 20  1  0  0  0  0
 49 27  1  0  0  0  0
 50 28  1  0  0  0  0
 52 29  1  0  0  0  0
 54 30  1  0  0  0  0
 55 30  1  0  0  0  0
 56 31  1  0  0  0  0
 57 33  1  0  0  0  0
M  RAD  1  33   2
M  END
$$$$
