36
rmsd112.gzmat
C          0.00000        0.00000        0.00000
C          1.41340        0.00000        0.00000
C          2.13660        0.00000        1.17740
C          1.40720        0.00150        2.37100
C         -0.03260       -0.00080        2.37550
C         -0.74010        0.00000        1.16980
N         -0.48550       -0.01030        3.69840
C          0.60740       -0.01010        4.46820
C          0.62640       -0.02060        5.95490
C          1.53650       -1.08890        6.44240
N          1.08060       -2.26130        7.06580
H          0.13630       -2.52590        7.23150
C          2.21380       -3.03130        7.34860
C          2.37780       -4.28060        7.95220
C          3.67450       -4.74580        8.08290
C          4.78480       -4.00020        7.62820
C          4.63610       -2.76480        7.02490
C          3.33590       -2.26840        6.87940
N          2.87010       -1.07490        6.31980
N          1.79220        0.01650        3.70850
H          2.72290       -0.06920        4.07740
C         -0.69990        0.02090       -1.31390
N         -0.66420        0.95400       -2.20620
N         -1.52560       -1.08340       -1.55590
H          1.93720       -0.00180       -0.95790
H          3.22240       -0.00140        1.18250
H         -1.83110        0.00050        1.16730
H         -0.41430       -0.13630        6.34740
H          0.96870        0.97730        6.33940
H          1.52650       -4.85640        8.29940
H          3.85420       -5.71560        8.54830
H          5.78160       -4.41990        7.75960
H          5.48490       -2.18350        6.67080
H         -0.17920        1.81320       -2.02770
H         -1.28250       -1.95170       -1.12620
H         -1.93340       -1.15470       -2.47190
