36

C          0.02070       -0.18820       -0.16360
C          1.40460        0.11690       -0.12230
C          2.06740        0.38580        1.07090
C          1.30770        0.34420        2.24500
C         -0.08310        0.04090        2.23220
C         -0.72720       -0.23160        1.01890
N         -0.58740        0.08500        3.52230
C          0.44020        0.39260        4.27750
C          0.38800        0.50480        5.77360
C          1.44380        1.37730        6.38390
N          1.24110        2.04110        7.57120
H          0.38010        2.05270        8.10280
C          2.41560        2.70400        7.88840
C          2.78890        3.52690        8.95430
C          4.08920        4.03120        8.93310
C          4.98220        3.72510        7.88460
C          4.60380        2.90550        6.82350
C          3.30150        2.38720        6.82590
N          2.65910        1.55970        5.91700
N          1.60850        0.55230        3.57300
H          2.46710        0.87370        4.02750
C         -0.62980       -0.44480       -1.48760
N         -0.31270        0.11270       -2.59930
N         -1.68710       -1.33540       -1.45100
H          1.96610        0.11900       -1.05880
H          3.13600        0.60920        1.08480
H         -1.79630       -0.44590        0.99890
H          0.48100       -0.50980        6.20710
H         -0.61670        0.85880        6.04730
H          2.10030        3.76700        9.76700
H          4.42350        4.67820        9.74710
H          5.99140        4.14220        7.90890
H          5.29100        2.66620        6.01010
H          0.39990        0.82830       -2.44430
H         -1.62770       -2.09860       -0.78700
H         -2.04560       -1.58570       -2.36700
