36

C          0.01890        0.21650       -0.19780
C          1.42020        0.01300       -0.12760
C          2.06510       -0.28600        1.06820
C          1.26980       -0.37610        2.21560
C         -0.14000       -0.18370        2.17240
C         -0.76730        0.11170        0.95560
N         -0.67650       -0.33930        3.44060
C          0.34950       -0.61110        4.21160
C          0.26230       -0.81120        5.69680
C          1.36830       -1.62640        6.29710
N          1.18870       -2.35860        7.44730
H          0.31860       -2.46030        7.95390
C          2.40360       -2.94200        7.76880
C          2.81370       -3.78180        8.80760
C          4.15000       -4.18170        8.80170
C          5.04230       -3.75870        7.79410
C          4.62710       -2.92260        6.75990
C          3.28820       -2.50810        6.74750
N          2.60570       -1.69180        5.85790
N          1.54660       -0.63980        3.53900
H          2.41480       -0.91640        4.00450
C         -0.60260        0.55940       -1.51630
N         -0.05390        1.25370       -2.44570
N         -1.89700        0.10210       -1.68330
H          2.00280        0.07540       -1.04910
H          3.14420       -0.44890        1.10200
H         -1.84410        0.28080        0.91780
H         -0.71710       -1.26070        5.91700
H          0.25650        0.18220        6.18600
H          2.12590       -4.11220        9.58870
H          4.51380       -4.83770        9.59570
H          6.08040       -4.09640        7.82910
H          5.31370       -2.59280        5.97820
H          0.84670        1.61780       -2.12900
H         -2.13420       -0.78500       -1.25490
H         -2.26510        0.24290       -2.61870
