rmsd240.gzmat
 OpenBabel08211713413D

 36 39  0  0  1  0  0  0  0  0999 V2000
    0.0000    0.0000    0.0000 C   0  0  0  0  0  0  0  0  0  0  0  0
    1.4130    0.0000    0.0000 C   0  0  0  0  0  0  0  0  0  0  0  0
    2.1366    0.0000    1.1776 C   0  0  0  0  0  0  0  0  0  0  0  0
    1.4076    0.0065    2.3711 C   0  0  1  0  0  0  0  0  0  0  0  0
   -0.0328    0.0143    2.3758 C   0  0  0  0  0  0  0  0  0  0  0  0
   -0.7397    0.0072    1.1705 C   0  0  0  0  0  0  0  0  0  0  0  0
   -0.4852    0.0297    3.6990 N   0  0  0  0  0  0  0  0  0  0  0  0
    0.6087    0.0297    4.4684 C   0  0  0  0  0  0  0  0  0  0  0  0
    0.6235    0.0352    5.9560 C   0  0  0  0  0  0  0  0  0  0  0  0
    1.5669    1.0638    6.4665 C   0  0  0  0  0  0  0  0  0  0  0  0
    1.1668    2.1261    7.2929 N   0  0  0  0  0  0  0  0  0  0  0  0
    0.2442    2.3363    7.6001 H   0  0  0  0  0  0  0  0  0  0  0  0
    2.3100    2.8944    7.5404 C   0  0  2  0  0  0  0  0  0  0  0  0
    2.5184    4.0633    8.2761 C   0  0  0  0  0  0  0  0  0  0  0  0
    3.8080    4.5648    8.2992 C   0  0  0  0  0  0  0  0  0  0  0  0
    4.8697    3.9276    7.6200 C   0  0  0  0  0  0  0  0  0  0  0  0
    4.6786    2.7668    6.8926 C   0  0  0  0  0  0  0  0  0  0  0  0
    3.3830    2.2406    6.8454 C   0  0  0  0  0  0  0  0  0  0  0  0
    2.8778    1.1108    6.1948 N   0  0  0  0  0  0  0  0  0  0  0  0
    1.7929   -0.0078    3.7083 N   0  0  0  0  0  0  0  0  0  0  0  0
    2.7218    0.1027    4.0793 H   0  0  0  0  0  0  0  0  0  0  0  0
   -0.7141   -0.0401   -1.3054 C   0  0  0  0  0  0  0  0  0  0  0  0
   -1.4760   -0.9841   -1.7488 N   0  0  0  0  0  0  0  0  0  0  0  0
   -0.4632    1.0496   -2.1496 N   0  0  0  0  0  0  0  0  0  0  0  0
    1.9328   -0.0022   -0.9613 H   0  0  0  0  0  0  0  0  0  0  0  0
    3.2223   -0.0039    1.1824 H   0  0  0  0  0  0  0  0  0  0  0  0
   -1.8293    0.0073    1.1735 H   0  0  0  0  0  0  0  0  0  0  0  0
    0.9242   -0.9783    6.3352 H   0  0  0  0  0  0  0  0  0  0  0  0
   -0.4167    0.1878    6.3390 H   0  0  0  0  0  0  0  0  0  0  0  0
    1.7053    4.5536    8.8005 H   0  0  0  0  0  0  0  0  0  0  0  0
    4.0198    5.4794    8.8538 H   0  0  0  0  0  0  0  0  0  0  0  0
    5.8635    4.3712    7.6748 H   0  0  0  0  0  0  0  0  0  0  0  0
    5.4915    2.2673    6.3698 H   0  0  0  0  0  0  0  0  0  0  0  0
   -1.5949   -1.8308   -1.2236 H   0  0  0  0  0  0  0  0  0  0  0  0
   -0.2577    1.9306   -1.7256 H   0  0  0  0  0  0  0  0  0  0  0  0
   -1.0060    1.0997   -2.9947 H   0  0  0  0  0  0  0  0  0  0  0  0
  1  2  1  0  0  0  0
  1  6  2  0  0  0  0
  2  3  2  0  0  0  0
  3 26  1  0  0  0  0
  4  3  1  6  0  0  0
  4  5  1  0  0  0  0
  4 20  1  0  0  0  0
  5  7  2  0  0  0  0
  6 27  1  0  0  0  0
  6  5  1  0  0  0  0
  7  8  2  0  0  0  0
  8  9  1  0  0  0  0
  9 28  1  0  0  0  0
  9 29  1  0  0  0  0
  9 10  1  0  0  0  0
 10 11  1  0  0  0  0
 11 13  1  0  0  0  0
 11 12  1  0  0  0  0
 13 18  1  6  0  0  0
 13 14  1  0  0  0  0
 14 15  2  0  0  0  0
 14 30  1  0  0  0  0
 15 31  1  0  0  0  0
 16 32  1  0  0  0  0
 16 15  1  0  0  0  0
 17 16  2  0  0  0  0
 18 17  1  0  0  0  0
 19 10  2  0  0  0  0
 19 18  2  0  0  0  0
 20 21  1  0  0  0  0
 20  8  1  0  0  0  0
 22  1  1  0  0  0  0
 23 22  1  0  0  0  0
 23 34  1  0  0  0  0
 24 35  1  0  0  0  0
 24 22  2  0  0  0  0
 25  2  1  0  0  0  0
 33 17  1  0  0  0  0
 36 24  1  0  0  0  0
M  RAD  3   4   2  13   2  23   2
M  END
$$$$
