
     RDKit          3D

 36 39  0  0  0  0  0  0  0  0999 V2000
   -0.0565    0.2819   -0.1570 C   0  0  0  0  0  0  0  0  0  0  0  0
    1.3306   -0.0095   -0.1031 C   0  0  0  0  0  0  0  0  0  0  0  0
    1.9676   -0.3491    1.0879 C   0  0  0  0  0  0  0  0  0  0  0  0
    1.1820   -0.3823    2.2440 C   0  0  0  0  0  0  0  0  0  0  0  0
   -0.2121   -0.0919    2.2169 C   0  0  0  0  0  0  0  0  0  0  0  0
   -0.8312    0.2418    1.0075 C   0  0  0  0  0  0  0  0  0  0  0  0
   -0.7421   -0.2028    3.4928 N   0  0  0  0  0  0  0  0  0  0  0  0
    0.2717   -0.5430    4.2522 C   0  0  0  0  0  0  0  0  0  0  0  0
    0.1884   -0.7334    5.7390 C   0  0  0  0  0  0  0  0  0  0  0  0
    1.2406   -1.6247    6.3277 C   0  0  0  0  0  0  0  0  0  0  0  0
    1.0202   -2.3485    7.4760 N   0  0  0  0  0  0  0  0  0  0  0  0
    0.1486   -2.3942    7.9882 H   0  0  0  0  0  0  0  0  0  0  0  0
    2.1949   -3.0150    7.7853 C   0  0  0  0  0  0  0  0  0  0  0  0
    2.5545   -3.8860    8.8171 C   0  0  0  0  0  0  0  0  0  0  0  0
    3.8603   -4.3761    8.7989 C   0  0  0  0  0  0  0  0  0  0  0  0
    4.7718   -4.0099    7.7861 C   0  0  0  0  0  0  0  0  0  0  0  0
    4.4069   -3.1423    6.7589 C   0  0  0  0  0  0  0  0  0  0  0  0
    3.0993   -2.6373    6.7590 C   0  0  0  0  0  0  0  0  0  0  0  0
    2.4673   -1.7720    5.8784 N   0  0  0  0  0  0  0  0  0  0  0  0
    1.4559   -0.6584    3.5658 N   0  0  0  0  0  0  0  0  0  0  0  0
    2.3082   -0.9934    4.0220 H   0  0  0  0  0  0  0  0  0  0  0  0
   -0.7077    0.6175   -1.4631 C   0  0  0  0  0  0  0  0  0  0  0  0
   -1.9014    0.3003   -1.8088 N   0  0  0  0  0  0  0  0  0  0  0  0
    0.1031    1.2933   -2.3596 N   0  0  0  0  0  0  0  0  0  0  0  0
    1.9024    0.0114   -1.0323 H   0  0  0  0  0  0  0  0  0  0  0  0
    3.0337   -0.5841    1.1102 H   0  0  0  0  0  0  0  0  0  0  0  0
   -1.8954    0.4823    0.9838 H   0  0  0  0  0  0  0  0  0  0  0  0
   -0.8179   -1.1115    5.9716 H   0  0  0  0  0  0  0  0  0  0  0  0
    0.2597    0.2587    6.2256 H   0  0  0  0  0  0  0  0  0  0  0  0
    1.8516   -4.1727    9.6020 H   0  0  0  0  0  0  0  0  0  0  0  0
    4.1844   -5.0595    9.5869 H   0  0  0  0  0  0  0  0  0  0  0  0
    5.7846   -4.4179    7.8114 H   0  0  0  0  0  0  0  0  0  0  0  0
    5.1083   -2.8564    5.9732 H   0  0  0  0  0  0  0  0  0  0  0  0
   -2.3285   -0.2934   -1.0951 H   0  0  0  0  0  0  0  0  0  0  0  0
    0.7648    1.9558   -1.9714 H   0  0  0  0  0  0  0  0  0  0  0  0
   -0.3879    1.6154   -3.1880 H   0  0  0  0  0  0  0  0  0  0  0  0
  1  2  2  0
  1  6  1  0
  1 22  1  0
  2  3  1  0
  2 25  1  0
  3  4  2  0
  3 26  1  0
  4  5  1  0
  4 20  1  0
  5  6  2  0
  5  7  1  0
  6 27  1  0
  7  8  2  0
  8  9  1  0
  8 20  1  0
  9 10  1  0
  9 28  1  0
  9 29  1  0
 10 11  1  0
 10 19  2  0
 11 12  1  0
 11 13  1  0
 13 14  2  0
 13 18  1  0
 14 15  1  0
 14 30  1  0
 15 16  2  0
 15 31  1  0
 16 17  1  0
 16 32  1  0
 17 18  2  0
 17 33  1  0
 18 19  1  0
 20 21  1  0
 22 23  2  0
 22 24  1  0
 23 34  1  0
 24 35  1  0
 24 36  1  0
M  END

