rmsd203.gzmat
 OpenBabel08211713413D

 36 39  0  0  1  0  0  0  0  0999 V2000
    0.0000    0.0000    0.0000 C   0  0  0  0  0  0  0  0  0  0  0  0
    1.4127    0.0000    0.0000 C   0  0  0  0  0  0  0  0  0  0  0  0
    2.1363    0.0000    1.1781 C   0  0  0  0  0  0  0  0  0  0  0  0
    1.4074    0.0039    2.3714 C   0  0  2  0  0  0  0  0  0  0  0  0
   -0.0328    0.0097    2.3746 C   0  0  0  0  0  0  0  0  0  0  0  0
   -0.7404    0.0055    1.1698 C   0  0  0  0  0  0  0  0  0  0  0  0
   -0.4871    0.0122    3.6971 N   0  0  0  0  0  0  0  0  0  0  0  0
    0.6049    0.0068    4.4680 C   0  0  0  0  0  0  0  0  0  0  0  0
    0.6207    0.0044    5.9544 C   0  0  0  0  0  0  0  0  0  0  0  0
    1.4580   -1.1170    6.4531 C   0  0  0  0  0  0  0  0  0  0  0  0
    0.9197   -2.2318    7.1154 N   0  0  0  0  0  0  0  0  0  0  0  0
   -0.0417   -2.4229    7.2871 H   0  0  0  0  0  0  0  0  0  0  0  0
    1.9927   -3.0794    7.4092 C   0  0  2  0  0  0  0  0  0  0  0  0
    2.0631   -4.3200    8.0477 C   0  0  0  0  0  0  0  0  0  0  0  0
    3.3195   -4.8854    8.1764 C   0  0  0  0  0  0  0  0  0  0  0  0
    4.4798   -4.2435    7.6903 C   0  0  0  0  0  0  0  0  0  0  0  0
    4.4236   -3.0159    7.0551 C   0  0  0  0  0  0  0  0  0  0  0  0
    3.1657   -2.4206    6.9067 C   0  0  0  0  0  0  0  0  0  0  0  0
    2.7871   -1.2096    6.3174 N   0  0  0  0  0  0  0  0  0  0  0  0
    1.7917    0.0219    3.7100 N   0  0  0  0  0  0  0  0  0  0  0  0
    2.7175   -0.0994    4.0805 H   0  0  0  0  0  0  0  0  0  0  0  0
   -0.7151   -0.0321   -1.3058 C   0  0  0  0  0  0  0  0  0  0  0  0
   -1.3768   -1.0187   -1.8113 N   0  0  0  0  0  0  0  0  0  0  0  0
   -0.5914    1.1344   -2.0709 N   0  0  0  0  0  0  0  0  0  0  0  0
    1.9330   -0.0010   -0.9610 H   0  0  0  0  0  0  0  0  0  0  0  0
    3.2221   -0.0031    1.1828 H   0  0  0  0  0  0  0  0  0  0  0  0
   -1.8301    0.0052    1.1730 H   0  0  0  0  0  0  0  0  0  0  0  0
   -0.4274   -0.0463    6.3424 H   0  0  0  0  0  0  0  0  0  0  0  0
    1.0226    0.9802    6.3365 H   0  0  0  0  0  0  0  0  0  0  0  0
    1.1725   -4.8140    8.4213 H   0  0  0  0  0  0  0  0  0  0  0  0
    3.4263   -5.8544    8.6650 H   0  0  0  0  0  0  0  0  0  0  0  0
    5.4414   -4.7386    7.8239 H   0  0  0  0  0  0  0  0  0  0  0  0
    5.3134   -2.5152    6.6792 H   0  0  0  0  0  0  0  0  0  0  0  0
   -1.4004   -1.9091   -1.3499 H   0  0  0  0  0  0  0  0  0  0  0  0
   -0.4645    1.9991   -1.5879 H   0  0  0  0  0  0  0  0  0  0  0  0
   -1.1431    1.1878   -2.9097 H   0  0  0  0  0  0  0  0  0  0  0  0
  1  2  1  0  0  0  0
  1  6  2  0  0  0  0
  2  3  2  0  0  0  0
  3 26  1  0  0  0  0
  4  3  1  6  0  0  0
  4  5  1  0  0  0  0
  4 20  1  0  0  0  0
  5  7  2  0  0  0  0
  6 27  1  0  0  0  0
  6  5  1  0  0  0  0
  7  8  2  0  0  0  0
  8  9  1  0  0  0  0
  9 29  1  0  0  0  0
  9 28  1  0  0  0  0
  9 10  1  0  0  0  0
 10 11  1  0  0  0  0
 11 12  1  0  0  0  0
 11 13  1  0  0  0  0
 13 18  1  1  0  0  0
 13 14  1  0  0  0  0
 14 15  2  0  0  0  0
 14 30  1  0  0  0  0
 15 31  1  0  0  0  0
 16 32  1  0  0  0  0
 16 15  1  0  0  0  0
 17 16  2  0  0  0  0
 18 17  1  0  0  0  0
 19 10  2  0  0  0  0
 19 18  2  0  0  0  0
 20 21  1  0  0  0  0
 20  8  1  0  0  0  0
 22  1  1  0  0  0  0
 23 34  1  0  0  0  0
 23 22  1  0  0  0  0
 24 35  1  0  0  0  0
 24 22  2  0  0  0  0
 25  2  1  0  0  0  0
 33 17  1  0  0  0  0
 36 24  1  0  0  0  0
M  RAD  3   4   2  13   2  23   2
M  END
$$$$
