36
rmsd114.gzmat
C          0.00000        0.00000        0.00000
C          1.41340        0.00000        0.00000
C          2.13690        0.00000        1.17750
C          1.40850        0.00560        2.37180
C         -0.03170        0.01210        2.37560
C         -0.73970        0.00570        1.17000
N         -0.48450        0.02210        3.69760
C          0.60950        0.02000        4.46880
C          0.60420       -0.00840        5.95500
C          1.62460        0.89870        6.54110
N          1.30500        1.86550        7.50920
H          0.40130        2.09710        7.85380
C          2.50320        2.49940        7.85560
C          2.79900        3.51800        8.76450
C          4.12710        3.89160        8.87310
C          5.13910        3.28040        8.10070
C          4.85800        2.27710        7.19060
C          3.52400        1.87370        7.06390
N          2.93450        0.89060        6.26180
N          1.79270       -0.00970        3.70980
H          2.72190        0.08460        4.08440
C         -0.70270        0.01880       -1.31200
N         -0.64290        0.93590       -2.21970
N         -1.56400       -1.06240       -1.53360
H          1.93770       -0.00070       -0.95760
H          3.22270       -0.00340        1.18130
H         -1.83060        0.00800        1.16730
H          0.79370       -1.05960        6.30590
H         -0.42740        0.23130        6.32010
H          2.02280        3.99090        9.35650
H          4.40840        4.67920        9.57300
H          6.16770        3.61530        8.23440
H          5.63260        1.80420        6.59060
H         -0.12970        1.78170       -2.05690
H         -1.35260       -1.93140       -1.09000
H         -1.97930       -1.13340       -2.44580
