rmsd112.gzmat
 OpenBabel08211713413D

 36 39  0  0  1  0  0  0  0  0999 V2000
    0.0000    0.0000    0.0000 C   0  0  0  0  0  0  0  0  0  0  0  0
    1.4134    0.0000    0.0000 C   0  0  0  0  0  0  0  0  0  0  0  0
    2.1366    0.0000    1.1774 C   0  0  0  0  0  0  0  0  0  0  0  0
    1.4072    0.0015    2.3710 C   0  0  2  0  0  0  0  0  0  0  0  0
   -0.0326   -0.0008    2.3755 C   0  0  0  0  0  0  0  0  0  0  0  0
   -0.7401    0.0000    1.1698 C   0  0  0  0  0  0  0  0  0  0  0  0
   -0.4855   -0.0103    3.6984 N   0  0  0  0  0  0  0  0  0  0  0  0
    0.6074   -0.0101    4.4682 C   0  0  0  0  0  0  0  0  0  0  0  0
    0.6264   -0.0206    5.9549 C   0  0  0  0  0  0  0  0  0  0  0  0
    1.5365   -1.0889    6.4424 C   0  0  0  0  0  0  0  0  0  0  0  0
    1.0806   -2.2613    7.0658 N   0  0  0  0  0  0  0  0  0  0  0  0
    0.1363   -2.5259    7.2315 H   0  0  0  0  0  0  0  0  0  0  0  0
    2.2138   -3.0313    7.3486 C   0  0  2  0  0  0  0  0  0  0  0  0
    2.3778   -4.2806    7.9522 C   0  0  0  0  0  0  0  0  0  0  0  0
    3.6745   -4.7458    8.0829 C   0  0  0  0  0  0  0  0  0  0  0  0
    4.7848   -4.0002    7.6282 C   0  0  0  0  0  0  0  0  0  0  0  0
    4.6361   -2.7648    7.0249 C   0  0  0  0  0  0  0  0  0  0  0  0
    3.3359   -2.2684    6.8794 C   0  0  0  0  0  0  0  0  0  0  0  0
    2.8701   -1.0749    6.3198 N   0  0  0  0  0  0  0  0  0  0  0  0
    1.7922    0.0165    3.7085 N   0  0  0  0  0  0  0  0  0  0  0  0
    2.7229   -0.0692    4.0774 H   0  0  0  0  0  0  0  0  0  0  0  0
   -0.6999    0.0209   -1.3139 C   0  0  0  0  0  0  0  0  0  0  0  0
   -0.6642    0.9540   -2.2062 N   0  0  0  0  0  0  0  0  0  0  0  0
   -1.5256   -1.0834   -1.5559 N   0  0  0  0  0  0  0  0  0  0  0  0
    1.9372   -0.0018   -0.9579 H   0  0  0  0  0  0  0  0  0  0  0  0
    3.2224   -0.0014    1.1825 H   0  0  0  0  0  0  0  0  0  0  0  0
   -1.8311    0.0005    1.1673 H   0  0  0  0  0  0  0  0  0  0  0  0
   -0.4143   -0.1363    6.3474 H   0  0  0  0  0  0  0  0  0  0  0  0
    0.9687    0.9773    6.3394 H   0  0  0  0  0  0  0  0  0  0  0  0
    1.5265   -4.8564    8.2994 H   0  0  0  0  0  0  0  0  0  0  0  0
    3.8542   -5.7156    8.5483 H   0  0  0  0  0  0  0  0  0  0  0  0
    5.7816   -4.4199    7.7596 H   0  0  0  0  0  0  0  0  0  0  0  0
    5.4849   -2.1835    6.6708 H   0  0  0  0  0  0  0  0  0  0  0  0
   -0.1792    1.8132   -2.0277 H   0  0  0  0  0  0  0  0  0  0  0  0
   -1.2825   -1.9517   -1.1262 H   0  0  0  0  0  0  0  0  0  0  0  0
   -1.9334   -1.1547   -2.4719 H   0  0  0  0  0  0  0  0  0  0  0  0
  1  2  1  0  0  0  0
  1  6  2  0  0  0  0
  2  3  2  0  0  0  0
  3 26  1  0  0  0  0
  4  3  1  6  0  0  0
  4  5  1  0  0  0  0
  4 20  1  0  0  0  0
  5  7  2  0  0  0  0
  6  5  1  0  0  0  0
  7  8  2  0  0  0  0
  8  9  1  0  0  0  0
  9 29  1  0  0  0  0
  9 28  1  0  0  0  0
  9 10  1  0  0  0  0
 10 11  1  0  0  0  0
 11 12  1  0  0  0  0
 11 13  1  0  0  0  0
 13 18  1  1  0  0  0
 13 14  1  0  0  0  0
 14 15  2  0  0  0  0
 14 30  1  0  0  0  0
 15 31  1  0  0  0  0
 16 32  1  0  0  0  0
 16 15  1  0  0  0  0
 17 16  2  0  0  0  0
 18 17  1  0  0  0  0
 19 10  2  0  0  0  0
 19 18  2  0  0  0  0
 20 21  1  0  0  0  0
 20  8  1  0  0  0  0
 22  1  1  0  0  0  0
 23 34  1  0  0  0  0
 23 22  1  0  0  0  0
 24 22  2  0  0  0  0
 24 35  1  0  0  0  0
 25  2  1  0  0  0  0
 27  6  1  0  0  0  0
 33 17  1  0  0  0  0
 36 24  1  0  0  0  0
M  RAD  3   4   2  13   2  23   2
M  END
$$$$
