36
rmsd166.gzmat
C          0.00000        0.00000        0.00000
C          1.41360        0.00000        0.00000
C          2.13740        0.00000        1.17700
C          1.40880       -0.00090        2.37120
C         -0.03130       -0.00190        2.37600
C         -0.73890       -0.00120        1.17060
N         -0.48340       -0.00010        3.69870
C          0.61050        0.00290        4.46830
C          0.62170       -0.00510        5.95510
C          1.56400        1.01520        6.48340
N          1.15180        2.07870        7.30220
H          0.22260        2.29880        7.58090
C          2.29660        2.82930        7.59120
C          2.49600        3.98730        8.34680
C          3.79160        4.46740        8.42330
C          4.86610        3.82260        7.77170
C          4.68240        2.67510        7.02130
C          3.38210        2.16720        6.92420
N          2.88230        1.04940        6.24800
N          1.79470       -0.01850        3.70840
H          2.72260        0.09200        4.07990
C         -0.70020        0.02710       -1.31330
N         -0.62180        0.93880       -2.22500
N         -1.58020       -1.03980       -1.53370
H          1.93730       -0.00030       -0.95780
H          3.22330        0.00190        1.18240
H         -1.82990        0.00200        1.16930
H          0.91830       -1.02270        6.32640
H         -0.41990        0.14720        6.33540
H          1.67170        4.48480        8.84650
H          3.99850        5.36910        9.00050
H          5.86360        4.25040        7.86860
H          5.50540        2.17150        6.51890
H         -0.09570        1.77720       -2.06510
H         -1.38190       -1.91110       -1.08850
H         -1.99450       -1.10590       -2.44700
