rmsd130.gzmat
 OpenBabel08211713413D

 36 39  0  0  1  0  0  0  0  0999 V2000
    0.0000    0.0000    0.0000 C   0  0  0  0  0  0  0  0  0  0  0  0
    1.4137    0.0000    0.0000 C   0  0  0  0  0  0  0  0  0  0  0  0
    2.1371    0.0000    1.1772 C   0  0  0  0  0  0  0  0  0  0  0  0
    1.4076   -0.0026    2.3709 C   0  0  2  0  0  0  0  0  0  0  0  0
   -0.0323   -0.0116    2.3756 C   0  0  0  0  0  0  0  0  0  0  0  0
   -0.7396   -0.0061    1.1703 C   0  0  0  0  0  0  0  0  0  0  0  0
   -0.4846   -0.0303    3.6982 N   0  0  0  0  0  0  0  0  0  0  0  0
    0.6094   -0.0280    4.4679 C   0  0  0  0  0  0  0  0  0  0  0  0
    0.6208   -0.0351    5.9552 C   0  0  0  0  0  0  0  0  0  0  0  0
    1.5972   -1.0303    6.4697 C   0  0  0  0  0  0  0  0  0  0  0  0
    1.2270   -2.1284    7.2628 N   0  0  0  0  0  0  0  0  0  0  0  0
    0.3082   -2.3872    7.5424 H   0  0  0  0  0  0  0  0  0  0  0  0
    2.4003   -2.8419    7.5333 C   0  0  2  0  0  0  0  0  0  0  0  0
    2.6470   -4.0086    8.2612 C   0  0  0  0  0  0  0  0  0  0  0  0
    3.9607   -4.4399    8.3224 C   0  0  0  0  0  0  0  0  0  0  0  0
    5.0082   -3.7384    7.6854 C   0  0  0  0  0  0  0  0  0  0  0  0
    4.7777   -2.5823    6.9620 C   0  0  0  0  0  0  0  0  0  0  0  0
    3.4583   -2.1234    6.8809 C   0  0  0  0  0  0  0  0  0  0  0  0
    2.9157   -1.0094    6.2331 N   0  0  0  0  0  0  0  0  0  0  0  0
    1.7929    0.0118    3.7078 N   0  0  0  0  0  0  0  0  0  0  0  0
    2.7238   -0.0746    4.0783 H   0  0  0  0  0  0  0  0  0  0  0  0
   -0.6991    0.0362   -1.3132 C   0  0  0  0  0  0  0  0  0  0  0  0
   -0.5923    0.9396   -2.2303 N   0  0  0  0  0  0  0  0  0  0  0  0
   -1.6116   -1.0050   -1.5265 N   0  0  0  0  0  0  0  0  0  0  0  0
    1.9372   -0.0015   -0.9579 H   0  0  0  0  0  0  0  0  0  0  0  0
    3.2232    0.0011    1.1827 H   0  0  0  0  0  0  0  0  0  0  0  0
   -1.8305   -0.0047    1.1678 H   0  0  0  0  0  0  0  0  0  0  0  0
   -0.4146   -0.2219    6.3358 H   0  0  0  0  0  0  0  0  0  0  0  0
    0.8857    0.9889    6.3339 H   0  0  0  0  0  0  0  0  0  0  0  0
    1.8444   -4.5485    8.7529 H   0  0  0  0  0  0  0  0  0  0  0  0
    4.2042   -5.3476    8.8757 H   0  0  0  0  0  0  0  0  0  0  0  0
    6.0224   -4.1276    7.7732 H   0  0  0  0  0  0  0  0  0  0  0  0
    5.5778   -2.0354    6.4677 H   0  0  0  0  0  0  0  0  0  0  0  0
   -0.0405    1.7626   -2.0748 H   0  0  0  0  0  0  0  0  0  0  0  0
   -1.4264   -1.8843   -1.0897 H   0  0  0  0  0  0  0  0  0  0  0  0
   -2.0295   -1.0601   -2.4391 H   0  0  0  0  0  0  0  0  0  0  0  0
  1  2  1  0  0  0  0
  1  6  2  0  0  0  0
  2  3  2  0  0  0  0
  3 26  1  0  0  0  0
  4  3  1  6  0  0  0
  4  5  1  0  0  0  0
  4 20  1  0  0  0  0
  5  7  2  0  0  0  0
  6  5  1  0  0  0  0
  7  8  2  0  0  0  0
  8  9  1  0  0  0  0
  9 29  1  0  0  0  0
  9 28  1  0  0  0  0
  9 10  1  0  0  0  0
 10 11  1  0  0  0  0
 11 13  1  0  0  0  0
 11 12  1  0  0  0  0
 13 18  1  1  0  0  0
 13 14  1  0  0  0  0
 14 15  2  0  0  0  0
 14 30  1  0  0  0  0
 15 31  1  0  0  0  0
 16 32  1  0  0  0  0
 16 15  1  0  0  0  0
 17 16  2  0  0  0  0
 18 17  1  0  0  0  0
 19 10  2  0  0  0  0
 19 18  2  0  0  0  0
 20 21  1  0  0  0  0
 20  8  1  0  0  0  0
 22  1  1  0  0  0  0
 23 34  1  0  0  0  0
 23 22  1  0  0  0  0
 24 22  2  0  0  0  0
 24 35  1  0  0  0  0
 25  2  1  0  0  0  0
 27  6  1  0  0  0  0
 33 17  1  0  0  0  0
 36 24  1  0  0  0  0
M  RAD  3   4   2  13   2  23   2
M  END
$$$$
