
     RDKit          3D

 36 39  0  0  0  0  0  0  0  0999 V2000
    0.0189    0.2165   -0.1978 C   0  0  0  0  0  0  0  0  0  0  0  0
    1.4202    0.0130   -0.1276 C   0  0  0  0  0  0  0  0  0  0  0  0
    2.0651   -0.2860    1.0682 C   0  0  0  0  0  0  0  0  0  0  0  0
    1.2698   -0.3761    2.2156 C   0  0  0  0  0  0  0  0  0  0  0  0
   -0.1400   -0.1837    2.1724 C   0  0  0  0  0  0  0  0  0  0  0  0
   -0.7673    0.1117    0.9556 C   0  0  0  0  0  0  0  0  0  0  0  0
   -0.6765   -0.3393    3.4406 N   0  0  0  0  0  0  0  0  0  0  0  0
    0.3495   -0.6111    4.2116 C   0  0  0  0  0  0  0  0  0  0  0  0
    0.2623   -0.8112    5.6968 C   0  0  0  0  0  0  0  0  0  0  0  0
    1.3683   -1.6264    6.2971 C   0  0  0  0  0  0  0  0  0  0  0  0
    1.1887   -2.3586    7.4473 N   0  0  0  0  0  0  0  0  0  0  0  0
    0.3186   -2.4603    7.9539 H   0  0  0  0  0  0  0  0  0  0  0  0
    2.4036   -2.9420    7.7688 C   0  0  0  0  0  0  0  0  0  0  0  0
    2.8137   -3.7818    8.8076 C   0  0  0  0  0  0  0  0  0  0  0  0
    4.1500   -4.1817    8.8017 C   0  0  0  0  0  0  0  0  0  0  0  0
    5.0423   -3.7587    7.7941 C   0  0  0  0  0  0  0  0  0  0  0  0
    4.6271   -2.9226    6.7599 C   0  0  0  0  0  0  0  0  0  0  0  0
    3.2882   -2.5081    6.7475 C   0  0  0  0  0  0  0  0  0  0  0  0
    2.6057   -1.6918    5.8579 N   0  0  0  0  0  0  0  0  0  0  0  0
    1.5466   -0.6398    3.5390 N   0  0  0  0  0  0  0  0  0  0  0  0
    2.4148   -0.9164    4.0045 H   0  0  0  0  0  0  0  0  0  0  0  0
   -0.6026    0.5594   -1.5163 C   0  0  0  0  0  0  0  0  0  0  0  0
   -0.0539    1.2537   -2.4457 N   0  0  0  0  0  0  0  0  0  0  0  0
   -1.8970    0.1021   -1.6833 N   0  0  0  0  0  0  0  0  0  0  0  0
    2.0028    0.0754   -1.0491 H   0  0  0  0  0  0  0  0  0  0  0  0
    3.1442   -0.4489    1.1020 H   0  0  0  0  0  0  0  0  0  0  0  0
   -1.8441    0.2808    0.9178 H   0  0  0  0  0  0  0  0  0  0  0  0
   -0.7171   -1.2607    5.9170 H   0  0  0  0  0  0  0  0  0  0  0  0
    0.2565    0.1822    6.1860 H   0  0  0  0  0  0  0  0  0  0  0  0
    2.1259   -4.1122    9.5887 H   0  0  0  0  0  0  0  0  0  0  0  0
    4.5138   -4.8377    9.5957 H   0  0  0  0  0  0  0  0  0  0  0  0
    6.0804   -4.0964    7.8291 H   0  0  0  0  0  0  0  0  0  0  0  0
    5.3137   -2.5928    5.9782 H   0  0  0  0  0  0  0  0  0  0  0  0
    0.8467    1.6178   -2.1290 H   0  0  0  0  0  0  0  0  0  0  0  0
   -2.1342   -0.7850   -1.2549 H   0  0  0  0  0  0  0  0  0  0  0  0
   -2.2651    0.2429   -2.6187 H   0  0  0  0  0  0  0  0  0  0  0  0
  1  2  2  0
  1  6  1  0
  1 22  1  0
  2  3  1  0
  2 25  1  0
  3  4  2  0
  3 26  1  0
  4  5  1  0
  4 20  1  0
  5  6  2  0
  5  7  1  0
  6 27  1  0
  7  8  2  0
  8  9  1  0
  8 20  1  0
  9 10  1  0
  9 28  1  0
  9 29  1  0
 10 11  1  0
 10 19  2  0
 11 12  1  0
 11 13  1  0
 13 14  2  0
 13 18  1  0
 14 15  1  0
 14 30  1  0
 15 16  2  0
 15 31  1  0
 16 17  1  0
 16 32  1  0
 17 18  2  0
 17 33  1  0
 18 19  1  0
 20 21  1  0
 22 23  2  0
 22 24  1  0
 23 34  1  0
 24 35  1  0
 24 36  1  0
M  END

