36
rmsd113.gzmat
C          0.00000        0.00000        0.00000
C          1.41360        0.00000        0.00000
C          2.13780        0.00000        1.17670
C          1.40960        0.00240        2.37110
C         -0.03020        0.00090        2.37640
C         -0.73810        0.00000        1.17110
N         -0.48240       -0.00690        3.69940
C          0.61120       -0.00810        4.46890
C          0.62730       -0.01490        5.95630
C          1.55910       -1.05920        6.45600
N          1.13430       -2.18610        7.17770
H          0.20080       -2.42830        7.42280
C          2.27710       -2.95070        7.43650
C          2.46590       -4.16970        8.09210
C          3.76300       -4.64660        8.16230
C          4.85040       -3.93790        7.60520
C          4.67740       -2.73170        6.95110
C          3.37520       -2.22820        6.85740
N          2.88390       -1.06510        6.25690
N          1.79520        0.01990        3.70830
H          2.72450       -0.07900        4.07910
C         -0.69720        0.03140       -1.31470
N         -0.57140        0.91960       -2.24440
N         -1.62980       -0.99360       -1.51610
H          1.93660       -0.00230       -0.95840
H          3.22370       -0.00220        1.18090
H         -1.82910        0.00180        1.17060
H         -0.41350       -0.15330        6.34240
H          0.94350        0.99260        6.33890
H          1.63250       -4.71600        8.52030
H          3.96100       -5.59690        8.65880
H          5.84940       -4.36310        7.69700
H          5.50940       -2.17920        6.51960
H         -0.00370        1.73330       -2.09940
H         -1.47130       -1.86760       -1.05900
H         -2.04490       -1.05530       -2.43000
