36
rmsd203.gzmat
C          0.00000        0.00000        0.00000
C          1.41270        0.00000        0.00000
C          2.13630        0.00000        1.17810
C          1.40740        0.00390        2.37140
C         -0.03280        0.00970        2.37460
C         -0.74040        0.00550        1.16980
N         -0.48710        0.01220        3.69710
C          0.60490        0.00680        4.46800
C          0.62070        0.00440        5.95440
C          1.45800       -1.11700        6.45310
N          0.91970       -2.23180        7.11540
H         -0.04170       -2.42290        7.28710
C          1.99270       -3.07940        7.40920
C          2.06310       -4.32000        8.04770
C          3.31950       -4.88540        8.17640
C          4.47980       -4.24350        7.69030
C          4.42360       -3.01590        7.05510
C          3.16570       -2.42060        6.90670
N          2.78710       -1.20960        6.31740
N          1.79170        0.02190        3.71000
H          2.71750       -0.09940        4.08050
C         -0.71510       -0.03210       -1.30580
N         -1.37680       -1.01870       -1.81130
N         -0.59140        1.13440       -2.07090
H          1.93300       -0.00100       -0.96100
H          3.22210       -0.00310        1.18280
H         -1.83010        0.00520        1.17300
H         -0.42740       -0.04630        6.34240
H          1.02260        0.98020        6.33650
H          1.17250       -4.81400        8.42130
H          3.42630       -5.85440        8.66500
H          5.44140       -4.73860        7.82390
H          5.31340       -2.51520        6.67920
H         -1.40040       -1.90910       -1.34990
H         -0.46450        1.99910       -1.58790
H         -1.14310        1.18780       -2.90970
