50
rmsd182.gzmat
C          0.00000        0.00000        0.00000
C          1.52240        0.00000        0.00000
C          2.14160        0.00000        1.39790
C          2.39090        1.42830        1.90420
C          1.18860        2.35240        1.66320
C         -0.12240        1.69330        2.10540
C         -0.83620        0.92220        1.01470
H         -1.68300        0.35340        1.45650
C         -1.29100        1.68260       -0.25250
C         -0.59680        0.85220       -1.11170
C         -0.41990        0.71110       -2.51220
O         -0.87160        1.38300       -3.41820
O          0.39630       -0.35590       -2.78240
C          0.62260       -0.61800       -4.16090
N         -2.19120        2.66540       -0.38480
C         -2.66230        3.41800        0.78920
C         -1.84520        4.71110        0.97050
C         -1.90920        5.55800       -0.30710
C         -1.46360        4.73660       -1.52310
C         -2.28670        3.44190       -1.63300
C         -0.51910       -1.41760        0.01310
O          0.11110       -2.44140        0.05220
O         -1.88100       -1.41730       -0.00250
C         -2.50270       -2.69490       -0.06500
H          1.87920       -0.88630       -0.57420
H          1.89520        0.86680       -0.58380
H          1.49340       -0.55600        2.10040
H          3.09780       -0.55790        1.38430
H          3.28260        1.85130        1.40370
H          2.63510        1.40080        2.98190
H          1.13160        2.63010        0.59240
H          1.34000        3.30140        2.20950
H          0.07970        1.00900        2.95800
H         -0.80380        2.46400        2.51750
H          1.10430        0.24200       -4.63730
H         -0.32350       -0.84520       -4.66250
H          1.28530       -1.49040       -4.13880
H         -2.62250        2.78420        1.69980
H         -3.73830        3.66200        0.62530
H         -2.22810        5.28210        1.83420
H         -0.79200        4.46400        1.20700
H         -2.93670        5.93720       -0.46150
H         -1.27060        6.45430       -0.20040
H         -1.57250        5.32560       -2.45240
H         -0.38660        4.49110       -1.44760
H         -3.35980        3.66660       -1.82020
H         -1.94130        2.82650       -2.50250
H         -3.56980       -2.44930       -0.09030
H         -2.24560       -3.28540        0.81950
H         -2.19330       -3.21900       -0.97560
