50

C          0.05320        0.03500       -0.02120
C          1.59140        0.11140        0.00740
C          2.21990        0.06510        1.40330
C          2.38540        1.45910        2.02510
C          1.16770        2.37660        1.84400
C         -0.16230        1.68610        2.16040
C         -0.81290        0.91370        1.00600
H         -1.62530        0.29230        1.41690
C         -1.31800        1.65680       -0.22340
C         -0.62120        0.86480       -1.10730
C         -0.58930        0.65090       -2.53580
O         -1.12230        1.30810       -3.41480
O          0.14070       -0.46330       -2.82060
C          0.23500       -0.81670       -4.19320
N         -2.17370        2.69600       -0.28700
C         -2.56960        3.28510       -1.56850
C         -3.93640        2.75820       -2.01140
C         -4.98900        2.96980       -0.91790
C         -4.51240        2.40150        0.42390
C         -3.12690        2.94810        0.79170
C         -0.38110       -1.42680        0.01740
O          0.33750       -2.36730        0.25670
O         -1.70060       -1.56990       -0.22880
C         -2.19640       -2.90410       -0.21760
H          1.95810       -0.72460       -0.60200
H          1.90540        1.03030       -0.51090
H          1.60680       -0.58130        2.05200
H          3.20610       -0.42430        1.35720
H          3.26720        1.95470        1.58300
H          2.60410        1.35210        3.10220
H          1.13210        2.76810        0.81350
H          1.28850        3.25900        2.49330
H         -0.02650        0.99750        3.01170
H         -0.89130        2.43630        2.50710
H          0.85950       -1.71790       -4.23620
H          0.69440       -0.00590       -4.77950
H         -0.76000       -1.02260       -4.61800
H         -1.80980        3.04800       -2.32030
H         -2.61190        4.38100       -1.43080
H         -4.23550        3.25700       -2.94740
H         -3.82960        1.68540       -2.24400
H         -5.17930        4.05290       -0.80140
H         -5.94980        2.51410       -1.20740
H         -5.22840        2.63850        1.22850
H         -4.44600        1.30110        0.36040
H         -3.18540        4.03900        0.95840
H         -2.76380        2.49380        1.72040
H         -3.26950       -2.83590       -0.43620
H         -2.03460       -3.37770        0.76300
H         -1.68990       -3.51360       -0.98130
