50
rmsd186.gzmat
C          0.00000        0.00000        0.00000
C          1.52260        0.00000        0.00000
C          2.13780        0.00000        1.39950
C          2.38800        1.42730        1.90790
C          1.19800        2.36100        1.64400
C         -0.12300        1.71990        2.08210
C         -0.83480        0.94340        0.99460
H         -1.68880        0.38570        1.43710
C         -1.27690        1.68690       -0.28720
C         -0.59270        0.83140       -1.12940
C         -0.42700        0.65160       -2.52710
O         -0.89040        1.29520       -3.44730
O          0.39410       -0.41810       -2.77180
C          0.59900       -0.73670       -4.14130
N         -2.16140        2.68130       -0.43780
C         -2.63260        3.44960        0.72610
C         -1.81310        4.74270        0.89650
C         -1.86480        5.57310       -0.39250
C         -1.40620        4.73400       -1.59130
C         -2.23920        3.44470       -1.69530
C         -0.51660       -1.41680        0.05220
O          0.11660       -2.43450        0.15480
O         -1.87710       -1.42550       -0.00410
C         -2.48570       -2.71090       -0.04350
H          1.87880       -0.88770       -0.57210
H          1.89660        0.86550       -0.58470
H          1.48600       -0.55640        2.09880
H          3.09320       -0.55930        1.38960
H          3.29220        1.84320        1.42440
H          2.61100        1.39880        2.99030
H          1.15380        2.62660        0.56960
H          1.35460        3.31480        2.18020
H          0.06570        1.04130        2.94260
H         -0.79970        2.50110        2.48170
H          0.96420        0.13600       -4.69250
H         -0.33500       -1.09830       -4.58250
H          1.35380       -1.52920       -4.09720
H         -2.59560        2.82530        1.64360
H         -3.70760        3.69380        0.55720
H         -2.20090        5.32640        1.74970
H         -0.76210        4.49670        1.14470
H         -2.89160        5.94780       -0.56280
H         -1.22940        6.47240       -0.29080
H         -1.49560        5.31200       -2.52930
H         -0.33260        4.48080       -1.49620
H         -3.30870        3.67810       -1.89380
H         -1.89240        2.81680       -2.55490
H         -3.55100       -2.47820       -0.14530
H         -2.27740       -3.25660        0.88180
H         -2.11890       -3.27480       -0.90830
