50

C          0.02680        0.04140       -0.04340
C          1.56690        0.09600        0.00830
C          2.18580        0.01000        1.40660
C          2.36650        1.38640        2.06290
C          1.15940        2.32260        1.90120
C         -0.18040        1.62960        2.17050
C         -0.83330        0.94390        0.96500
H         -1.69340        0.35530        1.32400
C         -1.26090        1.72940       -0.27210
C         -0.59780        0.89100       -1.14220
C         -0.52320        0.69180       -2.56910
O         -0.99460        1.38250       -3.45850
O          0.17600       -0.44480       -2.84470
C          0.31050       -0.77970       -4.21830
N         -2.06210        2.80470       -0.37110
C         -2.67080        3.44400        0.78860
C         -2.02010        4.80330        1.06460
C         -2.07180        5.68630       -0.18900
C         -1.50670        4.95240       -1.41140
C         -2.17870        3.58860       -1.60230
C         -0.42800       -1.41360       -0.01350
O          0.27560       -2.36390        0.23360
O         -1.74420       -1.53770       -0.27910
C         -2.25940       -2.86450       -0.28210
H          1.92780       -0.73040       -0.61740
H          1.89850        1.02190       -0.48640
H          1.56270       -0.64490        2.03660
H          3.16650       -0.48960        1.35360
H          3.25610        1.88200        1.63690
H          2.57910        1.25010        3.13780
H          1.14260        2.75230        0.88500
H          1.27890        3.17910        2.58470
H         -0.05230        0.87680        2.96650
H         -0.89900        2.35580        2.57970
H          0.82520        0.02060       -4.77230
H         -0.67400       -0.93830       -4.68550
H          0.89990       -1.70480       -4.25260
H         -2.61040        2.77600        1.65490
H         -3.74550        3.58930        0.57160
H         -2.52700        5.29490        1.91150
H         -0.97060        4.63840        1.36450
H         -3.12360        5.96210       -0.38890
H         -1.52940        6.62990       -0.01660
H         -1.63750        5.55740       -2.32340
H         -0.42150        4.79310       -1.28490
H         -3.25380        3.72880       -1.82000
H         -1.74270        3.02110       -2.43340
H         -3.32820       -2.77930       -0.51480
H         -2.11770       -3.34560        0.69810
H         -1.75120       -3.47700       -1.04230
