50
rmsd154.gzmat
C          0.00000        0.00000        0.00000
C          1.52200        0.00000        0.00000
C          2.13530        0.00000        1.40050
C          2.38610        1.42760        1.90720
C          1.18900        2.35690        1.65840
C         -0.12800        1.70590        2.09450
C         -0.83810        0.93110        1.00430
H         -1.68660        0.36360        1.44410
C         -1.28930        1.67990       -0.27130
C         -0.59700        0.83860       -1.12100
C         -0.43050        0.67020       -2.52020
O         -0.88160        1.32930       -3.43580
O          0.37430       -0.40980       -2.77610
C          0.57470       -0.71010       -4.15050
N         -2.18950        2.66180       -0.41540
C         -2.65790        3.43110        0.74910
C         -1.83680        4.72410        0.91500
C         -1.89270        5.55430       -0.37450
C         -1.44280        4.71330       -1.57560
C         -2.27760        3.42470       -1.67270
C         -0.51890       -1.41620        0.05090
O          0.10020       -2.42670        0.25960
O         -1.86540       -1.42710       -0.14590
C         -2.47540       -2.71120       -0.19300
H          1.87850       -0.88770       -0.57120
H          1.89560        0.86640       -0.58350
H          1.48060       -0.55400        2.09930
H          3.08940       -0.56130        1.39300
H          3.28240        1.84700        1.41190
H          2.62350        1.39890        2.98650
H          1.13970        2.63320        0.58700
H          1.34210        3.30610        2.20410
H          0.06570        1.02450        2.95180
H         -0.80850        2.48170        2.49820
H          1.05060        0.13440       -4.66000
H         -0.38140       -0.94890       -4.62820
H          1.23400       -1.58460       -4.11640
H         -2.62040        2.80830        1.66730
H         -3.73320        3.67630        0.58200
H         -2.22010        5.30890        1.76920
H         -0.78510        4.47530        1.15730
H         -2.91900        5.93260       -0.53970
H         -1.25390        6.45150       -0.27600
H         -1.53750        5.28790       -2.51520
H         -0.36880        4.45930       -1.48670
H         -3.34850        3.65820       -1.86270
H         -1.93790        2.79560       -2.53460
H         -3.51260       -2.48150       -0.46080
H         -2.40680       -3.19470        0.78610
H         -1.99720       -3.33300       -0.95820
