50
rmsd140.gzmat
C          0.00000        0.00000        0.00000
C          1.52200        0.00000        0.00000
C          2.13140        0.00000        1.40210
C          2.38200        1.42870        1.90570
C          1.19220        2.36170        1.63690
C         -0.13030        1.72750        2.08100
C         -0.83860        0.92870        1.00620
H         -1.67550        0.35590        1.46000
C         -1.30520        1.67030       -0.26900
C         -0.60190        0.83720       -1.11970
C         -0.42850        0.67460       -2.51760
O         -0.85700        1.35010       -3.43220
O          0.35100       -0.42400       -2.77210
C          0.55890       -0.72410       -4.14500
N         -2.21470        2.63990       -0.40880
C         -2.75130        3.35880        0.75740
C         -2.05900        4.72420        0.92740
C         -2.20060        5.54980       -0.35760
C         -1.66460        4.76240       -1.55930
C         -2.35640        3.39190       -1.66650
C         -0.51100       -1.42030        0.03770
O          0.12610       -2.43600        0.13730
O         -1.87100       -1.43450       -0.02840
C         -2.47290       -2.72220       -0.08450
H          1.88010       -0.88730       -0.57140
H          1.89740        0.86520       -0.58400
H          1.47440       -0.55150        2.10050
H          3.08390       -0.56420        1.39760
H          3.28650        1.84180        1.42000
H          2.60560        1.40400        2.98800
H          1.14550        2.62060        0.56090
H          1.34980        3.31920        2.16620
H          0.05520        1.07130        2.95880
H         -0.80980        2.51830        2.45690
H          1.07540        0.10420       -4.64040
H         -0.39800       -0.92240       -4.63870
H          1.18240       -1.62410       -4.10660
H         -2.65290        2.74320        1.67610
H         -3.84550        3.50170        0.59200
H         -2.49620        5.26460        1.78550
H         -0.98790        4.58010        1.16770
H         -3.26000        5.82310       -0.52140
H         -1.65670        6.50730       -0.25630
H         -1.81960        5.32950       -2.49590
H         -0.56980        4.62410       -1.46890
H         -3.44230        3.51190       -1.87820
H         -1.93380        2.80570       -2.52230
H         -3.54240       -2.49310       -0.13940
H         -2.22750       -3.29710        0.81370
H         -2.13380       -3.25400       -0.98040
