rmsd150.gzmat
 OpenBabel08211713373D

 50 52  0  0  1  0  0  0  0  0999 V2000
    0.0000    0.0000    0.0000 C   0  0  1  0  0  0  0  0  0  0  0  0
    1.5223    0.0000    0.0000 C   0  0  0  0  0  0  0  0  0  0  0  0
    2.1395    0.0000    1.3987 C   0  0  0  0  0  0  0  0  0  0  0  0
    2.3877    1.4288    1.9038 C   0  0  0  0  0  0  0  0  0  0  0  0
    1.1860    2.3520    1.6567 C   0  0  0  0  0  0  0  0  0  0  0  0
   -0.1243    1.6960    2.1054 C   0  0  0  0  0  0  0  0  0  0  0  0
   -0.8378    0.9146    1.0211 C   0  0  1  0  0  0  0  0  0  0  0  0
   -1.6749    0.3370    1.4684 H   0  0  0  0  0  0  0  0  0  0  0  0
   -1.3041    1.6763   -0.2414 C   0  0  0  0  0  0  0  0  0  0  0  0
   -0.6013    0.8581   -1.1059 C   0  0  0  0  0  0  0  0  0  0  0  0
   -0.4128    0.7385   -2.5064 C   0  0  0  0  0  0  0  0  0  0  0  0
   -0.8920    1.3975   -3.4082 O   0  0  0  0  0  0  0  0  0  0  0  0
    0.4538   -0.2858   -2.7843 O   0  0  0  0  0  0  0  0  0  0  0  0
    0.7045   -0.5138   -4.1645 C   0  0  0  0  0  0  0  0  0  0  0  0
   -2.2101    2.6532   -0.3674 N   0  0  0  0  0  0  0  0  0  0  0  0
   -2.6921    3.3955    0.8087 C   0  0  0  0  0  0  0  0  0  0  0  0
   -1.9177    4.7166    0.9780 C   0  0  0  0  0  0  0  0  0  0  0  0
   -2.0179    5.5544   -0.3034 C   0  0  0  0  0  0  0  0  0  0  0  0
   -1.5454    4.7409   -1.5144 C   0  0  0  0  0  0  0  0  0  0  0  0
   -2.3317    3.4224   -1.6176 C   0  0  0  0  0  0  0  0  0  0  0  0
   -0.5153   -1.4198   -0.0010 C   0  0  0  0  0  0  0  0  0  0  0  0
    0.1183   -2.4421    0.0006 O   0  0  0  0  0  0  0  0  0  0  0  0
   -1.8771   -1.4258    0.0164 O   0  0  0  0  0  0  0  0  0  0  0  0
   -2.4936   -2.7052   -0.0624 C   0  0  0  0  0  0  0  0  0  0  0  0
    1.8801   -0.8861   -0.5741 H   0  0  0  0  0  0  0  0  0  0  0  0
    1.8953    0.8668   -0.5838 H   0  0  0  0  0  0  0  0  0  0  0  0
    1.4899   -0.5554    2.1003 H   0  0  0  0  0  0  0  0  0  0  0  0
    3.0955   -0.5581    1.3869 H   0  0  0  0  0  0  0  0  0  0  0  0
    3.2810    1.8510    1.4056 H   0  0  0  0  0  0  0  0  0  0  0  0
    2.6279    1.4032    2.9825 H   0  0  0  0  0  0  0  0  0  0  0  0
    1.1274    2.6204    0.5835 H   0  0  0  0  0  0  0  0  0  0  0  0
    1.3389    3.3051    2.1948 H   0  0  0  0  0  0  0  0  0  0  0  0
    0.0778    1.0203    2.9646 H   0  0  0  0  0  0  0  0  0  0  0  0
   -0.8062    2.4703    2.5101 H   0  0  0  0  0  0  0  0  0  0  0  0
    1.2429    0.3389   -4.5902 H   0  0  0  0  0  0  0  0  0  0  0  0
   -0.2338   -0.6756   -4.7055 H   0  0  0  0  0  0  0  0  0  0  0  0
    1.3216   -1.4188   -4.1551 H   0  0  0  0  0  0  0  0  0  0  0  0
   -2.6204    2.7681    1.7218 H   0  0  0  0  0  0  0  0  0  0  0  0
   -3.7774    3.6035    0.6562 H   0  0  0  0  0  0  0  0  0  0  0  0
   -2.3159    5.2789    1.8408 H   0  0  0  0  0  0  0  0  0  0  0  0
   -0.8555    4.5071    1.2100 H   0  0  0  0  0  0  0  0  0  0  0  0
   -3.0600    5.8921   -0.4566 H   0  0  0  0  0  0  0  0  0  0  0  0
   -1.4146    6.4757   -0.2034 H   0  0  0  0  0  0  0  0  0  0  0  0
   -1.6681    5.3214   -2.4472 H   0  0  0  0  0  0  0  0  0  0  0  0
   -0.4620    4.5270   -1.4346 H   0  0  0  0  0  0  0  0  0  0  0  0
   -3.4114    3.6159   -1.8022 H   0  0  0  0  0  0  0  0  0  0  0  0
   -1.9732    2.8140   -2.4870 H   0  0  0  0  0  0  0  0  0  0  0  0
   -3.5621   -2.4640   -0.0562 H   0  0  0  0  0  0  0  0  0  0  0  0
   -2.2120   -3.3172    0.8000 H   0  0  0  0  0  0  0  0  0  0  0  0
   -2.2045   -3.2056   -0.9934 H   0  0  0  0  0  0  0  0  0  0  0  0
  1  2  1  0  0  0  0
  1  7  1  0  0  0  0
  1 21  1  6  0  0  0
  2  3  1  0  0  0  0
  3  4  1  0  0  0  0
  3 27  1  0  0  0  0
  4 30  1  0  0  0  0
  5  4  1  0  0  0  0
  5  6  1  0  0  0  0
  5 32  1  0  0  0  0
  6 34  1  0  0  0  0
  6 33  1  0  0  0  0
  7  8  1  1  0  0  0
  7  6  1  0  0  0  0
  9  7  1  0  0  0  0
 10  9  2  0  0  0  0
 10  1  1  0  0  0  0
 11 10  1  0  0  0  0
 12 11  2  0  0  0  0
 13 11  1  0  0  0  0
 14 37  1  0  0  0  0
 14 13  1  0  0  0  0
 15  9  1  0  0  0  0
 15 16  1  0  0  0  0
 16 17  1  0  0  0  0
 16 38  1  0  0  0  0
 17 41  1  0  0  0  0
 17 40  1  0  0  0  0
 18 43  1  0  0  0  0
 18 17  1  0  0  0  0
 19 45  1  0  0  0  0
 19 18  1  0  0  0  0
 20 19  1  0  0  0  0
 20 15  1  0  0  0  0
 21 22  2  0  0  0  0
 21 23  1  0  0  0  0
 24 48  1  0  0  0  0
 24 23  1  0  0  0  0
 24 49  1  0  0  0  0
 25  2  1  0  0  0  0
 26  2  1  0  0  0  0
 28  3  1  0  0  0  0
 29  4  1  0  0  0  0
 31  5  1  0  0  0  0
 35 14  1  0  0  0  0
 36 14  1  0  0  0  0
 39 16  1  0  0  0  0
 42 18  1  0  0  0  0
 44 19  1  0  0  0  0
 46 20  1  0  0  0  0
 47 20  1  0  0  0  0
 50 24  1  0  0  0  0
M  END
$$$$
