33

O         -0.19100        0.80020       -1.11280
C          1.13490        0.61120       -0.96430
O          1.71890        0.87390        0.05890
C          1.78780        0.02270       -2.21280
H          1.48220        0.65650       -3.06310
N          3.23590       -0.00280       -2.12830
C          1.21700       -1.38120       -2.48750
C          1.82100       -1.98810       -3.74780
S          1.06470       -3.57620       -4.25150
C         -0.62140       -3.06340       -4.74440
C         -0.78500       -2.78950       -6.23720
H         -0.47450       -3.68670       -6.79550
O         -2.15240       -2.58550       -6.58730
C          0.03220       -1.63280       -6.83800
H          1.10400       -1.81950       -6.66200
O         -0.18250       -1.60260       -8.23570
C         -0.31530       -0.27830       -6.21910
O         -0.37830       -0.04090       -5.00600
N         -0.56210        0.69370       -7.10850
O         -0.78470        1.96880       -6.64140
H         -0.52070        1.15310       -0.26830
H          3.50640       -0.44550       -1.24760
H          3.59600        0.94920       -2.06370
H          0.12820       -1.28410       -2.59160
H          1.40790       -2.04340       -1.62530
H          2.88440       -2.21740       -3.59550
H          1.76460       -1.26620       -4.57270
H         -0.92160       -2.18670       -4.15480
H         -1.28870       -3.89840       -4.48440
H         -2.51860       -1.91790       -5.98820
H         -1.12140       -1.83310       -8.34860
H         -0.40340        0.60090       -8.10510
H         -0.74200        1.82350       -5.67020
