rmsd131.gzmat
 OpenBabel08211713433D

 33 32  0  0  1  0  0  0  0  0999 V2000
    0.0000    0.0000    0.0000 O   0  0  0  0  0  0  0  0  0  0  0  0
    1.3581    0.0000    0.0000 C   0  0  0  0  0  0  0  0  0  0  0  0
    1.9757    0.0000    1.0291 O   0  0  0  0  0  0  0  0  0  0  0  0
    1.8937   -0.0169   -1.4285 C   0  0  1  0  0  0  0  0  0  0  0  0
    2.2438   -1.0716   -1.6344 H   0  0  0  0  0  0  0  0  0  0  0  0
    0.9000    0.3342   -2.4486 N   0  0  0  0  0  0  0  0  0  0  0  0
    3.0918    0.9547   -1.4908 C   0  0  0  0  0  0  0  0  0  0  0  0
    3.8511    0.8203   -2.8039 C   0  0  0  0  0  0  0  0  0  0  0  0
    4.8671   -0.6989   -2.9238 S   0  0  0  0  0  0  0  0  0  0  0  0
    6.2263   -0.4188   -1.7433 C   0  0  0  0  0  0  0  0  0  0  0  0
    7.1955    0.6777   -2.1705 C   0  0  1  0  0  0  0  0  0  0  0  0
    6.7091    1.6834   -2.2261 H   0  0  0  0  0  0  0  0  0  0  0  0
    8.1677    0.8726   -1.1710 O   0  0  0  0  0  0  0  0  0  0  0  0
    7.9299    0.3788   -3.4968 C   0  0  1  0  0  0  0  0  0  0  0  0
    7.2299    0.2306   -4.3533 H   0  0  0  0  0  0  0  0  0  0  0  0
    8.7043    1.4880   -3.8804 O   0  0  0  0  0  0  0  0  0  0  0  0
    8.8984   -0.8014   -3.3493 C   0  0  0  0  0  0  0  0  0  0  0  0
    9.0201   -1.4520   -2.3305 O   0  0  0  0  0  0  0  0  0  0  0  0
    9.5318   -1.1718   -4.5307 N   0  0  0  0  0  0  0  0  0  0  0  0
   10.6379   -2.0115   -4.3790 O   0  0  0  0  0  0  0  0  0  0  0  0
   -0.4008   -0.0062    0.9045 H   0  0  0  0  0  0  0  0  0  0  0  0
    0.5072    1.2517   -2.3039 H   0  0  0  0  0  0  0  0  0  0  0  0
    0.1448   -0.3363   -2.4879 H   0  0  0  0  0  0  0  0  0  0  0  0
    3.7552    0.7860   -0.6147 H   0  0  0  0  0  0  0  0  0  0  0  0
    2.7323    1.9997   -1.3797 H   0  0  0  0  0  0  0  0  0  0  0  0
    4.4749    1.7125   -2.9872 H   0  0  0  0  0  0  0  0  0  0  0  0
    3.1331    0.7638   -3.6555 H   0  0  0  0  0  0  0  0  0  0  0  0
    6.7543   -1.3928   -1.6327 H   0  0  0  0  0  0  0  0  0  0  0  0
    5.8348   -0.1898   -0.7307 H   0  0  0  0  0  0  0  0  0  0  0  0
    8.6599    0.0315   -0.9988 H   0  0  0  0  0  0  0  0  0  0  0  0
    9.1247    1.9013   -3.0837 H   0  0  0  0  0  0  0  0  0  0  0  0
    9.7942   -0.4943   -5.2355 H   0  0  0  0  0  0  0  0  0  0  0  0
   10.2760   -2.8340   -3.9185 H   0  0  0  0  0  0  0  0  0  0  0  0
  1  2  1  0  0  0  0
  1 21  1  0  0  0  0
  2  3  2  0  0  0  0
  4  5  1  6  0  0  0
  4  2  1  0  0  0  0
  6 22  1  0  0  0  0
  6  4  1  0  0  0  0
  7  4  1  0  0  0  0
  7 25  1  0  0  0  0
  7 24  1  0  0  0  0
  8  7  1  0  0  0  0
  9  8  1  0  0  0  0
  9 10  1  0  0  0  0
 10 28  1  0  0  0  0
 10 29  1  0  0  0  0
 11 12  1  6  0  0  0
 11 10  1  0  0  0  0
 11 13  1  0  0  0  0
 13 30  1  0  0  0  0
 14 15  1  6  0  0  0
 14 17  1  0  0  0  0
 14 11  1  0  0  0  0
 16 14  1  0  0  0  0
 16 31  1  0  0  0  0
 17 18  2  0  0  0  0
 19 20  1  0  0  0  0
 19 17  1  0  0  0  0
 20 33  1  0  0  0  0
 23  6  1  0  0  0  0
 26  8  1  0  0  0  0
 27  8  1  0  0  0  0
 32 19  1  0  0  0  0
M  END
$$$$
