rmsd19.gzmat
 OpenBabel08211713433D

 33 32  0  0  1  0  0  0  0  0999 V2000
    0.0000    0.0000    0.0000 O   0  0  0  0  0  0  0  0  0  0  0  0
    1.3577    0.0000    0.0000 C   0  0  0  0  0  0  0  0  0  0  0  0
    1.9807    0.0000    1.0242 O   0  0  0  0  0  0  0  0  0  0  0  0
    1.8750   -0.0170   -1.4298 C   0  0  1  0  0  0  0  0  0  0  0  0
    2.4121   -1.0052   -1.5838 H   0  0  0  0  0  0  0  0  0  0  0  0
    0.8227    0.0668   -2.4594 N   0  0  0  0  0  0  0  0  0  0  0  0
    2.8696    1.1507   -1.6093 C   0  0  0  0  0  0  0  0  0  0  0  0
    4.2221    0.7917   -1.0049 C   0  0  0  0  0  0  0  0  0  0  0  0
    5.5469    1.8884   -1.6354 S   0  0  0  0  0  0  0  0  0  0  0  0
    6.4550    0.8411   -2.8282 C   0  0  0  0  0  0  0  0  0  0  0  0
    5.9034    0.8935   -4.2532 C   0  0  1  0  0  0  0  0  0  0  0  0
    5.1257    1.6816   -4.4062 H   0  0  0  0  0  0  0  0  0  0  0  0
    6.9209    1.3079   -5.1358 O   0  0  0  0  0  0  0  0  0  0  0  0
    5.3954   -0.4831   -4.7658 C   0  0  1  0  0  0  0  0  0  0  0  0
    5.3223   -0.4667   -5.8820 H   0  0  0  0  0  0  0  0  0  0  0  0
    6.3804   -1.4528   -4.5124 O   0  0  0  0  0  0  0  0  0  0  0  0
    4.0821   -0.8733   -4.1097 C   0  0  0  0  0  0  0  0  0  0  0  0
    4.0517   -1.6341   -3.1607 O   0  0  0  0  0  0  0  0  0  0  0  0
    2.8824   -0.4451   -4.6826 N   0  0  0  0  0  0  0  0  0  0  0  0
    3.0462    0.7151   -5.4515 O   0  0  0  0  0  0  0  0  0  0  0  0
   -0.4188   -0.0427    0.8925 H   0  0  0  0  0  0  0  0  0  0  0  0
    0.3239    0.9460   -2.4184 H   0  0  0  0  0  0  0  0  0  0  0  0
    0.1436   -0.6789   -2.3563 H   0  0  0  0  0  0  0  0  0  0  0  0
    2.4686    2.0795   -1.1559 H   0  0  0  0  0  0  0  0  0  0  0  0
    2.9568    1.3833   -2.6931 H   0  0  0  0  0  0  0  0  0  0  0  0
    4.4803   -0.2697   -1.1893 H   0  0  0  0  0  0  0  0  0  0  0  0
    4.1963    0.8989    0.1016 H   0  0  0  0  0  0  0  0  0  0  0  0
    6.5389   -0.1938   -2.4521 H   0  0  0  0  0  0  0  0  0  0  0  0
    7.4973    1.2361   -2.8298 H   0  0  0  0  0  0  0  0  0  0  0  0
    7.6235    0.6226   -5.2000 H   0  0  0  0  0  0  0  0  0  0  0  0
    6.1502   -1.9937   -3.7168 H   0  0  0  0  0  0  0  0  0  0  0  0
    2.0467   -0.3187   -4.0916 H   0  0  0  0  0  0  0  0  0  0  0  0
    2.8529    0.4055   -6.3898 H   0  0  0  0  0  0  0  0  0  0  0  0
  1  2  1  0  0  0  0
  1 21  1  0  0  0  0
  2  3  2  0  0  0  0
  4  5  1  6  0  0  0
  4  2  1  0  0  0  0
  6 22  1  0  0  0  0
  6 23  1  0  0  0  0
  6  4  1  0  0  0  0
  7  4  1  0  0  0  0
  7 24  1  0  0  0  0
  7  8  1  0  0  0  0
  8 27  1  0  0  0  0
  9  8  1  0  0  0  0
 10 28  1  0  0  0  0
 10  9  1  0  0  0  0
 11 12  1  6  0  0  0
 11 10  1  0  0  0  0
 13 11  1  0  0  0  0
 14 15  1  6  0  0  0
 14 16  1  0  0  0  0
 14 11  1  0  0  0  0
 14 17  1  0  0  0  0
 16 31  1  0  0  0  0
 17 18  2  0  0  0  0
 19 17  1  0  0  0  0
 19 32  1  0  0  0  0
 20 19  1  0  0  0  0
 25  7  1  0  0  0  0
 26  8  1  0  0  0  0
 29 10  1  0  0  0  0
 30 13  1  0  0  0  0
 33 20  1  0  0  0  0
M  END
$$$$
