rmsd1.gzmat
 OpenBabel08211713433D

 33 32  0  0  1  0  0  0  0  0999 V2000
    0.0000    0.0000    0.0000 O   0  0  0  0  0  0  0  0  0  0  0  0
    1.3494    0.0000    0.0000 C   0  0  0  0  0  0  0  0  0  0  0  0
    1.9679    0.0000    1.0363 O   0  0  0  0  0  0  0  0  0  0  0  0
    1.9188    0.1089   -1.4122 C   0  0  1  0  0  0  0  0  0  0  0  0
    1.1181   -0.1102   -2.1704 H   0  0  0  0  0  0  0  0  0  0  0  0
    2.4198    1.4698   -1.6469 N   0  0  0  0  0  0  0  0  0  0  0  0
    3.0897   -0.8850   -1.5544 C   0  0  0  0  0  0  0  0  0  0  0  0
    2.6373   -2.3034   -1.8599 C   0  0  0  0  0  0  0  0  0  0  0  0
    1.5928   -3.0616   -0.5589 S   0  0  0  0  0  0  0  0  0  0  0  0
    2.7199   -3.1711    0.8783 C   0  0  0  0  0  0  0  0  0  0  0  0
    1.9583   -3.7098    2.0884 C   0  0  1  0  0  0  0  0  0  0  0  0
    1.4591   -4.6908    1.8861 H   0  0  0  0  0  0  0  0  0  0  0  0
    2.8680   -4.0411    3.1084 O   0  0  0  0  0  0  0  0  0  0  0  0
    0.9351   -2.6970    2.6551 C   0  0  1  0  0  0  0  0  0  0  0  0
    0.1389   -2.4494    1.9143 H   0  0  0  0  0  0  0  0  0  0  0  0
    0.2286   -3.2743    3.7244 O   0  0  0  0  0  0  0  0  0  0  0  0
    1.6270   -1.4333    3.1847 C   0  0  0  0  0  0  0  0  0  0  0  0
    2.8183   -1.3659    3.4061 O   0  0  0  0  0  0  0  0  0  0  0  0
    0.8095   -0.3658    3.5904 N   0  0  0  0  0  0  0  0  0  0  0  0
   -0.4818   -0.3948    3.0435 O   0  0  0  0  0  0  0  0  0  0  0  0
   -0.3804   -0.0900    0.9166 H   0  0  0  0  0  0  0  0  0  0  0  0
    3.1326    1.7412   -0.9864 H   0  0  0  0  0  0  0  0  0  0  0  0
    1.6873    2.1609   -1.6663 H   0  0  0  0  0  0  0  0  0  0  0  0
    3.7361   -0.8494   -0.6513 H   0  0  0  0  0  0  0  0  0  0  0  0
    3.7472   -0.5260   -2.3823 H   0  0  0  0  0  0  0  0  0  0  0  0
    3.5142   -2.9513   -2.0531 H   0  0  0  0  0  0  0  0  0  0  0  0
    2.0265   -2.3350   -2.7856 H   0  0  0  0  0  0  0  0  0  0  0  0
    3.1658   -2.1787    1.1039 H   0  0  0  0  0  0  0  0  0  0  0  0
    3.5715   -3.8433    0.6536 H   0  0  0  0  0  0  0  0  0  0  0  0
    3.3585   -3.2300    3.4031 H   0  0  0  0  0  0  0  0  0  0  0  0
    0.8514   -3.7963    4.2938 H   0  0  0  0  0  0  0  0  0  0  0  0
    1.1416    0.5857    3.4805 H   0  0  0  0  0  0  0  0  0  0  0  0
   -0.9664   -1.0618    3.6281 H   0  0  0  0  0  0  0  0  0  0  0  0
  1  2  1  0  0  0  0
  1 21  1  0  0  0  0
  2  3  2  0  0  0  0
  4  5  1  6  0  0  0
  4  2  1  0  0  0  0
  6  4  1  0  0  0  0
  6 22  1  0  0  0  0
  7  4  1  0  0  0  0
  7 24  1  0  0  0  0
  8  7  1  0  0  0  0
  8  9  1  0  0  0  0
  9 10  1  0  0  0  0
 10 28  1  0  0  0  0
 10 11  1  0  0  0  0
 11 12  1  6  0  0  0
 11 14  1  0  0  0  0
 11 13  1  0  0  0  0
 13 30  1  0  0  0  0
 14 15  1  6  0  0  0
 14 17  1  0  0  0  0
 14 16  1  0  0  0  0
 16 31  1  0  0  0  0
 17 18  2  0  0  0  0
 17 19  1  0  0  0  0
 20 19  1  0  0  0  0
 20 33  1  0  0  0  0
 23  6  1  0  0  0  0
 25  7  1  0  0  0  0
 26  8  1  0  0  0  0
 27  8  1  0  0  0  0
 29 10  1  0  0  0  0
 32 19  1  0  0  0  0
M  END
$$$$
