33

O          0.73180        0.27690        0.47220
C          2.00990        0.17220        0.05470
O          2.94000        0.10870        0.82210
C          2.14510        0.12010       -1.46560
H          2.56340       -0.88290       -1.66880
N          0.92900        0.26320       -2.24330
C          3.20660        1.13180       -1.92340
C          3.76880        0.80620       -3.30340
S          4.59790       -0.82700       -3.41880
C          5.79490       -0.74080       -2.04140
C          6.84270        0.36510       -2.16950
H          6.33530        1.34230       -2.20690
O          7.68630        0.42740       -1.02960
C          7.71150        0.30150       -3.43260
H          7.06790        0.14580       -4.31350
O          8.40190        1.52550       -3.61890
C          8.71100       -0.85400       -3.34840
O          8.52510       -1.91380       -2.73770
N          9.86220       -0.64160       -4.00050
O         10.84840       -1.60050       -3.93070
H          0.75840        0.27960        1.44500
H          0.43550        1.11410       -1.97200
H          0.28790       -0.50560       -2.05480
H          4.00900        1.17760       -1.17400
H          2.75170        2.13820       -1.95560
H          4.45350        1.59880       -3.64140
H          2.94660        0.73600       -4.03080
H          6.29110       -1.72130       -2.04480
H          5.26960       -0.62160       -1.08160
H          8.06280       -0.45990       -0.91480
H          8.73980        1.76880       -2.74100
H         10.13760        0.25170       -4.39060
H         10.39970       -2.29190       -3.39580
