
     RDKit          3D

 33 32  0  0  0  0  0  0  0  0999 V2000
    2.2272   -1.1153    1.1134 O   0  0  0  0  0  0  0  0  0  0  0  0
    2.5857   -0.3762    0.0517 C   0  0  0  0  0  0  0  0  0  0  0  0
    3.7081    0.0241   -0.1334 O   0  0  0  0  0  0  0  0  0  0  0  0
    1.4172   -0.1302   -0.8999 C   0  0  1  0  0  0  0  0  0  0  0  0
    0.5614    0.1998   -0.2879 H   0  0  0  0  0  0  0  0  0  0  0  0
    1.7428    0.9174   -1.8681 N   0  0  0  0  0  0  0  0  0  0  0  0
    1.0279   -1.4451   -1.6054 C   0  0  0  0  0  0  0  0  0  0  0  0
   -0.3684   -1.3911   -2.2256 C   0  0  0  0  0  0  0  0  0  0  0  0
   -0.7317   -2.8507   -3.2789 S   0  0  0  0  0  0  0  0  0  0  0  0
   -1.0801   -2.1033   -4.9134 C   0  0  0  0  0  0  0  0  0  0  0  0
    0.1438   -1.7891   -5.7797 C   0  0  1  0  0  0  0  0  0  0  0  0
    0.8106   -2.6662   -5.7693 H   0  0  0  0  0  0  0  0  0  0  0  0
   -0.2294   -1.5737   -7.1290 O   0  0  0  0  0  0  0  0  0  0  0  0
    0.9821   -0.5786   -5.3243 C   0  0  1  0  0  0  0  0  0  0  0  0
    1.4076   -0.7516   -4.3259 H   0  0  0  0  0  0  0  0  0  0  0  0
    2.0572   -0.3904   -6.2142 O   0  0  0  0  0  0  0  0  0  0  0  0
    0.1031    0.6703   -5.3074 C   0  0  0  0  0  0  0  0  0  0  0  0
   -0.6597    0.9641   -6.2484 O   0  0  0  0  0  0  0  0  0  0  0  0
    0.1871    1.4593   -4.2366 N   0  0  0  0  0  0  0  0  0  0  0  0
   -0.5825    2.6046   -4.2209 O   0  0  0  0  0  0  0  0  0  0  0  0
    3.0252   -1.2602    1.6513 H   0  0  0  0  0  0  0  0  0  0  0  0
    2.6893    0.7412   -2.2186 H   0  0  0  0  0  0  0  0  0  0  0  0
    1.8130    1.8180   -1.3905 H   0  0  0  0  0  0  0  0  0  0  0  0
    1.0736   -2.2714   -0.8805 H   0  0  0  0  0  0  0  0  0  0  0  0
    1.7826   -1.6674   -2.3777 H   0  0  0  0  0  0  0  0  0  0  0  0
   -0.4981   -0.4892   -2.8344 H   0  0  0  0  0  0  0  0  0  0  0  0
   -1.1274   -1.3497   -1.4283 H   0  0  0  0  0  0  0  0  0  0  0  0
   -1.7315   -1.2228   -4.7939 H   0  0  0  0  0  0  0  0  0  0  0  0
   -1.6694   -2.8635   -5.4469 H   0  0  0  0  0  0  0  0  0  0  0  0
   -0.6658   -0.6958   -7.1460 H   0  0  0  0  0  0  0  0  0  0  0  0
    1.6888   -0.5758   -7.0952 H   0  0  0  0  0  0  0  0  0  0  0  0
    0.7433    1.2904   -3.3725 H   0  0  0  0  0  0  0  0  0  0  0  0
   -1.0302    2.5452   -5.0938 H   0  0  0  0  0  0  0  0  0  0  0  0
  1  2  1  0
  1 21  1  0
  2  3  2  0
  2  4  1  0
  4  5  1  1
  4  6  1  0
  4  7  1  0
  6 22  1  0
  6 23  1  0
  7  8  1  0
  7 24  1  0
  7 25  1  0
  8  9  1  0
  8 26  1  0
  8 27  1  0
  9 10  1  0
 10 11  1  0
 10 28  1  0
 10 29  1  0
 11 12  1  6
 11 13  1  0
 11 14  1  0
 13 30  1  0
 14 15  1  1
 14 16  1  0
 14 17  1  0
 16 31  1  0
 17 18  2  0
 17 19  1  0
 19 20  1  0
 19 32  1  0
 20 33  1  0
M  END

