33
rmsd9.gzmat
O          0.00000        0.00000        0.00000
C          1.35030        0.00000        0.00000
O          1.96610        0.00000        1.03630
C          1.90650        0.12020       -1.41640
H          1.49330        1.08520       -1.84110
N          3.36570        0.22130       -1.42860
C          1.40340       -1.03900       -2.30370
C          2.06510       -2.39160       -2.07760
S          1.42820       -3.17970       -0.54070
C          2.09470       -4.88020       -0.62680
C          3.54450       -5.06600       -0.17880
H          3.74890       -6.16320       -0.03730
O          4.43590       -4.73760       -1.21030
C          3.91710       -4.32770        1.12880
H          3.19750       -4.57090        1.94860
O          5.14140       -4.82140        1.60740
C          4.06580       -2.81540        0.93220
O          4.52060       -2.32040       -0.08920
N          3.83260       -1.95980        2.00940
O          3.04540       -2.53460        3.01490
H         -0.39910       -0.10880        0.90170
H          3.81670       -0.58380       -1.00860
H          3.69260        1.05190       -0.95640
H          1.58500       -0.74270       -3.36510
H          0.29680       -1.10830       -2.20990
H          3.16920       -2.29630       -2.02100
H          1.86810       -3.05730       -2.93990
H          1.99420       -5.27090       -1.66120
H          1.41790       -5.49800       -0.00230
H          4.59820       -3.75910       -1.22760
H          5.82350       -4.79250        0.89010
H          3.45460       -1.02980        1.82130
H          3.71600       -2.75240        3.73670
