
     RDKit          3D

 33 32  0  0  0  0  0  0  0  0999 V2000
    0.0472    0.3739   -0.0667 O   0  0  0  0  0  0  0  0  0  0  0  0
    1.3897    0.2686   -0.0321 C   0  0  0  0  0  0  0  0  0  0  0  0
    2.0270    0.3355    0.9893 O   0  0  0  0  0  0  0  0  0  0  0  0
    1.9849    0.0904   -1.4211 C   0  0  1  0  0  0  0  0  0  0  0  0
    1.7667    1.0264   -1.9659 H   0  0  0  0  0  0  0  0  0  0  0  0
    3.4384   -0.0506   -1.3795 N   0  0  0  0  0  0  0  0  0  0  0  0
    1.3291   -1.0757   -2.1893 C   0  0  0  0  0  0  0  0  0  0  0  0
    0.1809   -0.6472   -3.1046 C   0  0  0  0  0  0  0  0  0  0  0  0
    0.6185    0.5812   -4.3879 S   0  0  0  0  0  0  0  0  0  0  0  0
    1.4954   -0.4560   -5.6154 C   0  0  0  0  0  0  0  0  0  0  0  0
    2.9917   -0.7419   -5.4057 C   0  0  1  0  0  0  0  0  0  0  0  0
    3.1752   -1.0965   -4.3807 H   0  0  0  0  0  0  0  0  0  0  0  0
    3.3854   -1.7828   -6.2736 O   0  0  0  0  0  0  0  0  0  0  0  0
    3.9066    0.4708   -5.6870 C   0  0  1  0  0  0  0  0  0  0  0  0
    4.9377    0.1513   -5.4523 H   0  0  0  0  0  0  0  0  0  0  0  0
    3.8132    0.7976   -7.0504 O   0  0  0  0  0  0  0  0  0  0  0  0
    3.5611    1.7121   -4.8742 C   0  0  0  0  0  0  0  0  0  0  0  0
    3.0563    2.6923   -5.4325 O   0  0  0  0  0  0  0  0  0  0  0  0
    3.8448    1.7118   -3.5644 N   0  0  0  0  0  0  0  0  0  0  0  0
    3.3212    2.7707   -2.8282 O   0  0  0  0  0  0  0  0  0  0  0  0
   -0.2551    0.5086    0.8483 H   0  0  0  0  0  0  0  0  0  0  0  0
    3.6925   -0.9777   -1.0336 H   0  0  0  0  0  0  0  0  0  0  0  0
    3.8141    0.6037   -0.6891 H   0  0  0  0  0  0  0  0  0  0  0  0
    0.9569   -1.8400   -1.4855 H   0  0  0  0  0  0  0  0  0  0  0  0
    2.1105   -1.5672   -2.7858 H   0  0  0  0  0  0  0  0  0  0  0  0
   -0.6070   -0.1597   -2.5118 H   0  0  0  0  0  0  0  0  0  0  0  0
   -0.2696   -1.5239   -3.5955 H   0  0  0  0  0  0  0  0  0  0  0  0
    1.3734    0.0640   -6.5780 H   0  0  0  0  0  0  0  0  0  0  0  0
    0.9755   -1.4221   -5.6972 H   0  0  0  0  0  0  0  0  0  0  0  0
    3.4679   -1.3728   -7.1502 H   0  0  0  0  0  0  0  0  0  0  0  0
    3.4097    1.6889   -7.0658 H   0  0  0  0  0  0  0  0  0  0  0  0
    3.9166    0.8658   -2.9658 H   0  0  0  0  0  0  0  0  0  0  0  0
    2.8731    3.2979   -3.5246 H   0  0  0  0  0  0  0  0  0  0  0  0
  1  2  1  0
  1 21  1  0
  2  3  2  0
  2  4  1  0
  4  5  1  6
  4  6  1  0
  4  7  1  0
  6 22  1  0
  6 23  1  0
  7  8  1  0
  7 24  1  0
  7 25  1  0
  8  9  1  0
  8 26  1  0
  8 27  1  0
  9 10  1  0
 10 11  1  0
 10 28  1  0
 10 29  1  0
 11 12  1  1
 11 13  1  0
 11 14  1  0
 13 30  1  0
 14 15  1  6
 14 16  1  0
 14 17  1  0
 16 31  1  0
 17 18  2  0
 17 19  1  0
 19 20  1  0
 19 32  1  0
 20 33  1  0
M  END

