33
rmsd1.gzmat
O          0.00000        0.00000        0.00000
C          1.34940        0.00000        0.00000
O          1.96790        0.00000        1.03630
C          1.91880        0.10890       -1.41220
H          1.11810       -0.11020       -2.17040
N          2.41980        1.46980       -1.64690
C          3.08970       -0.88500       -1.55440
C          2.63730       -2.30340       -1.85990
S          1.59280       -3.06160       -0.55890
C          2.71990       -3.17110        0.87830
C          1.95830       -3.70980        2.08840
H          1.45910       -4.69080        1.88610
O          2.86800       -4.04110        3.10840
C          0.93510       -2.69700        2.65510
H          0.13890       -2.44940        1.91430
O          0.22860       -3.27430        3.72440
C          1.62700       -1.43330        3.18470
O          2.81830       -1.36590        3.40610
N          0.80950       -0.36580        3.59040
O         -0.48180       -0.39480        3.04350
H         -0.38040       -0.09000        0.91660
H          3.13260        1.74120       -0.98640
H          1.68730        2.16090       -1.66630
H          3.73610       -0.84940       -0.65130
H          3.74720       -0.52600       -2.38230
H          3.51420       -2.95130       -2.05310
H          2.02650       -2.33500       -2.78560
H          3.16580       -2.17870        1.10390
H          3.57150       -3.84330        0.65360
H          3.35850       -3.23000        3.40310
H          0.85140       -3.79630        4.29380
H          1.14160        0.58570        3.48050
H         -0.96640       -1.06180        3.62810
