rmsd185.gzmat
 OpenBabel08211713433D

 33 32  0  0  1  0  0  0  0  0999 V2000
    0.0000    0.0000    0.0000 O   0  0  0  0  0  0  0  0  0  0  0  0
    1.3524    0.0000    0.0000 C   0  0  0  0  0  0  0  0  0  0  0  0
    1.9835    0.0000    1.0235 O   0  0  0  0  0  0  0  0  0  0  0  0
    1.9107    0.0191   -1.4173 C   0  0  1  0  0  0  0  0  0  0  0  0
    1.6982    1.0451   -1.8465 H   0  0  0  0  0  0  0  0  0  0  0  0
    3.3776   -0.1409   -1.4040 N   0  0  0  0  0  0  0  0  0  0  0  0
    1.2435   -1.0797   -2.2654 C   0  0  0  0  0  0  0  0  0  0  0  0
    0.0922   -0.5421   -3.1045 C   0  0  0  0  0  0  0  0  0  0  0  0
    0.6068    0.5903   -4.4536 S   0  0  0  0  0  0  0  0  0  0  0  0
    1.5297   -0.4855   -5.6004 C   0  0  0  0  0  0  0  0  0  0  0  0
    3.0051   -0.6277   -5.2279 C   0  0  1  0  0  0  0  0  0  0  0  0
    3.1696   -0.8259   -4.1394 H   0  0  0  0  0  0  0  0  0  0  0  0
    3.5080   -1.8024   -5.8214 O   0  0  0  0  0  0  0  0  0  0  0  0
    3.8791    0.5573   -5.7036 C   0  0  1  0  0  0  0  0  0  0  0  0
    4.9642    0.2973   -5.6017 H   0  0  0  0  0  0  0  0  0  0  0  0
    3.6782    0.6968   -7.0886 O   0  0  0  0  0  0  0  0  0  0  0  0
    3.5580    1.8614   -4.9811 C   0  0  0  0  0  0  0  0  0  0  0  0
    3.1580    2.8338   -5.5943 O   0  0  0  0  0  0  0  0  0  0  0  0
    3.9600    1.9560   -3.6556 N   0  0  0  0  0  0  0  0  0  0  0  0
    3.4778    3.0693   -2.9604 O   0  0  0  0  0  0  0  0  0  0  0  0
   -0.3960    0.0009    0.9100 H   0  0  0  0  0  0  0  0  0  0  0  0
    3.6587   -1.1005   -1.2541 H   0  0  0  0  0  0  0  0  0  0  0  0
    3.8049    0.4239   -0.6741 H   0  0  0  0  0  0  0  0  0  0  0  0
    0.8646   -1.8932   -1.6090 H   0  0  0  0  0  0  0  0  0  0  0  0
    1.9984   -1.5833   -2.9096 H   0  0  0  0  0  0  0  0  0  0  0  0
   -0.6144    0.0390   -2.4724 H   0  0  0  0  0  0  0  0  0  0  0  0
   -0.4988   -1.3766   -3.5259 H   0  0  0  0  0  0  0  0  0  0  0  0
    1.4198   -0.0513   -6.6166 H   0  0  0  0  0  0  0  0  0  0  0  0
    1.0669   -1.4905   -5.6594 H   0  0  0  0  0  0  0  0  0  0  0  0
    3.5822   -1.6919   -6.7972 H   0  0  0  0  0  0  0  0  0  0  0  0
    3.2750    1.5782   -7.2997 H   0  0  0  0  0  0  0  0  0  0  0  0
    3.8929    1.1833   -2.9913 H   0  0  0  0  0  0  0  0  0  0  0  0
    3.5228    3.8372   -3.6154 H   0  0  0  0  0  0  0  0  0  0  0  0
  1 21  1  0  0  0  0
  2  1  1  0  0  0  0
  2  3  2  0  0  0  0
  4  5  1  6  0  0  0
  4  6  1  0  0  0  0
  4  2  1  0  0  0  0
  6 22  1  0  0  0  0
  6 23  1  0  0  0  0
  7 24  1  0  0  0  0
  7  4  1  0  0  0  0
  8 26  1  0  0  0  0
  8  7  1  0  0  0  0
  9  8  1  0  0  0  0
 10 11  1  0  0  0  0
 10  9  1  0  0  0  0
 11 12  1  1  0  0  0
 13 11  1  0  0  0  0
 14 15  1  1  0  0  0
 14 11  1  0  0  0  0
 14 17  1  0  0  0  0
 16 14  1  0  0  0  0
 17 19  1  0  0  0  0
 18 17  2  0  0  0  0
 19 32  1  0  0  0  0
 19 20  1  0  0  0  0
 25  7  1  0  0  0  0
 27  8  1  0  0  0  0
 28 10  1  0  0  0  0
 29 10  1  0  0  0  0
 30 13  1  0  0  0  0
 31 16  1  0  0  0  0
 33 20  1  0  0  0  0
M  END
$$$$
