33

O          0.02680       -0.59610       -0.01580
C          1.25800       -0.04040       -0.03860
O          1.82250        0.32350        0.96210
C          1.84180        0.02260       -1.44400
H          2.42610       -0.90860       -1.56110
N          0.85670        0.02400       -2.53120
C          2.81550        1.20250       -1.59910
C          4.21210        0.92420       -1.03790
S          5.49490        2.03080       -1.74090
C          6.45520        0.93340       -2.84910
C          6.06160        0.85350       -4.34310
H          5.41040        1.69940       -4.60330
O          7.21950        0.95650       -5.15160
C          5.37980       -0.47930       -4.75150
H          5.21270       -0.40380       -5.83790
O          6.27440       -1.53680       -4.49270
C          4.05680       -0.79910       -4.06680
O          4.03410       -1.60560       -3.13670
N          2.92540       -0.22900       -4.54550
O          3.05880        0.88320       -5.37480
H         -0.24580       -0.63650        0.91750
H          0.31890        0.89300       -2.52150
H          0.18210       -0.72960       -2.39620
H          2.39460        2.10720       -1.13000
H          2.90340        1.42490       -2.66950
H          4.51300       -0.10910       -1.25780
H          4.22170        1.04700        0.05350
H          6.53910       -0.06560       -2.39560
H          7.46220        1.37410       -2.83420
H          7.68080        0.10780       -5.05610
H          5.88370       -2.02360       -3.74280
H          2.06840       -0.20390       -3.94710
H          2.74710        0.59360       -6.24610
