33
rmsd116.gzmat
O          0.00000        0.00000        0.00000
C          1.35490        0.00000        0.00000
O          1.98280        0.00000        1.02420
C          1.89920        0.02440       -1.42360
H          1.29120        0.74810       -2.04030
N          3.29860        0.46210       -1.45410
C          1.79810       -1.39260       -2.03010
C          0.34200       -1.79370       -2.22710
S          0.19300       -3.16810       -3.43820
C         -0.88310       -2.46420       -4.73150
C         -0.11660       -1.80600       -5.87430
H          0.50590       -2.53860       -6.44720
O         -1.02610       -1.34950       -6.85020
C          0.75060       -0.59650       -5.45860
H          1.58600       -0.87870       -4.77400
O          1.40280       -0.06130       -6.58190
C         -0.10870        0.53690       -4.88250
O         -1.31980        0.49340       -4.81350
N          0.61890        1.56960       -4.29310
O         -0.10170        2.74450       -4.06060
H         -0.40270        0.00130        0.90440
H          3.90020       -0.12440       -0.89400
H          3.40880        1.41930       -1.15510
H          2.32910       -2.12580       -1.39000
H          2.37020       -1.39270       -2.98530
H         -0.27750       -0.93070       -2.53770
H         -0.10480       -2.13500       -1.27120
H         -1.62670       -1.76430       -4.29760
H         -1.49040       -3.30210       -5.13950
H         -1.67360       -0.71800       -6.45040
H          0.81430       -0.12250       -7.37880
H          1.51470        1.86650       -4.66750
H         -0.82640        2.47570       -3.41090
