33
rmsd19.gzmat
O          0.00000        0.00000        0.00000
C          1.35770        0.00000        0.00000
O          1.98070        0.00000        1.02420
C          1.87500       -0.01700       -1.42980
H          2.41210       -1.00520       -1.58380
N          0.82270        0.06680       -2.45940
C          2.86960        1.15070       -1.60930
C          4.22210        0.79170       -1.00490
S          5.54690        1.88840       -1.63540
C          6.45500        0.84110       -2.82820
C          5.90340        0.89350       -4.25320
H          5.12570        1.68160       -4.40620
O          6.92090        1.30790       -5.13580
C          5.39540       -0.48310       -4.76580
H          5.32230       -0.46670       -5.88200
O          6.38040       -1.45280       -4.51240
C          4.08210       -0.87330       -4.10970
O          4.05170       -1.63410       -3.16070
N          2.88240       -0.44510       -4.68260
O          3.04620        0.71510       -5.45150
H         -0.41880       -0.04270        0.89250
H          0.32390        0.94600       -2.41840
H          0.14360       -0.67890       -2.35630
H          2.46860        2.07950       -1.15590
H          2.95680        1.38330       -2.69310
H          4.48030       -0.26970       -1.18930
H          4.19630        0.89890        0.10160
H          6.53890       -0.19380       -2.45210
H          7.49730        1.23610       -2.82980
H          7.62350        0.62260       -5.20000
H          6.15020       -1.99370       -3.71680
H          2.04670       -0.31870       -4.09160
H          2.85290        0.40550       -6.38980
