
     RDKit          3D

 33 32  0  0  0  0  0  0  0  0999 V2000
    0.0268   -0.5961   -0.0158 O   0  0  0  0  0  0  0  0  0  0  0  0
    1.2580   -0.0404   -0.0386 C   0  0  0  0  0  0  0  0  0  0  0  0
    1.8225    0.3235    0.9621 O   0  0  0  0  0  0  0  0  0  0  0  0
    1.8418    0.0226   -1.4440 C   0  0  1  0  0  0  0  0  0  0  0  0
    2.4261   -0.9086   -1.5611 H   0  0  0  0  0  0  0  0  0  0  0  0
    0.8567    0.0240   -2.5312 N   0  0  0  0  0  0  0  0  0  0  0  0
    2.8155    1.2025   -1.5991 C   0  0  0  0  0  0  0  0  0  0  0  0
    4.2121    0.9242   -1.0379 C   0  0  0  0  0  0  0  0  0  0  0  0
    5.4949    2.0308   -1.7409 S   0  0  0  0  0  0  0  0  0  0  0  0
    6.4552    0.9334   -2.8491 C   0  0  0  0  0  0  0  0  0  0  0  0
    6.0616    0.8535   -4.3431 C   0  0  1  0  0  0  0  0  0  0  0  0
    5.4104    1.6994   -4.6033 H   0  0  0  0  0  0  0  0  0  0  0  0
    7.2195    0.9565   -5.1516 O   0  0  0  0  0  0  0  0  0  0  0  0
    5.3798   -0.4793   -4.7515 C   0  0  1  0  0  0  0  0  0  0  0  0
    5.2127   -0.4038   -5.8379 H   0  0  0  0  0  0  0  0  0  0  0  0
    6.2744   -1.5368   -4.4927 O   0  0  0  0  0  0  0  0  0  0  0  0
    4.0568   -0.7991   -4.0668 C   0  0  0  0  0  0  0  0  0  0  0  0
    4.0341   -1.6056   -3.1367 O   0  0  0  0  0  0  0  0  0  0  0  0
    2.9254   -0.2290   -4.5455 N   0  0  0  0  0  0  0  0  0  0  0  0
    3.0588    0.8832   -5.3748 O   0  0  0  0  0  0  0  0  0  0  0  0
   -0.2458   -0.6365    0.9175 H   0  0  0  0  0  0  0  0  0  0  0  0
    0.3189    0.8930   -2.5215 H   0  0  0  0  0  0  0  0  0  0  0  0
    0.1821   -0.7296   -2.3962 H   0  0  0  0  0  0  0  0  0  0  0  0
    2.3946    2.1072   -1.1300 H   0  0  0  0  0  0  0  0  0  0  0  0
    2.9034    1.4249   -2.6695 H   0  0  0  0  0  0  0  0  0  0  0  0
    4.5130   -0.1091   -1.2578 H   0  0  0  0  0  0  0  0  0  0  0  0
    4.2217    1.0470    0.0535 H   0  0  0  0  0  0  0  0  0  0  0  0
    6.5391   -0.0656   -2.3956 H   0  0  0  0  0  0  0  0  0  0  0  0
    7.4622    1.3741   -2.8342 H   0  0  0  0  0  0  0  0  0  0  0  0
    7.6808    0.1078   -5.0561 H   0  0  0  0  0  0  0  0  0  0  0  0
    5.8837   -2.0236   -3.7428 H   0  0  0  0  0  0  0  0  0  0  0  0
    2.0684   -0.2039   -3.9471 H   0  0  0  0  0  0  0  0  0  0  0  0
    2.7471    0.5936   -6.2461 H   0  0  0  0  0  0  0  0  0  0  0  0
  1  2  1  0
  1 21  1  0
  2  3  2  0
  2  4  1  0
  4  5  1  6
  4  6  1  0
  4  7  1  0
  6 22  1  0
  6 23  1  0
  7  8  1  0
  7 24  1  0
  7 25  1  0
  8  9  1  0
  8 26  1  0
  8 27  1  0
  9 10  1  0
 10 11  1  0
 10 28  1  0
 10 29  1  0
 11 12  1  6
 11 13  1  0
 11 14  1  0
 13 30  1  0
 14 15  1  6
 14 16  1  0
 14 17  1  0
 16 31  1  0
 17 18  2  0
 17 19  1  0
 19 20  1  0
 19 32  1  0
 20 33  1  0
M  END

