33
rmsd131.gzmat
O          0.00000        0.00000        0.00000
C          1.35810        0.00000        0.00000
O          1.97570        0.00000        1.02910
C          1.89370       -0.01690       -1.42850
H          2.24380       -1.07160       -1.63440
N          0.90000        0.33420       -2.44860
C          3.09180        0.95470       -1.49080
C          3.85110        0.82030       -2.80390
S          4.86710       -0.69890       -2.92380
C          6.22630       -0.41880       -1.74330
C          7.19550        0.67770       -2.17050
H          6.70910        1.68340       -2.22610
O          8.16770        0.87260       -1.17100
C          7.92990        0.37880       -3.49680
H          7.22990        0.23060       -4.35330
O          8.70430        1.48800       -3.88040
C          8.89840       -0.80140       -3.34930
O          9.02010       -1.45200       -2.33050
N          9.53180       -1.17180       -4.53070
O         10.63790       -2.01150       -4.37900
H         -0.40080       -0.00620        0.90450
H          0.50720        1.25170       -2.30390
H          0.14480       -0.33630       -2.48790
H          3.75520        0.78600       -0.61470
H          2.73230        1.99970       -1.37970
H          4.47490        1.71250       -2.98720
H          3.13310        0.76380       -3.65550
H          6.75430       -1.39280       -1.63270
H          5.83480       -0.18980       -0.73070
H          8.65990        0.03150       -0.99880
H          9.12470        1.90130       -3.08370
H          9.79420       -0.49430       -5.23550
H         10.27600       -2.83400       -3.91850
