rmsd9.gzmat
 OpenBabel08211713433D

 33 32  0  0  1  0  0  0  0  0999 V2000
    0.0000    0.0000    0.0000 O   0  0  0  0  0  0  0  0  0  0  0  0
    1.3503    0.0000    0.0000 C   0  0  0  0  0  0  0  0  0  0  0  0
    1.9661    0.0000    1.0363 O   0  0  0  0  0  0  0  0  0  0  0  0
    1.9065    0.1202   -1.4164 C   0  0  1  0  0  0  0  0  0  0  0  0
    1.4933    1.0852   -1.8411 H   0  0  0  0  0  0  0  0  0  0  0  0
    3.3657    0.2213   -1.4286 N   0  0  0  0  0  0  0  0  0  0  0  0
    1.4034   -1.0390   -2.3037 C   0  0  0  0  0  0  0  0  0  0  0  0
    2.0651   -2.3916   -2.0776 C   0  0  0  0  0  0  0  0  0  0  0  0
    1.4282   -3.1797   -0.5407 S   0  0  0  0  0  0  0  0  0  0  0  0
    2.0947   -4.8802   -0.6268 C   0  0  0  0  0  0  0  0  0  0  0  0
    3.5445   -5.0660   -0.1788 C   0  0  1  0  0  0  0  0  0  0  0  0
    3.7489   -6.1632   -0.0373 H   0  0  0  0  0  0  0  0  0  0  0  0
    4.4359   -4.7376   -1.2103 O   0  0  0  0  0  0  0  0  0  0  0  0
    3.9171   -4.3277    1.1288 C   0  0  1  0  0  0  0  0  0  0  0  0
    3.1975   -4.5709    1.9486 H   0  0  0  0  0  0  0  0  0  0  0  0
    5.1414   -4.8214    1.6074 O   0  0  0  0  0  0  0  0  0  0  0  0
    4.0658   -2.8154    0.9322 C   0  0  0  0  0  0  0  0  0  0  0  0
    4.5206   -2.3204   -0.0892 O   0  0  0  0  0  0  0  0  0  0  0  0
    3.8326   -1.9598    2.0094 N   0  0  0  0  0  0  0  0  0  0  0  0
    3.0454   -2.5346    3.0149 O   0  0  0  0  0  0  0  0  0  0  0  0
   -0.3991   -0.1088    0.9017 H   0  0  0  0  0  0  0  0  0  0  0  0
    3.8167   -0.5838   -1.0086 H   0  0  0  0  0  0  0  0  0  0  0  0
    3.6926    1.0519   -0.9564 H   0  0  0  0  0  0  0  0  0  0  0  0
    1.5850   -0.7427   -3.3651 H   0  0  0  0  0  0  0  0  0  0  0  0
    0.2968   -1.1083   -2.2099 H   0  0  0  0  0  0  0  0  0  0  0  0
    3.1692   -2.2963   -2.0210 H   0  0  0  0  0  0  0  0  0  0  0  0
    1.8681   -3.0573   -2.9399 H   0  0  0  0  0  0  0  0  0  0  0  0
    1.9942   -5.2709   -1.6612 H   0  0  0  0  0  0  0  0  0  0  0  0
    1.4179   -5.4980   -0.0023 H   0  0  0  0  0  0  0  0  0  0  0  0
    4.5982   -3.7591   -1.2276 H   0  0  0  0  0  0  0  0  0  0  0  0
    5.8235   -4.7925    0.8901 H   0  0  0  0  0  0  0  0  0  0  0  0
    3.4546   -1.0298    1.8213 H   0  0  0  0  0  0  0  0  0  0  0  0
    3.7160   -2.7524    3.7367 H   0  0  0  0  0  0  0  0  0  0  0  0
  1  2  1  0  0  0  0
  1 21  1  0  0  0  0
  2  3  2  0  0  0  0
  4  5  1  6  0  0  0
  4  2  1  0  0  0  0
  6  4  1  0  0  0  0
  6 22  1  0  0  0  0
  6 23  1  0  0  0  0
  7 25  1  0  0  0  0
  7  8  1  0  0  0  0
  7  4  1  0  0  0  0
  8 26  1  0  0  0  0
  8  9  1  0  0  0  0
 10  9  1  0  0  0  0
 10 11  1  0  0  0  0
 10 29  1  0  0  0  0
 11 12  1  1  0  0  0
 11 14  1  0  0  0  0
 13 11  1  0  0  0  0
 14 16  1  0  0  0  0
 14 15  1  1  0  0  0
 17 14  1  0  0  0  0
 17 19  1  0  0  0  0
 18 17  2  0  0  0  0
 19 20  1  0  0  0  0
 20 33  1  0  0  0  0
 24  7  1  0  0  0  0
 27  8  1  0  0  0  0
 28 10  1  0  0  0  0
 30 13  1  0  0  0  0
 31 16  1  0  0  0  0
 32 19  1  0  0  0  0
M  END
$$$$
