rmsd6.gzmat
 OpenBabel08211713393D

 36 38  0  0  1  0  0  0  0  0999 V2000
    0.0000    0.0000    0.0000 S   0  0  0  0  0  0  0  0  0  0  0  0
    1.6693    0.0000    0.0000 C   0  0  0  0  0  0  0  0  0  0  0  0
    2.5254    0.0000    1.0966 N   0  0  0  0  0  0  0  0  0  0  0  0
    3.9594   -0.1041    0.6522 C   0  0  2  0  0  0  0  0  0  0  0  0
    4.2683   -1.1818    0.7670 H   0  0  0  0  0  0  0  0  0  0  0  0
    4.9109    0.7560    1.4826 C   0  0  0  0  0  0  0  0  0  0  0  0
    5.0051    2.2053    1.0131 C   0  0  0  0  0  0  0  0  0  0  0  0
    5.3760    2.2389   -0.4713 C   0  0  0  0  0  0  0  0  0  0  0  0
    4.2177    1.6734   -1.2914 C   0  0  0  0  0  0  0  0  0  0  0  0
    3.8642    0.2349   -0.8773 C   0  0  2  0  0  0  0  0  0  0  0  0
    4.4759   -0.4948   -1.4609 H   0  0  0  0  0  0  0  0  0  0  0  0
    2.4229   -0.0086   -1.1489 N   0  0  0  0  0  0  0  0  0  0  0  0
    2.2490   -0.4315    2.4361 C   0  0  0  0  0  0  0  0  0  0  0  0
    3.1321   -1.0089    3.0363 O   0  0  0  0  0  0  0  0  0  0  0  0
    1.0334   -0.0751    2.9721 N   0  0  0  0  0  0  0  0  0  0  0  0
    0.6670   -0.4773    4.2862 C   0  0  0  0  0  0  0  0  0  0  0  0
    1.6070   -0.5827    5.3176 C   0  0  0  0  0  0  0  0  0  0  0  0
    1.1785   -0.9459    6.5916 C   0  0  0  0  0  0  0  0  0  0  0  0
   -0.1692   -1.1978    6.8405 C   0  0  0  0  0  0  0  0  0  0  0  0
   -1.1003   -1.0858    5.8081 C   0  0  0  0  0  0  0  0  0  0  0  0
   -0.6929   -0.7267    4.5282 C   0  0  0  0  0  0  0  0  0  0  0  0
    4.6151    0.7233    2.5548 H   0  0  0  0  0  0  0  0  0  0  0  0
    5.9177    0.2885    1.4597 H   0  0  0  0  0  0  0  0  0  0  0  0
    4.0445    2.7294    1.1850 H   0  0  0  0  0  0  0  0  0  0  0  0
    5.7570    2.7512    1.6137 H   0  0  0  0  0  0  0  0  0  0  0  0
    5.5969    3.2749   -0.7913 H   0  0  0  0  0  0  0  0  0  0  0  0
    6.3038    1.6656   -0.6530 H   0  0  0  0  0  0  0  0  0  0  0  0
    3.3346    2.3359   -1.1678 H   0  0  0  0  0  0  0  0  0  0  0  0
    4.4627    1.7010   -2.3701 H   0  0  0  0  0  0  0  0  0  0  0  0
    2.0387    0.1967   -2.0579 H   0  0  0  0  0  0  0  0  0  0  0  0
    0.2948    0.3320    2.3856 H   0  0  0  0  0  0  0  0  0  0  0  0
    2.6644   -0.3916    5.1321 H   0  0  0  0  0  0  0  0  0  0  0  0
    1.9059   -1.0355    7.3975 H   0  0  0  0  0  0  0  0  0  0  0  0
   -0.4940   -1.4851    7.8372 H   0  0  0  0  0  0  0  0  0  0  0  0
   -2.1528   -1.2871    6.0035 H   0  0  0  0  0  0  0  0  0  0  0  0
   -1.4199   -0.6519    3.7214 H   0  0  0  0  0  0  0  0  0  0  0  0
  1  2  2  0  0  0  0
  2  3  1  0  0  0  0
  3 13  1  0  0  0  0
  4 10  1  0  0  0  0
  4  5  1  1  0  0  0
  4  3  1  0  0  0  0
  4  6  1  0  0  0  0
  6 22  1  0  0  0  0
  7 24  1  0  0  0  0
  7  6  1  0  0  0  0
  7 25  1  0  0  0  0
  8  7  1  0  0  0  0
  9 28  1  0  0  0  0
  9 10  1  0  0  0  0
  9  8  1  0  0  0  0
 10 11  1  6  0  0  0
 12 10  1  0  0  0  0
 12  2  1  0  0  0  0
 13 15  1  0  0  0  0
 13 14  2  0  0  0  0
 15 16  1  0  0  0  0
 16 21  2  0  0  0  0
 16 17  1  0  0  0  0
 17 18  2  0  0  0  0
 18 19  1  0  0  0  0
 18 33  1  0  0  0  0
 19 34  1  0  0  0  0
 20 35  1  0  0  0  0
 20 19  2  0  0  0  0
 21 20  1  0  0  0  0
 23  6  1  0  0  0  0
 26  8  1  0  0  0  0
 27  8  1  0  0  0  0
 29  9  1  0  0  0  0
 30 12  1  0  0  0  0
 31 15  1  0  0  0  0
 32 17  1  0  0  0  0
 36 21  1  0  0  0  0
M  END
$$$$
