36
rmsd6.gzmat
S          0.00000        0.00000        0.00000
C          1.66930        0.00000        0.00000
N          2.52540        0.00000        1.09660
C          3.95940       -0.10410        0.65220
H          4.26830       -1.18180        0.76700
C          4.91090        0.75600        1.48260
C          5.00510        2.20530        1.01310
C          5.37600        2.23890       -0.47130
C          4.21770        1.67340       -1.29140
C          3.86420        0.23490       -0.87730
H          4.47590       -0.49480       -1.46090
N          2.42290       -0.00860       -1.14890
C          2.24900       -0.43150        2.43610
O          3.13210       -1.00890        3.03630
N          1.03340       -0.07510        2.97210
C          0.66700       -0.47730        4.28620
C          1.60700       -0.58270        5.31760
C          1.17850       -0.94590        6.59160
C         -0.16920       -1.19780        6.84050
C         -1.10030       -1.08580        5.80810
C         -0.69290       -0.72670        4.52820
H          4.61510        0.72330        2.55480
H          5.91770        0.28850        1.45970
H          4.04450        2.72940        1.18500
H          5.75700        2.75120        1.61370
H          5.59690        3.27490       -0.79130
H          6.30380        1.66560       -0.65300
H          3.33460        2.33590       -1.16780
H          4.46270        1.70100       -2.37010
H          2.03870        0.19670       -2.05790
H          0.29480        0.33200        2.38560
H          2.66440       -0.39160        5.13210
H          1.90590       -1.03550        7.39750
H         -0.49400       -1.48510        7.83720
H         -2.15280       -1.28710        6.00350
H         -1.41990       -0.65190        3.72140
