36
rmsd4.gzmat
S          0.00000        0.00000        0.00000
C          1.66790        0.00000        0.00000
N          2.51870        0.00000        1.10080
C          3.95470       -0.09860        0.66470
H          4.26920       -1.17490        0.77160
C          4.89280        0.76320        1.50790
C          4.93250        2.22490        1.07020
C          5.32300        2.29970       -0.40780
C          4.20040        1.70660       -1.25770
C          3.86540        0.25740       -0.86190
H          4.48970       -0.45740       -1.45000
N          2.42870       -0.00200       -1.14470
C          2.23070       -0.43010        2.44050
O          3.08600       -1.06110        3.02480
N          1.04050        0.00720        2.97430
C          0.62330       -0.27660        4.29970
C         -0.62200        0.25830        4.68090
C         -1.08730        0.05530        5.97360
C         -0.33210       -0.67670        6.88970
C          0.89190       -1.21570        6.50120
C          1.37870       -1.02240        5.21040
H          4.61050        0.69290        2.58180
H          5.91380        0.32990        1.45900
H          3.94760        2.70360        1.23760
H          5.65100        2.79070        1.69210
H          5.50790        3.34940       -0.70570
H          6.27580        1.76720       -0.58540
H          3.29920        2.34820       -1.15360
H          4.47160        1.74610       -2.32980
H          2.04790        0.20420       -2.05480
H          0.36420        0.50470        2.37920
H         -1.22070        0.82510        3.97080
H         -2.04910        0.46970        6.27340
H         -0.70030       -0.82930        7.90050
H          1.47980       -1.79650        7.21150
H          2.34000       -1.45820        4.93180
