36
rmsd2.gzmat
S          0.00000        0.00000        0.00000
C          1.66920        0.00000        0.00000
N          2.52450        0.00000        1.09830
C          3.95960       -0.09200        0.65590
H          4.28360       -1.16420        0.78010
C          4.89370        0.78830        1.48600
C          4.98210        2.23080        0.99460
C          5.37880        2.24010       -0.48350
C          4.23250        1.66210       -1.31150
C          3.86470        0.23280       -0.87720
H          4.46870       -0.51040       -1.45270
N          2.42240       -0.00300       -1.14800
C          2.24470       -0.46540        2.42850
O          3.11910       -1.07690        3.00620
N          1.03420       -0.09410        2.96640
C          0.60690       -0.51130        4.25460
C          1.48790       -0.94640        5.25010
C          0.98030       -1.31380        6.49420
C         -0.38560       -1.24080        6.75500
C         -1.25820       -0.79950        5.76020
C         -0.77420       -0.43620        4.50980
H          4.58350        0.76900        2.55400
H          5.90550        0.33100        1.48250
H          4.01360        2.74830        1.14050
H          5.71750        2.79480        1.59840
H          5.60710        3.27000       -0.81760
H          6.30900        1.66300       -0.64030
H          3.35020        2.33040       -1.21490
H          4.49580        1.66960       -2.38630
H          2.03780        0.20100       -2.05710
H          0.33100        0.37650        2.38060
H          2.56180       -1.00710        5.06740
H          1.66180       -1.66490        7.26810
H         -0.77240       -1.52890        7.72860
H         -2.32670       -0.74340        5.96320
H         -1.46250       -0.10550        3.73420
