rmsd5.gzmat
 OpenBabel08211713393D

 36 38  0  0  1  0  0  0  0  0999 V2000
    0.0000    0.0000    0.0000 S   0  0  0  0  0  0  0  0  0  0  0  0
    1.6690    0.0000    0.0000 C   0  0  0  0  0  0  0  0  0  0  0  0
    2.5233    0.0000    1.0986 N   0  0  0  0  0  0  0  0  0  0  0  0
    3.9594   -0.0854    0.6575 C   0  0  2  0  0  0  0  0  0  0  0  0
    4.2892   -1.1558    0.7802 H   0  0  0  0  0  0  0  0  0  0  0  0
    4.8852    0.7996    1.4910 C   0  0  0  0  0  0  0  0  0  0  0  0
    4.9487    2.2463    1.0087 C   0  0  0  0  0  0  0  0  0  0  0  0
    5.3514    2.2711   -0.4676 C   0  0  0  0  0  0  0  0  0  0  0  0
    4.2215    1.6755   -1.3057 C   0  0  0  0  0  0  0  0  0  0  0  0
    3.8647    0.2424   -0.8745 C   0  0  2  0  0  0  0  0  0  0  0  0
    4.4745   -0.4949   -1.4510 H   0  0  0  0  0  0  0  0  0  0  0  0
    2.4237   -0.0026   -1.1476 N   0  0  0  0  0  0  0  0  0  0  0  0
    2.2445   -0.4666    2.4281 C   0  0  0  0  0  0  0  0  0  0  0  0
    3.1201   -1.0753    3.0066 O   0  0  0  0  0  0  0  0  0  0  0  0
    1.0321   -0.1028    2.9672 N   0  0  0  0  0  0  0  0  0  0  0  0
    0.6166   -0.5287    4.2572 C   0  0  0  0  0  0  0  0  0  0  0  0
    1.5191   -0.8756    5.2685 C   0  0  0  0  0  0  0  0  0  0  0  0
    1.0290   -1.2454    6.5187 C   0  0  0  0  0  0  0  0  0  0  0  0
   -0.3414   -1.2680    6.7669 C   0  0  0  0  0  0  0  0  0  0  0  0
   -1.2357   -0.9183    5.7550 C   0  0  0  0  0  0  0  0  0  0  0  0
   -0.7685   -0.5490    4.4995 C   0  0  0  0  0  0  0  0  0  0  0  0
    4.5768    0.7667    2.5593 H   0  0  0  0  0  0  0  0  0  0  0  0
    5.9037    0.3578    1.4802 H   0  0  0  0  0  0  0  0  0  0  0  0
    3.9698    2.7444    1.1529 H   0  0  0  0  0  0  0  0  0  0  0  0
    5.6701    2.8205    1.6193 H   0  0  0  0  0  0  0  0  0  0  0  0
    5.5591    3.3078   -0.7946 H   0  0  0  0  0  0  0  0  0  0  0  0
    6.2939    1.7139   -0.6234 H   0  0  0  0  0  0  0  0  0  0  0  0
    3.3307    2.3338   -1.2194 H   0  0  0  0  0  0  0  0  0  0  0  0
    4.4953    1.6832   -2.3777 H   0  0  0  0  0  0  0  0  0  0  0  0
    2.0396    0.2029   -2.0568 H   0  0  0  0  0  0  0  0  0  0  0  0
    0.3223    0.3604    2.3847 H   0  0  0  0  0  0  0  0  0  0  0  0
    2.5959   -0.8637    5.0923 H   0  0  0  0  0  0  0  0  0  0  0  0
    1.7287   -1.5198    7.3075 H   0  0  0  0  0  0  0  0  0  0  0  0
   -0.7137   -1.5588    7.7457 H   0  0  0  0  0  0  0  0  0  0  0  0
   -2.3075   -0.9391    5.9483 H   0  0  0  0  0  0  0  0  0  0  0  0
   -1.4718   -0.2880    3.7105 H   0  0  0  0  0  0  0  0  0  0  0  0
  1  2  2  0  0  0  0
  2  3  1  0  0  0  0
  3 13  1  0  0  0  0
  4 10  1  0  0  0  0
  4  5  1  1  0  0  0
  4  3  1  0  0  0  0
  4  6  1  0  0  0  0
  6 22  1  0  0  0  0
  7 24  1  0  0  0  0
  7  6  1  0  0  0  0
  7 25  1  0  0  0  0
  8  7  1  0  0  0  0
  9 28  1  0  0  0  0
  9 10  1  0  0  0  0
  9  8  1  0  0  0  0
 10 11  1  6  0  0  0
 12 10  1  0  0  0  0
 12  2  1  0  0  0  0
 13 15  1  0  0  0  0
 13 14  2  0  0  0  0
 15 16  1  0  0  0  0
 16 21  2  0  0  0  0
 16 17  1  0  0  0  0
 17 18  2  0  0  0  0
 18 19  1  0  0  0  0
 18 33  1  0  0  0  0
 19 34  1  0  0  0  0
 20 35  1  0  0  0  0
 20 19  2  0  0  0  0
 21 20  1  0  0  0  0
 23  6  1  0  0  0  0
 26  8  1  0  0  0  0
 27  8  1  0  0  0  0
 29  9  1  0  0  0  0
 30 12  1  0  0  0  0
 31 15  1  0  0  0  0
 32 17  1  0  0  0  0
 36 21  1  0  0  0  0
M  END
$$$$
