36

S          0.13820       -0.08170       -0.34560
C          1.78660       -0.10510       -0.20690
N          2.55400       -0.00340        0.94200
C          3.99870       -0.03130        0.61370
H          4.31380       -1.09200        0.64460
C          4.94680        0.77690        1.49800
C          4.86850        2.28620        1.27140
C          5.06000        2.61960       -0.20970
C          3.97670        1.93700       -1.04640
C          3.95790        0.40890       -0.86240
H          4.78650       -0.05910       -1.41630
N          2.67020       -0.16050       -1.25680
C          2.05260        0.10410        2.26570
O          2.39690        1.00800        3.00200
N          1.18170       -0.87140        2.66470
C          0.89560       -2.12410        2.08140
C          1.90590       -2.91560        1.51930
C          1.58820       -4.14870        0.94850
C          0.27300       -4.61940        0.96350
C         -0.72850       -3.84190        1.55270
C         -0.42320       -2.59680        2.09960
H          4.77290        0.52920        2.55360
H          5.96440        0.42450        1.25110
H          3.88830        2.64760        1.62070
H          5.63280        2.78850        1.88540
H          5.02380        3.70840       -0.37340
H          6.06120        2.28670       -0.54130
H          2.99310        2.33070       -0.74000
H          4.09160        2.16760       -2.11870
H          2.27380        0.04840       -2.16710
H          0.67390       -0.62420        3.50800
H          2.94010       -2.57200        1.53750
H          2.38170       -4.75410        0.50400
H          0.03000       -5.58840        0.52240
H         -1.76110       -4.19830        1.56910
H         -1.20970       -1.96660        2.51940
