36
rmsd3.gzmat
S          0.00000        0.00000        0.00000
C          1.66740        0.00000        0.00000
N          2.51860        0.00000        1.10210
C          3.95570       -0.09050        0.66650
H          4.27860       -1.16370        0.78510
C          4.88630        0.78380        1.50690
C          4.98920        2.22930        1.02690
C          5.37360        2.25040       -0.45430
C          4.21800        1.68450       -1.27740
C          3.86620        0.24540       -0.86350
H          4.48150       -0.48380       -1.44370
N          2.42720       -0.00100       -1.14480
C          2.22930       -0.47270        2.42750
O          3.09150       -1.10220        3.00360
N          1.02520       -0.08170        2.96400
C          0.61150       -0.43590        4.27420
C         -0.48540        0.27570        4.79360
C         -0.93870       -0.01030        6.07530
C         -0.31830       -0.99730        6.84120
C          0.75620       -1.70900        6.31350
C          1.22690       -1.43830        5.03100
H          4.56460        0.76000        2.57170
H          5.89680        0.32250        1.50920
H          4.03030        2.75990        1.18590
H          5.73770        2.77670        1.63060
H          5.60240        3.28310       -0.77960
H          6.29970        1.67060       -0.62460
H          3.33280        2.34420       -1.15360
H          4.46320        1.71450       -2.35580
H          2.04740        0.21340       -2.05400
H          0.35430        0.45230        2.39760
H         -0.97730        1.04370        4.20070
H         -1.78410        0.54080        6.48480
H         -0.67380       -1.21110        7.84520
H          1.23640       -2.48710        6.90590
H          2.06620       -2.01220        4.63450
