rmsd4.gzmat
 OpenBabel08211713393D

 36 38  0  0  1  0  0  0  0  0999 V2000
    0.0000    0.0000    0.0000 S   0  0  0  0  0  0  0  0  0  0  0  0
    1.6679    0.0000    0.0000 C   0  0  0  0  0  0  0  0  0  0  0  0
    2.5187    0.0000    1.1008 N   0  0  0  0  0  0  0  0  0  0  0  0
    3.9547   -0.0986    0.6647 C   0  0  2  0  0  0  0  0  0  0  0  0
    4.2692   -1.1749    0.7716 H   0  0  0  0  0  0  0  0  0  0  0  0
    4.8928    0.7632    1.5079 C   0  0  0  0  0  0  0  0  0  0  0  0
    4.9325    2.2249    1.0702 C   0  0  0  0  0  0  0  0  0  0  0  0
    5.3230    2.2997   -0.4078 C   0  0  0  0  0  0  0  0  0  0  0  0
    4.2004    1.7066   -1.2577 C   0  0  0  0  0  0  0  0  0  0  0  0
    3.8654    0.2574   -0.8619 C   0  0  2  0  0  0  0  0  0  0  0  0
    4.4897   -0.4574   -1.4500 H   0  0  0  0  0  0  0  0  0  0  0  0
    2.4287   -0.0020   -1.1447 N   0  0  0  0  0  0  0  0  0  0  0  0
    2.2307   -0.4301    2.4405 C   0  0  0  0  0  0  0  0  0  0  0  0
    3.0860   -1.0611    3.0248 O   0  0  0  0  0  0  0  0  0  0  0  0
    1.0405    0.0072    2.9743 N   0  0  0  0  0  0  0  0  0  0  0  0
    0.6233   -0.2766    4.2997 C   0  0  0  0  0  0  0  0  0  0  0  0
   -0.6220    0.2583    4.6809 C   0  0  0  0  0  0  0  0  0  0  0  0
   -1.0873    0.0553    5.9736 C   0  0  0  0  0  0  0  0  0  0  0  0
   -0.3321   -0.6767    6.8897 C   0  0  0  0  0  0  0  0  0  0  0  0
    0.8919   -1.2157    6.5012 C   0  0  0  0  0  0  0  0  0  0  0  0
    1.3787   -1.0224    5.2104 C   0  0  0  0  0  0  0  0  0  0  0  0
    4.6105    0.6929    2.5818 H   0  0  0  0  0  0  0  0  0  0  0  0
    5.9138    0.3299    1.4590 H   0  0  0  0  0  0  0  0  0  0  0  0
    3.9476    2.7036    1.2376 H   0  0  0  0  0  0  0  0  0  0  0  0
    5.6510    2.7907    1.6921 H   0  0  0  0  0  0  0  0  0  0  0  0
    5.5079    3.3494   -0.7057 H   0  0  0  0  0  0  0  0  0  0  0  0
    6.2758    1.7672   -0.5854 H   0  0  0  0  0  0  0  0  0  0  0  0
    3.2992    2.3482   -1.1536 H   0  0  0  0  0  0  0  0  0  0  0  0
    4.4716    1.7461   -2.3298 H   0  0  0  0  0  0  0  0  0  0  0  0
    2.0479    0.2042   -2.0548 H   0  0  0  0  0  0  0  0  0  0  0  0
    0.3642    0.5047    2.3792 H   0  0  0  0  0  0  0  0  0  0  0  0
   -1.2207    0.8251    3.9708 H   0  0  0  0  0  0  0  0  0  0  0  0
   -2.0491    0.4697    6.2734 H   0  0  0  0  0  0  0  0  0  0  0  0
   -0.7003   -0.8293    7.9005 H   0  0  0  0  0  0  0  0  0  0  0  0
    1.4798   -1.7965    7.2115 H   0  0  0  0  0  0  0  0  0  0  0  0
    2.3400   -1.4582    4.9318 H   0  0  0  0  0  0  0  0  0  0  0  0
  1  2  2  0  0  0  0
  2  3  1  0  0  0  0
  3 13  1  0  0  0  0
  4 10  1  0  0  0  0
  4  5  1  1  0  0  0
  4  3  1  0  0  0  0
  4  6  1  0  0  0  0
  6 22  1  0  0  0  0
  7 24  1  0  0  0  0
  7  6  1  0  0  0  0
  7 25  1  0  0  0  0
  8  7  1  0  0  0  0
  9 28  1  0  0  0  0
  9 10  1  0  0  0  0
  9  8  1  0  0  0  0
 10 11  1  6  0  0  0
 12 10  1  0  0  0  0
 12  2  1  0  0  0  0
 13 15  1  0  0  0  0
 13 14  2  0  0  0  0
 15 16  1  0  0  0  0
 16 17  2  0  0  0  0
 16 21  1  0  0  0  0
 17 18  1  0  0  0  0
 18 33  1  0  0  0  0
 18 19  2  0  0  0  0
 19 34  1  0  0  0  0
 20 19  1  0  0  0  0
 20 35  1  0  0  0  0
 21 20  2  0  0  0  0
 23  6  1  0  0  0  0
 26  8  1  0  0  0  0
 27  8  1  0  0  0  0
 29  9  1  0  0  0  0
 30 12  1  0  0  0  0
 31 15  1  0  0  0  0
 32 17  1  0  0  0  0
 36 21  1  0  0  0  0
M  END
$$$$
