rmsd114.gzmat
 OpenBabel08211713413D

 48 50  0  0  1  0  0  0  0  0999 V2000
    0.0000    0.0000    0.0000 C   0  0  0  0  0  0  0  0  0  0  0  0
    1.3949    0.0000    0.0000 C   0  0  0  0  0  0  0  0  0  0  0  0
    2.0904    0.0000    1.2046 C   0  0  0  0  0  0  0  0  0  0  0  0
    1.3944    0.0108    2.4185 C   0  0  0  0  0  0  0  0  0  0  0  0
   -0.0036    0.0211    2.4122 C   0  0  0  0  0  0  0  0  0  0  0  0
   -0.6998    0.0184    1.2062 C   0  0  0  0  0  0  0  0  0  0  0  0
    2.1389   -0.0216    3.7059 C   0  0  0  0  0  0  0  0  0  0  0  0
   -0.8650   -0.0355   -1.5197 S   0  0  0  0  0  0  0  0  0  0  0  0
   -2.1833    0.5201   -1.3453 O   0  0  0  0  0  0  0  0  0  0  0  0
    0.0030    0.4003   -2.5898 O   0  0  0  0  0  0  0  0  0  0  0  0
   -1.0453   -1.7720   -1.7607 N   0  0  0  0  0  0  0  0  0  0  0  0
   -0.8222   -2.2768   -3.1378 C   0  0  0  0  0  0  0  0  0  0  0  0
   -1.5842   -3.6112   -3.2493 C   0  0  0  0  0  0  0  0  0  0  0  0
   -2.6065   -3.6138   -2.1021 C   0  0  0  0  0  0  0  0  0  0  0  0
   -2.2305   -2.4301   -1.1871 C   0  0  1  0  0  0  0  0  0  0  0  0
   -3.1122   -1.7230   -1.1096 H   0  0  0  0  0  0  0  0  0  0  0  0
   -1.9377   -2.8914    0.2525 C   0  0  0  0  0  0  0  0  0  0  0  0
   -2.6486   -2.4882    1.1552 O   0  0  0  0  0  0  0  0  0  0  0  0
   -0.9582   -3.8137    0.5589 N   0  0  0  0  0  0  0  0  0  0  0  0
   -0.7382   -4.2090    1.9621 C   0  0  0  0  0  0  0  0  0  0  0  0
    0.7942   -4.2930    2.1410 C   0  0  1  0  0  0  0  0  0  0  0  0
    1.1183   -5.1399    2.7791 H   0  0  0  0  0  0  0  0  0  0  0  0
    1.3873   -4.3303    0.7157 C   0  0  0  0  0  0  0  0  0  0  0  0
    0.1974   -4.1682   -0.2564 C   0  0  1  0  0  0  0  0  0  0  0  0
    0.4096   -3.3852   -1.0386 H   0  0  0  0  0  0  0  0  0  0  0  0
   -0.0624   -5.5006   -0.9482 C   0  0  0  0  0  0  0  0  0  0  0  0
   -0.9432   -6.3005   -0.8066 O   0  0  0  0  0  0  0  0  0  0  0  0
    0.9325   -5.7178   -1.8542 O   0  0  0  0  0  0  0  0  0  0  0  0
    1.2713   -3.1760    2.8429 O   0  0  0  0  0  0  0  0  0  0  0  0
    1.9571    0.0097   -0.9416 H   0  0  0  0  0  0  0  0  0  0  0  0
    3.1780    0.0000    1.2045 H   0  0  0  0  0  0  0  0  0  0  0  0
   -0.5539    0.0343    3.3518 H   0  0  0  0  0  0  0  0  0  0  0  0
   -1.8000    0.0256    1.2270 H   0  0  0  0  0  0  0  0  0  0  0  0
    1.5701    0.4179    4.5377 H   0  0  0  0  0  0  0  0  0  0  0  0
    3.0965    0.5149    3.6537 H   0  0  0  0  0  0  0  0  0  0  0  0
    2.3718   -1.0619    3.9982 H   0  0  0  0  0  0  0  0  0  0  0  0
    0.2717   -2.4071   -3.2883 H   0  0  0  0  0  0  0  0  0  0  0  0
   -1.1669   -1.5630   -3.9174 H   0  0  0  0  0  0  0  0  0  0  0  0
   -2.0774   -3.7110   -4.2293 H   0  0  0  0  0  0  0  0  0  0  0  0
   -0.8936   -4.4680   -3.1709 H   0  0  0  0  0  0  0  0  0  0  0  0
   -3.6355   -3.4945   -2.4843 H   0  0  0  0  0  0  0  0  0  0  0  0
   -2.6045   -4.5768   -1.5587 H   0  0  0  0  0  0  0  0  0  0  0  0
   -1.2317   -5.1879    2.1462 H   0  0  0  0  0  0  0  0  0  0  0  0
   -1.1956   -3.4779    2.6677 H   0  0  0  0  0  0  0  0  0  0  0  0
    2.1200   -3.5118    0.5849 H   0  0  0  0  0  0  0  0  0  0  0  0
    1.9541   -5.2583    0.5344 H   0  0  0  0  0  0  0  0  0  0  0  0
    0.8542   -6.5740   -2.3390 H   0  0  0  0  0  0  0  0  0  0  0  0
    0.9885   -2.3407    2.4077 H   0  0  0  0  0  0  0  0  0  0  0  0
  1  2  2  0  0  0  0
  1  6  1  0  0  0  0
  2  3  1  0  0  0  0
  3  4  2  0  0  0  0
  4  7  1  0  0  0  0
  5  4  1  0  0  0  0
  5 32  1  0  0  0  0
  6 33  1  0  0  0  0
  6  5  2  0  0  0  0
  7 36  1  0  0  0  0
  7 34  1  0  0  0  0
  8  9  2  0  0  0  0
  8  1  1  0  0  0  0
 10  8  2  0  0  0  0
 11  8  1  0  0  0  0
 11 15  1  0  0  0  0
 12 11  1  0  0  0  0
 13 40  1  0  0  0  0
 13 12  1  0  0  0  0
 13 14  1  0  0  0  0
 14 42  1  0  0  0  0
 14 15  1  0  0  0  0
 15 16  1  1  0  0  0
 15 17  1  0  0  0  0
 17 19  1  0  0  0  0
 17 18  2  0  0  0  0
 19 20  1  0  0  0  0
 20 21  1  0  0  0  0
 20 43  1  0  0  0  0
 20 44  1  0  0  0  0
 21 22  1  1  0  0  0
 21 29  1  0  0  0  0
 23 21  1  0  0  0  0
 24 25  1  6  0  0  0
 24 19  1  0  0  0  0
 24 23  1  0  0  0  0
 26 27  2  0  0  0  0
 26 24  1  0  0  0  0
 28 26  1  0  0  0  0
 30  2  1  0  0  0  0
 31  3  1  0  0  0  0
 35  7  1  0  0  0  0
 37 12  1  0  0  0  0
 38 12  1  0  0  0  0
 39 13  1  0  0  0  0
 41 14  1  0  0  0  0
 45 23  1  0  0  0  0
 46 23  1  0  0  0  0
 47 28  1  0  0  0  0
 48 29  1  0  0  0  0
M  END
$$$$
