48

C          0.11970       -0.08970       -0.04930
C          1.49010       -0.05460        0.22250
C          1.91140        0.05250        1.54650
C          0.98270        0.11130        2.60350
C         -0.38570        0.08820        2.29300
C         -0.82640       -0.00060        0.97210
C          1.45710        0.12670        4.03080
S         -0.41360       -0.22390       -1.74510
O         -1.75360        0.36870       -1.84110
O          0.66760        0.23230       -2.62100
N         -0.49870       -1.91480       -1.94630
C         -0.43030       -2.36420       -3.36750
C         -1.80130       -2.98940       -3.62950
C         -2.16730       -3.59960       -2.27380
C         -1.65160       -2.54460       -1.27080
H         -2.44970       -1.80040       -1.13170
C         -1.42770       -3.10030        0.13910
O         -2.36260       -3.05350        0.92480
N         -0.22950       -3.65750        0.50640
C         -0.09120       -4.22510        1.84970
C          1.41210       -4.13560        2.10590
H          1.74200       -4.87320        2.85140
C          2.01340       -4.43280        0.72040
C          0.95370       -3.93150       -0.30930
H          1.27570       -3.03350       -0.84650
C          0.75550       -5.01990       -1.35230
O          1.27880       -5.03810       -2.43740
O         -0.03510       -6.01820       -0.90550
O          1.80320       -2.87640        2.60380
H          2.20320       -0.09430       -0.60230
H          2.98030        0.07830        1.77110
H         -1.12130        0.13700        3.09900
H         -1.89040       -0.00860        0.73610
H          0.68140        0.50150        4.71370
H          2.35940        0.74530        4.15030
H          1.71520       -0.90160        4.33500
H          0.37850       -3.10260       -3.46200
H         -0.19220       -1.51730       -4.02250
H         -2.52610       -2.20290       -3.89320
H         -1.77960       -3.72850       -4.44360
H         -3.24290       -3.77210       -2.13450
H         -1.66110       -4.56340       -2.12450
H         -0.44680       -5.27090        1.86860
H         -0.68340       -3.64610        2.56770
H          2.98070       -3.93020        0.59360
H          2.17480       -5.51490        0.60790
H         -0.06520       -6.69320       -1.60530
H          1.44850       -2.18550        2.02480
