48

C          0.15460       -0.35440       -0.22490
C          1.55110       -0.36780       -0.26040
C          2.25920       -0.25830        0.93520
C          1.59330       -0.13410        2.16610
C          0.18640       -0.10100        2.16470
C         -0.53950       -0.20700        0.97720
C          2.35820       -0.09360        3.46060
S         -0.74330       -0.51150       -1.75670
O         -2.00410        0.22500       -1.60440
O          0.17440       -0.20340       -2.85620
N         -1.05460       -2.19790       -1.84650
C         -1.21590       -2.67980       -3.25210
C         -2.69600       -3.03750       -3.36740
C         -3.00290       -3.59430       -1.97870
C         -2.22360       -2.63840       -1.04560
H         -2.86650       -1.76920       -0.84140
C         -2.02570       -3.28280        0.32730
O         -3.03100       -3.39310        1.01560
N         -0.82470       -3.76280        0.77490
C         -0.79530       -4.43280        2.08230
C          0.66610       -4.30950        2.50470
H          0.95290       -5.08770        3.22660
C          1.40130       -4.47360        1.16930
C          0.49520       -3.73090        0.15270
H          0.84860       -2.70420        0.01360
C          0.55740       -4.41990       -1.19050
O         -0.21860       -5.24510       -1.60390
O          1.65710       -4.03830       -1.86330
O          0.94170       -3.07170        3.12680
H          2.06040       -0.47000       -1.21940
H          3.35150       -0.27170        0.91570
H         -0.34890        0.01410        3.11060
H         -1.62960       -0.16730        0.98010
H          1.86460        0.55290        4.20140
H          3.38720        0.26410        3.31260
H          2.40670       -1.11070        3.88480
H         -0.58910       -3.57190       -3.38990
H         -0.87370       -1.91240       -3.95520
H         -3.28720       -2.12710       -3.55690
H         -2.89360       -3.75610       -4.17630
H         -4.06790       -3.60820       -1.71530
H         -2.60210       -4.61310       -1.87800
H         -1.10810       -5.48760        1.98600
H         -1.48410       -3.94020        2.77920
H          2.41840       -4.06240        1.19630
H          1.45970       -5.54280        0.91150
H          1.68350       -4.54950       -2.68990
H          0.55770       -2.35980        2.59350
