
     RDKit          3D

 48 50  0  0  0  0  0  0  0  0999 V2000
    0.2514   -0.3715   -0.0666 C   0  0  0  0  0  0  0  0  0  0  0  0
    1.5818   -0.4885   -0.4729 C   0  0  0  0  0  0  0  0  0  0  0  0
    2.5813   -0.5713    0.4944 C   0  0  0  0  0  0  0  0  0  0  0  0
    2.2758   -0.5259    1.8647 C   0  0  0  0  0  0  0  0  0  0  0  0
    0.9301   -0.3913    2.2438 C   0  0  0  0  0  0  0  0  0  0  0  0
   -0.0856   -0.3155    1.2876 C   0  0  0  0  0  0  0  0  0  0  0  0
    3.3709   -0.6220    2.8941 C   0  0  0  0  0  0  0  0  0  0  0  0
   -1.0684   -0.2699   -1.2735 S   0  0  0  0  0  0  0  0  0  0  0  0
   -2.2418   -0.8940   -0.6405 O   0  0  0  0  0  0  0  0  0  0  0  0
   -1.1494    1.0929   -1.7991 O   0  0  0  0  0  0  0  0  0  0  0  0
   -0.5293   -1.2345   -2.5140 N   0  0  0  0  0  0  0  0  0  0  0  0
   -0.4322   -0.7490   -3.9015 C   0  0  0  0  0  0  0  0  0  0  0  0
   -1.0036   -1.9200   -4.7028 C   0  0  0  0  0  0  0  0  0  0  0  0
   -0.5468   -3.1414   -3.8973 C   0  0  0  0  0  0  0  0  0  0  0  0
   -0.6997   -2.6956   -2.4318 C   0  0  1  0  0  0  0  0  0  0  0  0
   -1.7026   -2.9297   -2.0491 H   0  0  0  0  0  0  0  0  0  0  0  0
    0.4016   -3.2854   -1.5413 C   0  0  0  0  0  0  0  0  0  0  0  0
    1.5762   -3.2315   -1.8872 O   0  0  0  0  0  0  0  0  0  0  0  0
    0.0424   -3.8209   -0.3485 N   0  0  0  0  0  0  0  0  0  0  0  0
   -1.3008   -3.9837    0.2247 C   0  0  0  0  0  0  0  0  0  0  0  0
   -1.0114   -4.2676    1.7055 C   0  0  1  0  0  0  0  0  0  0  0  0
   -1.8167   -4.8628    2.1599 H   0  0  0  0  0  0  0  0  0  0  0  0
    0.3090   -5.0485    1.6432 C   0  0  0  0  0  0  0  0  0  0  0  0
    1.0964   -4.3508    0.5177 C   0  0  1  0  0  0  0  0  0  0  0  0
    1.7316   -3.5312    0.8890 H   0  0  0  0  0  0  0  0  0  0  0  0
    1.9775   -5.3404   -0.2337 C   0  0  0  0  0  0  0  0  0  0  0  0
    1.5596   -6.1996   -0.9662 O   0  0  0  0  0  0  0  0  0  0  0  0
    3.2711   -5.2040    0.0968 O   0  0  0  0  0  0  0  0  0  0  0  0
   -0.9092   -3.0959    2.4811 O   0  0  0  0  0  0  0  0  0  0  0  0
    1.8260   -0.5725   -1.5313 H   0  0  0  0  0  0  0  0  0  0  0  0
    3.6196   -0.6953    0.1772 H   0  0  0  0  0  0  0  0  0  0  0  0
    0.6691   -0.3606    3.3045 H   0  0  0  0  0  0  0  0  0  0  0  0
   -1.1331   -0.2456    1.5836 H   0  0  0  0  0  0  0  0  0  0  0  0
    4.0180    0.2705    2.8628 H   0  0  0  0  0  0  0  0  0  0  0  0
    4.0166   -1.4946    2.7063 H   0  0  0  0  0  0  0  0  0  0  0  0
    2.9645   -0.7076    3.9118 H   0  0  0  0  0  0  0  0  0  0  0  0
    0.6234   -0.5613   -4.1638 H   0  0  0  0  0  0  0  0  0  0  0  0
   -0.9873    0.1895   -4.0183 H   0  0  0  0  0  0  0  0  0  0  0  0
   -2.1040   -1.8576   -4.7203 H   0  0  0  0  0  0  0  0  0  0  0  0
   -0.6457   -1.9348   -5.7427 H   0  0  0  0  0  0  0  0  0  0  0  0
   -1.1224   -4.0542   -4.1061 H   0  0  0  0  0  0  0  0  0  0  0  0
    0.5170   -3.3486   -4.0842 H   0  0  0  0  0  0  0  0  0  0  0  0
   -1.8265   -4.8349   -0.2419 H   0  0  0  0  0  0  0  0  0  0  0  0
   -1.9029   -3.0728    0.1106 H   0  0  0  0  0  0  0  0  0  0  0  0
    0.8366   -5.0412    2.6057 H   0  0  0  0  0  0  0  0  0  0  0  0
    0.1106   -6.0909    1.3497 H   0  0  0  0  0  0  0  0  0  0  0  0
    3.7586   -5.8868   -0.3955 H   0  0  0  0  0  0  0  0  0  0  0  0
   -0.2827   -2.4864    2.0640 H   0  0  0  0  0  0  0  0  0  0  0  0
  1  2  2  0
  1  6  1  0
  8  1  1  0
  2  3  1  0
  2 30  1  0
  3  4  2  0
  3 31  1  0
  4  5  1  0
  4  7  1  0
  5  6  2  0
  5 32  1  0
  6 33  1  0
  7 34  1  0
  7 35  1  0
  7 36  1  0
  8  9  2  0
  8 10  2  0
  8 11  1  0
 11 12  1  0
 11 15  1  0
 12 13  1  0
 12 37  1  0
 12 38  1  0
 13 14  1  0
 13 39  1  0
 13 40  1  0
 14 15  1  0
 14 41  1  0
 14 42  1  0
 15 16  1  1
 15 17  1  0
 17 18  2  0
 17 19  1  0
 19 20  1  0
 19 24  1  0
 20 21  1  0
 20 43  1  0
 20 44  1  0
 21 22  1  1
 21 23  1  0
 21 29  1  0
 23 24  1  0
 23 45  1  0
 23 46  1  0
 24 25  1  1
 24 26  1  0
 26 27  2  0
 26 28  1  0
 28 47  1  0
 29 48  1  0
M  END

