48

C          0.00710       -0.24790        0.02970
C          1.38650       -0.04690       -0.07500
C          2.15540       -0.01400        1.08580
C          1.56700       -0.17170        2.35360
C          0.17650       -0.35850        2.42420
C         -0.61190       -0.39450        1.27040
C          2.42210       -0.17780        3.59430
S         -0.97380       -0.24240       -1.46610
O         -2.33600        0.15300       -1.10140
O         -0.21870        0.47350       -2.49720
N         -0.96030       -1.87340       -1.94690
C         -0.83080       -2.11880       -3.39840
C         -1.01880       -3.63150       -3.48050
C         -2.06210       -3.94720       -2.38800
C         -2.02760       -2.74000       -1.40720
H         -2.99020       -2.20910       -1.42310
C         -1.86290       -3.12430        0.06840
O         -2.79980       -2.97000        0.83830
N         -0.67850       -3.63940        0.50950
C         -0.52870       -3.95390        1.92750
C          0.98910       -4.15750        2.14150
H          1.20290       -5.22500        2.29890
C          1.63450       -3.68170        0.82420
C          0.54260       -3.88960       -0.23850
H          0.64430       -3.18130       -1.06690
C          0.63940       -5.28910       -0.83330
O          1.35160       -5.57420       -1.76340
O         -0.12320       -6.19380       -0.18910
O          1.48700       -3.50160        3.28510
H          1.83600        0.09760       -1.05840
H          3.23410        0.14520        1.01110
H         -0.30590       -0.45890        3.40040
H         -1.69190       -0.53620        1.32860
H          2.90260       -1.16340        3.72390
H          1.82910        0.02550        4.49770
H          3.22630        0.57050        3.53140
H          0.14480       -1.76900       -3.75710
H         -1.61480       -1.58480       -3.96660
H         -1.35040       -3.94660       -4.48020
H         -0.06750       -4.14120       -3.27270
H         -3.07270       -4.03230       -2.81090
H         -1.85450       -4.89630       -1.87430
H         -1.11820       -4.84290        2.19900
H         -0.91140       -3.11850        2.53320
H          1.84080       -2.60550        0.89920
H          2.57560       -4.19510        0.58510
H          0.03440       -7.05380       -0.61670
H          1.19460       -2.58100        3.23540
