48
rmsd210.gzmat
C          0.00000        0.00000        0.00000
C          1.39430        0.00000        0.00000
C          2.08960        0.00000        1.20530
C          1.39450        0.01140        2.41970
C         -0.00290        0.02510        2.41330
C         -0.69860        0.02010        1.20730
C          2.13720        0.00710        3.70880
S         -0.87490       -0.04040       -1.51370
O         -2.18920        0.52090       -1.32410
O         -0.02080        0.38830       -2.59710
N         -1.06860       -1.77650       -1.74880
C         -1.03500       -2.26370       -3.14960
C         -1.78640       -3.60910       -3.16840
C         -2.64480       -3.63230       -1.89440
C         -2.16080       -2.45080       -1.02780
H         -3.03150       -1.75480       -0.82940
C         -1.67760       -2.92440        0.35480
O         -2.29450       -2.56930        1.34400
N         -0.62140       -3.79110        0.52410
C         -0.21500       -4.20080        1.88010
C          1.32750       -4.28720        1.84700
H          1.73030       -5.15300        2.41080
C          1.72330       -4.28670        0.35400
C          0.41060       -4.13500       -0.44540
H          0.50530       -3.34950       -1.24830
C          0.06910       -5.46970       -1.09720
O         -0.79060       -6.26640       -0.84710
O          0.94740       -5.69310       -2.11470
O          1.90130       -3.19360        2.50950
H          1.95600        0.00740       -0.94150
H          3.17710        0.00130        1.20490
H         -0.55400        0.03550        3.35240
H         -1.79830        0.02410        1.22980
H          1.58610       -0.50500        4.51210
H          2.32830        1.03520        4.05620
H          3.11370       -0.49420        3.63470
H          0.02860       -2.37490       -3.45470
H         -1.49910       -1.54820       -3.86260
H         -2.40550       -3.71060       -4.07410
H         -1.08030       -4.45670       -3.18880
H         -3.71710       -3.52070       -2.13290
H         -2.56120       -4.59960       -1.36540
H         -0.68060       -5.18080        2.12200
H         -0.57240       -3.47520        2.64590
H          2.41510       -3.45010        0.14260
H          2.27930       -5.19780        0.07870
H          0.81090       -6.55220       -2.58170
H          1.57580       -2.34320        2.13750
