rmsd52.gzmat
 OpenBabel08211713413D

 48 50  0  0  1  0  0  0  0  0999 V2000
    0.0000    0.0000    0.0000 C   0  0  0  0  0  0  0  0  0  0  0  0
    1.3938    0.0000    0.0000 C   0  0  0  0  0  0  0  0  0  0  0  0
    2.0899    0.0000    1.2062 C   0  0  0  0  0  0  0  0  0  0  0  0
    1.3940    0.0093    2.4180 C   0  0  0  0  0  0  0  0  0  0  0  0
   -0.0047    0.0198    2.4126 C   0  0  0  0  0  0  0  0  0  0  0  0
   -0.6991    0.0158    1.2071 C   0  0  0  0  0  0  0  0  0  0  0  0
    2.1294    0.0040    3.7127 C   0  0  0  0  0  0  0  0  0  0  0  0
   -0.8801   -0.0058   -1.5140 S   0  0  0  0  0  0  0  0  0  0  0  0
   -2.2545    0.3295   -1.2470 O   0  0  0  0  0  0  0  0  0  0  0  0
   -0.0847    0.7097   -2.4987 O   0  0  0  0  0  0  0  0  0  0  0  0
   -0.7970   -1.6838   -1.9900 N   0  0  0  0  0  0  0  0  0  0  0  0
   -2.0111   -2.5263   -1.8351 C   0  0  0  0  0  0  0  0  0  0  0  0
   -1.9042   -3.6558   -2.8852 C   0  0  0  0  0  0  0  0  0  0  0  0
   -0.4882   -3.5330   -3.4721 C   0  0  0  0  0  0  0  0  0  0  0  0
   -0.1141   -2.0489   -3.2388 C   0  0  1  0  0  0  0  0  0  0  0  0
    0.9860   -1.9202   -3.0998 H   0  0  0  0  0  0  0  0  0  0  0  0
   -0.6400   -1.2681   -4.4579 C   0  0  0  0  0  0  0  0  0  0  0  0
   -1.8257   -1.1327   -4.6609 O   0  0  0  0  0  0  0  0  0  0  0  0
    0.2927   -0.8811   -5.4288 N   0  0  0  0  0  0  0  0  0  0  0  0
    1.6123   -0.3320   -5.0622 C   0  0  0  0  0  0  0  0  0  0  0  0
    1.6537    1.1229   -5.6067 C   0  0  1  0  0  0  0  0  0  0  0  0
    2.6343    1.3924   -6.0467 H   0  0  0  0  0  0  0  0  0  0  0  0
    0.4884    1.2283   -6.6157 C   0  0  0  0  0  0  0  0  0  0  0  0
   -0.2267   -0.1325   -6.5925 C   0  0  1  0  0  0  0  0  0  0  0  0
   -1.3468   -0.0183   -6.5350 H   0  0  0  0  0  0  0  0  0  0  0  0
    0.1285   -0.9492   -7.8294 C   0  0  0  0  0  0  0  0  0  0  0  0
    0.9862   -0.7399   -8.6460 O   0  0  0  0  0  0  0  0  0  0  0  0
   -0.7025   -2.0107   -7.9462 O   0  0  0  0  0  0  0  0  0  0  0  0
    1.4974    2.0457   -4.5717 O   0  0  0  0  0  0  0  0  0  0  0  0
    1.9587    0.0131   -0.9379 H   0  0  0  0  0  0  0  0  0  0  0  0
    3.1772   -0.0028    1.2034 H   0  0  0  0  0  0  0  0  0  0  0  0
   -0.5502    0.0350    3.3533 H   0  0  0  0  0  0  0  0  0  0  0  0
   -1.7959    0.0365    1.2228 H   0  0  0  0  0  0  0  0  0  0  0  0
    1.6952    0.7101    4.4363 H   0  0  0  0  0  0  0  0  0  0  0  0
    3.1891    0.2734    3.6036 H   0  0  0  0  0  0  0  0  0  0  0  0
    2.0982   -0.9930    4.1802 H   0  0  0  0  0  0  0  0  0  0  0  0
   -2.9534   -1.9508   -1.9741 H   0  0  0  0  0  0  0  0  0  0  0  0
   -2.0053   -2.9341   -0.8021 H   0  0  0  0  0  0  0  0  0  0  0  0
   -2.0819   -4.6455   -2.4432 H   0  0  0  0  0  0  0  0  0  0  0  0
   -2.6629   -3.5143   -3.6785 H   0  0  0  0  0  0  0  0  0  0  0  0
    0.2204   -4.1951   -2.9474 H   0  0  0  0  0  0  0  0  0  0  0  0
   -0.4539   -3.8107   -4.5378 H   0  0  0  0  0  0  0  0  0  0  0  0
    2.3965   -0.9601   -5.5330 H   0  0  0  0  0  0  0  0  0  0  0  0
    1.7831   -0.3316   -3.9653 H   0  0  0  0  0  0  0  0  0  0  0  0
   -0.1940    2.0454   -6.3125 H   0  0  0  0  0  0  0  0  0  0  0  0
    0.8551    1.4926   -7.6229 H   0  0  0  0  0  0  0  0  0  0  0  0
   -0.5035   -2.5847   -8.7273 H   0  0  0  0  0  0  0  0  0  0  0  0
    0.8004    1.7512   -3.9279 H   0  0  0  0  0  0  0  0  0  0  0  0
  1  6  1  0  0  0  0
  2  1  2  0  0  0  0
  2  3  1  0  0  0  0
  3  4  2  0  0  0  0
  4  7  1  0  0  0  0
  5  4  1  0  0  0  0
  5 32  1  0  0  0  0
  6 33  1  0  0  0  0
  6  5  2  0  0  0  0
  7 36  1  0  0  0  0
  7 34  1  0  0  0  0
  8  9  2  0  0  0  0
  8  1  1  0  0  0  0
 10  8  2  0  0  0  0
 11 12  1  0  0  0  0
 11  8  1  0  0  0  0
 12 38  1  0  0  0  0
 13 39  1  0  0  0  0
 13 12  1  0  0  0  0
 14 15  1  0  0  0  0
 14 41  1  0  0  0  0
 14 13  1  0  0  0  0
 15 16  1  1  0  0  0
 15 11  1  0  0  0  0
 17 15  1  0  0  0  0
 18 17  2  0  0  0  0
 19 20  1  0  0  0  0
 19 17  1  0  0  0  0
 20 44  1  0  0  0  0
 21 22  1  6  0  0  0
 21 20  1  0  0  0  0
 21 29  1  0  0  0  0
 23 24  1  0  0  0  0
 23 45  1  0  0  0  0
 23 21  1  0  0  0  0
 24 25  1  1  0  0  0
 24 19  1  0  0  0  0
 26 24  1  0  0  0  0
 27 26  2  0  0  0  0
 28 26  1  0  0  0  0
 29 48  1  0  0  0  0
 30  2  1  0  0  0  0
 31  3  1  0  0  0  0
 35  7  1  0  0  0  0
 37 12  1  0  0  0  0
 40 13  1  0  0  0  0
 42 14  1  0  0  0  0
 43 20  1  0  0  0  0
 46 23  1  0  0  0  0
 47 28  1  0  0  0  0
M  END
$$$$
