48

C          0.01890       -0.11610        0.02190
C          1.41500       -0.13430        0.07120
C          2.04560       -0.05930        1.31170
C          1.29910        0.01840        2.50390
C         -0.10130        0.04590        2.41540
C         -0.74940       -0.00780        1.18130
C          1.99470        0.00360        3.83800
S         -0.78060       -0.17070       -1.56890
O         -2.08680        0.48570       -1.43990
O          0.17140        0.25360       -2.59750
N         -0.99890       -1.84350       -1.82740
C         -1.22250       -2.16890       -3.25710
C         -1.78390       -3.58430       -3.18840
C         -2.66380       -3.57500       -1.92750
C         -2.05310       -2.47810       -1.00710
H         -2.83670       -1.74650       -0.76380
C         -1.61320       -2.98690        0.37380
O         -2.37300       -2.82600        1.31630
N         -0.39820       -3.59630        0.54400
C         -0.03640       -4.15180        1.84710
C          1.49730       -4.17130        1.81510
H          1.89210       -5.00980        2.40610
C          1.84540       -4.32750        0.31010
C          0.51410       -4.10370       -0.46330
H          0.62650       -3.38340       -1.28280
C          0.02310       -5.42510       -1.04320
O         -0.93090       -6.05320       -0.65970
O          0.81290       -5.83440       -2.05590
O          2.06790       -3.00920        2.37390
H          1.98570       -0.18600       -0.85720
H          3.13700       -0.07040        1.36290
H         -0.69730        0.10850        3.32850
H         -1.83690        0.02180        1.11860
H          1.35110        0.39970        4.63630
H          2.92620        0.58910        3.81440
H          2.26110       -1.03510        4.09690
H         -0.28140       -2.08230       -3.81460
H         -1.95650       -1.47740       -3.71070
H         -2.35000       -3.84430       -4.09440
H         -0.96080       -4.30730       -3.10220
H         -3.69290       -3.28490       -2.18180
H         -2.70730       -4.55300       -1.43240
H         -0.45770       -5.16710        1.95570
H         -0.43370       -3.52600        2.65430
H          2.59350       -3.57110        0.03850
H          2.28000       -5.30950        0.07920
H          0.46500       -6.68900       -2.36490
H          1.69980       -2.24020        1.91320
