48
rmsd186.gzmat
C          0.00000        0.00000        0.00000
C          1.39360        0.00000        0.00000
C          2.09020        0.00000        1.20660
C          1.39520        0.00040        2.41850
C         -0.00400        0.01890        2.41270
C         -0.69850        0.02390        1.20750
C          2.12550       -0.01900        3.71630
S         -0.88490       -0.04010       -1.51080
O         -2.17730        0.56010       -1.30820
O          0.00860        0.38940       -2.57490
N         -1.10540       -1.75280       -1.75720
C         -2.44090       -2.34810       -1.49700
C         -2.45880       -3.70860       -2.23340
C         -1.06720       -3.85460       -2.87550
C         -0.51800       -2.40820       -2.93180
H          0.59500       -2.38700       -2.84670
C         -1.00860       -1.79560       -4.25810
O         -2.18730       -1.60580       -4.47060
N         -0.08430       -1.62680       -5.28750
C          1.32310       -1.24920       -5.05860
C          1.53890        0.10870       -5.78660
H          2.49130        0.14770       -6.35210
C          0.29640        0.30850       -6.68700
C         -0.54830       -0.96800       -6.52310
H         -1.65200       -0.74670       -6.48200
C         -0.24730       -1.92060       -7.67240
O          0.73530       -2.57600       -7.88530
O         -1.29510       -1.92540       -8.53550
O          1.65960        1.15580       -4.87300
H          1.95850        0.00890       -0.93930
H          3.17770        0.00100        1.20180
H         -0.54910        0.02970        3.35370
H         -1.79400        0.05520        1.22450
H          1.88440       -0.92290        4.29700
H          1.85680        0.84500        4.34370
H          3.21760        0.00070        3.59770
H         -3.27230       -1.70020       -1.85720
H         -2.55220       -2.47730       -0.40060
H         -2.67970       -4.53850       -1.54780
H         -3.24490       -3.71220       -3.01110
H         -0.40860       -4.48970       -2.25960
H         -1.11730       -4.32080       -3.87220
H          1.96980       -2.04260       -5.49440
H          1.56880       -1.15070       -3.98140
H         -0.26640        1.20190       -6.35030
H          0.57560        0.50590       -7.73220
H         -1.17280       -2.52200       -9.31280
H          0.99350        1.07350       -4.13970
