
     RDKit          3D

 48 50  0  0  0  0  0  0  0  0999 V2000
   -0.2499   -0.1652   -0.3720 C   0  0  0  0  0  0  0  0  0  0  0  0
    1.0830    0.0535   -0.7180 C   0  0  0  0  0  0  0  0  0  0  0  0
    2.0575   -0.0154    0.2828 C   0  0  0  0  0  0  0  0  0  0  0  0
    1.7185   -0.2896    1.6140 C   0  0  0  0  0  0  0  0  0  0  0  0
    0.3622   -0.4971    1.9305 C   0  0  0  0  0  0  0  0  0  0  0  0
   -0.6222   -0.4326    0.9508 C   0  0  0  0  0  0  0  0  0  0  0  0
    2.7677   -0.3555    2.6925 C   0  0  0  0  0  0  0  0  0  0  0  0
   -1.5400   -0.0434   -1.6030 S   0  0  0  0  0  0  0  0  0  0  0  0
   -2.5744    0.8794   -1.1409 O   0  0  0  0  0  0  0  0  0  0  0  0
   -0.8768    0.1929   -2.9016 O   0  0  0  0  0  0  0  0  0  0  0  0
   -2.2220   -1.5609   -1.5517 N   0  0  0  0  0  0  0  0  0  0  0  0
   -3.6921   -1.7139   -1.6226 C   0  0  0  0  0  0  0  0  0  0  0  0
   -3.8847   -3.2224   -1.8901 C   0  0  0  0  0  0  0  0  0  0  0  0
   -2.4838   -3.8516   -1.7649 C   0  0  0  0  0  0  0  0  0  0  0  0
   -1.5221   -2.7115   -2.1350 C   0  0  1  0  0  0  0  0  0  0  0  0
   -0.5465   -2.8354   -1.6475 H   0  0  0  0  0  0  0  0  0  0  0  0
   -1.3953   -2.5550   -3.6579 C   0  0  0  0  0  0  0  0  0  0  0  0
   -2.4012   -2.5004   -4.3556 O   0  0  0  0  0  0  0  0  0  0  0  0
   -0.1585   -2.4381   -4.2031 N   0  0  0  0  0  0  0  0  0  0  0  0
    1.1495   -2.3898   -3.5561 C   0  0  0  0  0  0  0  0  0  0  0  0
    1.9127   -1.3775   -4.4204 C   0  0  1  0  0  0  0  0  0  0  0  0
    3.0018   -1.5154   -4.3373 H   0  0  0  0  0  0  0  0  0  0  0  0
    1.4100   -1.7303   -5.8315 C   0  0  0  0  0  0  0  0  0  0  0  0
   -0.0783   -2.0924   -5.6192 C   0  0  1  0  0  0  0  0  0  0  0  0
   -0.7479   -1.2453   -5.8287 H   0  0  0  0  0  0  0  0  0  0  0  0
   -0.5048   -3.2647   -6.4874 C   0  0  0  0  0  0  0  0  0  0  0  0
   -0.3803   -4.4244   -6.1875 O   0  0  0  0  0  0  0  0  0  0  0  0
   -0.9762   -2.8488   -7.6740 O   0  0  0  0  0  0  0  0  0  0  0  0
    1.6431   -0.0445   -4.0605 O   0  0  0  0  0  0  0  0  0  0  0  0
    1.3643    0.2602   -1.7518 H   0  0  0  0  0  0  0  0  0  0  0  0
    3.1042    0.1514    0.0167 H   0  0  0  0  0  0  0  0  0  0  0  0
    0.0780   -0.7083    2.9648 H   0  0  0  0  0  0  0  0  0  0  0  0
   -1.6732   -0.5871    1.2006 H   0  0  0  0  0  0  0  0  0  0  0  0
    2.6079    0.4344    3.4451 H   0  0  0  0  0  0  0  0  0  0  0  0
    3.7797   -0.2316    2.2818 H   0  0  0  0  0  0  0  0  0  0  0  0
    2.7295   -1.3195    3.2254 H   0  0  0  0  0  0  0  0  0  0  0  0
   -4.1211   -1.1075   -2.4329 H   0  0  0  0  0  0  0  0  0  0  0  0
   -4.1349   -1.3795   -0.6733 H   0  0  0  0  0  0  0  0  0  0  0  0
   -4.5969   -3.6725   -1.1835 H   0  0  0  0  0  0  0  0  0  0  0  0
   -4.2626   -3.3646   -2.9088 H   0  0  0  0  0  0  0  0  0  0  0  0
   -2.2783   -4.1518   -0.7261 H   0  0  0  0  0  0  0  0  0  0  0  0
   -2.3491   -4.7304   -2.4109 H   0  0  0  0  0  0  0  0  0  0  0  0
    1.6384   -3.3800   -3.5830 H   0  0  0  0  0  0  0  0  0  0  0  0
    1.0876   -2.0582   -2.5143 H   0  0  0  0  0  0  0  0  0  0  0  0
    1.5454   -0.8959   -6.5307 H   0  0  0  0  0  0  0  0  0  0  0  0
    1.9632   -2.6037   -6.2110 H   0  0  0  0  0  0  0  0  0  0  0  0
   -1.1935   -3.6462   -8.1868 H   0  0  0  0  0  0  0  0  0  0  0  0
    0.6968    0.0621   -3.8417 H   0  0  0  0  0  0  0  0  0  0  0  0
  1  2  2  0
  1  6  1  0
  8  1  1  0
  2  3  1  0
  2 30  1  0
  3  4  2  0
  3 31  1  0
  4  5  1  0
  4  7  1  0
  5  6  2  0
  5 32  1  0
  6 33  1  0
  7 34  1  0
  7 35  1  0
  7 36  1  0
  8  9  2  0
  8 10  2  0
  8 11  1  0
 11 12  1  0
 11 15  1  0
 12 13  1  0
 12 37  1  0
 12 38  1  0
 13 14  1  0
 13 39  1  0
 13 40  1  0
 14 15  1  0
 14 41  1  0
 14 42  1  0
 15 16  1  1
 15 17  1  0
 17 18  2  0
 17 19  1  0
 19 20  1  0
 19 24  1  0
 20 21  1  0
 20 43  1  0
 20 44  1  0
 21 22  1  6
 21 23  1  0
 21 29  1  0
 23 24  1  0
 23 45  1  0
 23 46  1  0
 24 25  1  1
 24 26  1  0
 26 27  2  0
 26 28  1  0
 28 47  1  0
 29 48  1  0
M  END

