42

S          0.73660        0.26220        0.91580
O          1.87600        0.34010        1.83420
O          0.97540        0.26900       -0.52960
N         -0.38740        1.46680        1.26340
C         -0.91300        1.48340        2.56790
C         -1.30150        0.31190        3.16070
C         -1.11130       -0.98520        2.50390
C         -1.76280       -2.14470        2.96590
C         -1.61830       -3.35740        2.29640
C         -0.81630       -3.45230        1.15070
C         -0.12750       -2.32930        0.69320
C         -0.26880       -1.12410        1.37980
O         -1.80240        0.26080        4.42690
C         -3.16610        0.65300        4.58890
C         -0.78950        2.77850        3.34190
O         -1.68180        3.21380        4.06410
N          0.45710        3.29140        3.13150
C          1.01710        4.20580        3.89270
N          2.35360        4.47980        3.58540
C          3.08420        5.39050        4.28200
C          2.55700        6.09280        5.33550
C          1.20940        5.84470        5.69520
C          0.45800        4.92990        4.99890
C          2.96190        3.73590        2.47620
C         -0.50580        2.60500        0.36220
H         -2.38170       -2.07310        3.86040
H         -2.13930       -4.24270        2.66820
H         -0.71910       -4.40370        0.62360
H          0.52000       -2.37240       -0.18450
H         -3.82940        0.02850        3.96370
H         -3.29280        1.71490        4.33910
H         -3.41070        0.48850        5.64740
H          4.11480        5.52180        3.95020
H          3.17370        6.81460        5.87040
H          0.76190        6.38840        6.53120
H         -0.58220        4.71640        5.23430
H          4.04560        3.90380        2.49350
H          2.54600        4.08390        1.51960
H          2.72140        2.66800        2.56200
H         -0.34140        2.25130       -0.66370
H          0.21300        3.40190        0.60500
H         -1.52570        3.00760        0.44240
