42
rmsd23.gzmat
S          0.00000        0.00000        0.00000
O          1.43940        0.00000        0.00000
O         -0.69090        0.00000       -1.26570
N         -0.49520        1.50350        0.79610
C         -0.80170        1.52510        2.12740
C         -1.09550        0.40050        2.85140
C         -1.04300       -0.95110        2.35550
C         -1.42750       -2.01580        3.19630
C         -1.41550       -3.31700        2.72900
C         -1.02140       -3.59140        1.41210
C         -0.61780       -2.55530        0.58440
C         -0.61260       -1.23540        1.05320
O         -1.35470        0.55640        4.19580
C         -2.74050        0.77630        4.46600
C         -0.85710        2.85970        2.84510
O         -1.88590        3.48310        2.98930
N          0.40450        3.24680        3.25090
C          0.65770        4.21330        4.12200
N          2.02720        4.41250        4.36160
C          2.46390        5.36840        5.24260
C          1.58000        6.16380        5.93020
C          0.18720        5.99000        5.73200
C         -0.25940        5.04480        4.85630
C          2.99880        3.56990        3.65190
C         -0.20080        2.76900        0.11340
H         -1.72190       -1.79850        4.22360
H         -1.71150       -4.13640        3.38240
H         -1.02960       -4.61500        1.04830
H         -0.30910       -2.78740       -0.43980
H         -3.34800       -0.05960        4.11150
H         -3.07810        1.71640        4.01270
H         -2.76210        0.84540        5.55890
H          3.54890        5.46540        5.37020
H          1.93780        6.91940        6.62290
H         -0.51170        6.62040        6.28620
H         -1.32690        4.88010        4.67100
H          4.02080        3.71590        4.02770
H          2.96870        3.78120        2.56430
H          2.72360        2.49510        3.75930
H         -0.30800        2.64420       -0.98210
H          0.82330        3.12300        0.33680
H         -0.91570        3.55810        0.41450
