rmsd22.gzmat
 OpenBabel08211713403D

 42 44  0  0  0  0  0  0  0  0999 V2000
    0.0000    0.0000    0.0000 S   0  0  0  0  0  0  0  0  0  0  0  0
    1.4396    0.0000    0.0000 O   0  0  0  0  0  0  0  0  0  0  0  0
   -0.6909    0.0000   -1.2656 O   0  0  0  0  0  0  0  0  0  0  0  0
   -0.4930    1.5052    0.7959 N   0  0  0  0  0  0  0  0  0  0  0  0
   -0.8107    1.5253    2.1247 C   0  0  0  0  0  0  0  0  0  0  0  0
   -1.1208    0.4002    2.8414 C   0  0  0  0  0  0  0  0  0  0  0  0
   -1.0598   -0.9521    2.3475 C   0  0  0  0  0  0  0  0  0  0  0  0
   -1.4496   -2.0171    3.1852 C   0  0  0  0  0  0  0  0  0  0  0  0
   -1.4249   -3.3194    2.7204 C   0  0  0  0  0  0  0  0  0  0  0  0
   -1.0113   -3.5943    1.4097 C   0  0  0  0  0  0  0  0  0  0  0  0
   -0.6036   -2.5573    0.5851 C   0  0  0  0  0  0  0  0  0  0  0  0
   -0.6137   -1.2365    1.0509 C   0  0  0  0  0  0  0  0  0  0  0  0
   -1.4076    0.5563    4.1805 O   0  0  0  0  0  0  0  0  0  0  0  0
   -2.7996    0.7724    4.4211 C   0  0  0  0  0  0  0  0  0  0  0  0
   -0.8657    2.8551    2.8515 C   0  0  0  0  0  0  0  0  0  0  0  0
   -1.8993    3.4561    3.0434 O   0  0  0  0  0  0  0  0  0  0  0  0
    0.4021    3.2854    3.1954 N   0  0  0  0  0  0  0  0  0  0  0  0
    0.6673    4.1822    4.1328 C   0  0  0  0  0  0  0  0  0  0  0  0
    2.0276    4.5183    4.2335 N   0  0  0  0  0  0  0  0  0  0  0  0
    2.4740    5.4025    5.1830 C   0  0  0  0  0  0  0  0  0  0  0  0
    1.6105    5.9920    6.0731 C   0  0  0  0  0  0  0  0  0  0  0  0
    0.2286    5.6786    6.0151 C   0  0  0  0  0  0  0  0  0  0  0  0
   -0.2286    4.8058    5.0729 C   0  0  0  0  0  0  0  0  0  0  0  0
    2.9814    3.8814    3.3164 C   0  0  0  0  0  0  0  0  0  0  0  0
   -0.1579    2.7663    0.1239 C   0  0  0  0  0  0  0  0  0  0  0  0
   -1.7592   -1.8000    4.2081 H   0  0  0  0  0  0  0  0  0  0  0  0
   -1.7263   -4.1394    3.3710 H   0  0  0  0  0  0  0  0  0  0  0  0
   -1.0083   -4.6189    1.0479 H   0  0  0  0  0  0  0  0  0  0  0  0
   -0.2799   -2.7894   -0.4343 H   0  0  0  0  0  0  0  0  0  0  0  0
   -3.1320    1.7080    3.9557 H   0  0  0  0  0  0  0  0  0  0  0  0
   -2.8432    0.8487    5.5124 H   0  0  0  0  0  0  0  0  0  0  0  0
   -3.3960   -0.0682    4.0598 H   0  0  0  0  0  0  0  0  0  0  0  0
    3.5494    5.6174    5.1926 H   0  0  0  0  0  0  0  0  0  0  0  0
    1.9743    6.6937    6.8174 H   0  0  0  0  0  0  0  0  0  0  0  0
   -0.4526    6.1452    6.7301 H   0  0  0  0  0  0  0  0  0  0  0  0
   -1.2885    4.5455    4.9857 H   0  0  0  0  0  0  0  0  0  0  0  0
    4.0179    4.1750    3.5323 H   0  0  0  0  0  0  0  0  0  0  0  0
    2.7369    4.1418    2.2668 H   0  0  0  0  0  0  0  0  0  0  0  0
    2.8942    2.7732    3.3843 H   0  0  0  0  0  0  0  0  0  0  0  0
   -0.8299    3.5821    0.4498 H   0  0  0  0  0  0  0  0  0  0  0  0
   -0.2923    2.6611   -0.9703 H   0  0  0  0  0  0  0  0  0  0  0  0
    0.8845    3.0722    0.3330 H   0  0  0  0  0  0  0  0  0  0  0  0
  1  4  1  0  0  0  0
  1 12  1  0  0  0  0
  2  1  2  0  0  0  0
  3  1  2  0  0  0  0
  4  5  1  0  0  0  0
  5  6  2  0  0  0  0
  5 15  1  0  0  0  0
  6 13  1  0  0  0  0
  7  6  1  0  0  0  0
  7  8  2  0  0  0  0
  8 26  1  0  0  0  0
  9  8  1  0  0  0  0
  9 27  1  0  0  0  0
 10  9  2  0  0  0  0
 11 12  2  0  0  0  0
 11 10  1  0  0  0  0
 12  7  1  0  0  0  0
 13 14  1  0  0  0  0
 14 31  1  0  0  0  0
 15 16  2  0  0  0  0
 15 17  1  0  0  0  0
 17 18  2  0  0  0  0
 18 19  1  0  0  0  0
 18 23  1  0  0  0  0
 19 20  1  0  0  0  0
 20 33  1  0  0  0  0
 20 21  2  0  0  0  0
 21 34  1  0  0  0  0
 22 21  1  0  0  0  0
 22 35  1  0  0  0  0
 23 22  2  0  0  0  0
 24 39  1  0  0  0  0
 24 37  1  0  0  0  0
 24 19  1  0  0  0  0
 25 42  1  0  0  0  0
 25 40  1  0  0  0  0
 25  4  1  0  0  0  0
 28 10  1  0  0  0  0
 29 11  1  0  0  0  0
 30 14  1  0  0  0  0
 32 14  1  0  0  0  0
 36 23  1  0  0  0  0
 38 24  1  0  0  0  0
 41 25  1  0  0  0  0
M  END
$$$$
