rmsd28.gzmat
 OpenBabel08211713403D

 42 44  0  0  0  0  0  0  0  0999 V2000
    0.0000    0.0000    0.0000 S   0  0  0  0  0  0  0  0  0  0  0  0
    1.4389    0.0000    0.0000 O   0  0  0  0  0  0  0  0  0  0  0  0
   -0.6910    0.0000   -1.2663 O   0  0  0  0  0  0  0  0  0  0  0  0
   -0.5060    1.4950    0.8013 N   0  0  0  0  0  0  0  0  0  0  0  0
   -0.7420    1.5186    2.1495 C   0  0  0  0  0  0  0  0  0  0  0  0
   -0.9999    0.3929    2.8838 C   0  0  0  0  0  0  0  0  0  0  0  0
   -0.9900   -0.9561    2.3734 C   0  0  0  0  0  0  0  0  0  0  0  0
   -1.3736   -2.0215    3.2131 C   0  0  0  0  0  0  0  0  0  0  0  0
   -1.4207   -3.3156    2.7268 C   0  0  0  0  0  0  0  0  0  0  0  0
   -1.0835   -3.5821    1.3932 C   0  0  0  0  0  0  0  0  0  0  0  0
   -0.6738   -2.5465    0.5673 C   0  0  0  0  0  0  0  0  0  0  0  0
   -0.6126   -1.2352    1.0541 C   0  0  0  0  0  0  0  0  0  0  0  0
   -1.1888    0.5355    4.2409 O   0  0  0  0  0  0  0  0  0  0  0  0
   -2.5563    0.7707    4.5823 C   0  0  0  0  0  0  0  0  0  0  0  0
   -0.7598    2.8620    2.8527 C   0  0  0  0  0  0  0  0  0  0  0  0
   -1.7814    3.4822    3.0526 O   0  0  0  0  0  0  0  0  0  0  0  0
    0.5220    3.2532    3.1810 N   0  0  0  0  0  0  0  0  0  0  0  0
    0.8339    4.3382    3.8777 C   0  0  0  0  0  0  0  0  0  0  0  0
    2.2106    4.4695    4.1224 N   0  0  0  0  0  0  0  0  0  0  0  0
    2.7143    5.5569    4.7885 C   0  0  0  0  0  0  0  0  0  0  0  0
    1.8917    6.5519    5.2588 C   0  0  0  0  0  0  0  0  0  0  0  0
    0.4924    6.4485    5.0613 C   0  0  0  0  0  0  0  0  0  0  0  0
   -0.0200    5.3732    4.3959 C   0  0  0  0  0  0  0  0  0  0  0  0
    3.1207    3.4238    3.6364 C   0  0  0  0  0  0  0  0  0  0  0  0
   -0.2773    2.7630    0.0985 C   0  0  0  0  0  0  0  0  0  0  0  0
   -1.6228   -1.8128    4.2538 H   0  0  0  0  0  0  0  0  0  0  0  0
   -1.7223   -4.1345    3.3786 H   0  0  0  0  0  0  0  0  0  0  0  0
   -1.1404   -4.5987    1.0139 H   0  0  0  0  0  0  0  0  0  0  0  0
   -0.4062   -2.7713   -0.4701 H   0  0  0  0  0  0  0  0  0  0  0  0
   -3.1999   -0.0340    4.2195 H   0  0  0  0  0  0  0  0  0  0  0  0
   -2.8889    1.7374    4.1854 H   0  0  0  0  0  0  0  0  0  0  0  0
   -2.5288    0.7922    5.6770 H   0  0  0  0  0  0  0  0  0  0  0  0
    3.8016    5.5910    4.9282 H   0  0  0  0  0  0  0  0  0  0  0  0
    2.3034    7.4110    5.7801 H   0  0  0  0  0  0  0  0  0  0  0  0
   -0.1596    7.2348    5.4480 H   0  0  0  0  0  0  0  0  0  0  0  0
   -1.0963    5.2531    4.2262 H   0  0  0  0  0  0  0  0  0  0  0  0
    4.1238    3.5176    4.0747 H   0  0  0  0  0  0  0  0  0  0  0  0
    3.1896    3.4574    2.5306 H   0  0  0  0  0  0  0  0  0  0  0  0
    2.7139    2.4152    3.8819 H   0  0  0  0  0  0  0  0  0  0  0  0
   -1.0141    3.5264    0.4135 H   0  0  0  0  0  0  0  0  0  0  0  0
   -0.4123    2.6229   -0.9921 H   0  0  0  0  0  0  0  0  0  0  0  0
    0.7385    3.1580    0.2870 H   0  0  0  0  0  0  0  0  0  0  0  0
  1  4  1  0  0  0  0
  1 12  1  0  0  0  0
  2  1  2  0  0  0  0
  3  1  2  0  0  0  0
  4  5  1  0  0  0  0
  5 15  1  0  0  0  0
  5  6  2  0  0  0  0
  6 13  1  0  0  0  0
  7  6  1  0  0  0  0
  7  8  2  0  0  0  0
  8 26  1  0  0  0  0
  9  8  1  0  0  0  0
  9 27  1  0  0  0  0
 10  9  2  0  0  0  0
 11 12  2  0  0  0  0
 11 10  1  0  0  0  0
 12  7  1  0  0  0  0
 13 14  1  0  0  0  0
 14 32  1  0  0  0  0
 15 16  2  0  0  0  0
 15 17  1  0  0  0  0
 17 18  2  0  0  0  0
 18 19  1  0  0  0  0
 18 23  1  0  0  0  0
 19 20  1  0  0  0  0
 20 33  1  0  0  0  0
 20 21  2  0  0  0  0
 21 34  1  0  0  0  0
 22 21  1  0  0  0  0
 22 35  1  0  0  0  0
 23 22  2  0  0  0  0
 24 39  1  0  0  0  0
 24 37  1  0  0  0  0
 24 19  1  0  0  0  0
 25 42  1  0  0  0  0
 25 40  1  0  0  0  0
 25  4  1  0  0  0  0
 28 10  1  0  0  0  0
 29 11  1  0  0  0  0
 30 14  1  0  0  0  0
 31 14  1  0  0  0  0
 36 23  1  0  0  0  0
 38 24  1  0  0  0  0
 41 25  1  0  0  0  0
M  END
$$$$
