rmsd1.gzmat
 OpenBabel08211713403D

 42 44  0  0  0  0  0  0  0  0999 V2000
    0.0000    0.0000    0.0000 S   0  0  0  0  0  0  0  0  0  0  0  0
    1.4395    0.0000    0.0000 O   0  0  0  0  0  0  0  0  0  0  0  0
   -0.6892    0.0000   -1.2667 O   0  0  0  0  0  0  0  0  0  0  0  0
   -0.4942    1.5048    0.7934 N   0  0  0  0  0  0  0  0  0  0  0  0
   -0.8444    1.5285    2.1142 C   0  0  0  0  0  0  0  0  0  0  0  0
   -1.1514    0.4043    2.8325 C   0  0  0  0  0  0  0  0  0  0  0  0
   -1.0721   -0.9489    2.3440 C   0  0  0  0  0  0  0  0  0  0  0  0
   -1.4645   -2.0137    3.1814 C   0  0  0  0  0  0  0  0  0  0  0  0
   -1.4348   -3.3166    2.7194 C   0  0  0  0  0  0  0  0  0  0  0  0
   -1.0083   -3.5936    1.4133 C   0  0  0  0  0  0  0  0  0  0  0  0
   -0.5940   -2.5580    0.5906 C   0  0  0  0  0  0  0  0  0  0  0  0
   -0.6126   -1.2356    1.0523 C   0  0  0  0  0  0  0  0  0  0  0  0
   -1.4603    0.5616    4.1663 O   0  0  0  0  0  0  0  0  0  0  0  0
   -2.8543    0.7907    4.3822 C   0  0  0  0  0  0  0  0  0  0  0  0
   -0.9454    2.8741    2.8071 C   0  0  0  0  0  0  0  0  0  0  0  0
   -1.9869    3.4908    2.8744 O   0  0  0  0  0  0  0  0  0  0  0  0
    0.2804    3.2675    3.3028 N   0  0  0  0  0  0  0  0  0  0  0  0
    0.4995    4.3840    3.9861 C   0  0  0  0  0  0  0  0  0  0  0  0
    1.8219    4.5120    4.4408 N   0  0  0  0  0  0  0  0  0  0  0  0
    2.2369    5.6308    5.1161 C   0  0  0  0  0  0  0  0  0  0  0  0
    1.3728    6.6639    5.3883 C   0  0  0  0  0  0  0  0  0  0  0  0
    0.0214    6.5679    4.9731 C   0  0  0  0  0  0  0  0  0  0  0  0
   -0.4021    5.4607    4.2980 C   0  0  0  0  0  0  0  0  0  0  0  0
    2.7655    3.4153    4.1862 C   0  0  0  0  0  0  0  0  0  0  0  0
   -0.1809    2.7698    0.1185 C   0  0  0  0  0  0  0  0  0  0  0  0
   -1.7805   -1.7949    4.2018 H   0  0  0  0  0  0  0  0  0  0  0  0
   -1.7432   -4.1346    3.3688 H   0  0  0  0  0  0  0  0  0  0  0  0
   -0.9998   -4.6188    1.0537 H   0  0  0  0  0  0  0  0  0  0  0  0
   -0.2583   -2.7934   -0.4245 H   0  0  0  0  0  0  0  0  0  0  0  0
   -3.4459   -0.0629    4.0448 H   0  0  0  0  0  0  0  0  0  0  0  0
   -3.1816    1.7084    3.8793 H   0  0  0  0  0  0  0  0  0  0  0  0
   -2.9110    0.9089    5.4691 H   0  0  0  0  0  0  0  0  0  0  0  0
    3.2880    5.6592    5.4283 H   0  0  0  0  0  0  0  0  0  0  0  0
    1.7135    7.5478    5.9196 H   0  0  0  0  0  0  0  0  0  0  0  0
   -0.6650    7.3867    5.2014 H   0  0  0  0  0  0  0  0  0  0  0  0
   -1.4400    5.3445    3.9646 H   0  0  0  0  0  0  0  0  0  0  0  0
    3.7433    3.5972    4.6529 H   0  0  0  0  0  0  0  0  0  0  0  0
    2.8976    3.2651    3.0940 H   0  0  0  0  0  0  0  0  0  0  0  0
    2.3488    2.4579    4.5712 H   0  0  0  0  0  0  0  0  0  0  0  0
   -0.9215    3.5509    0.3733 H   0  0  0  0  0  0  0  0  0  0  0  0
   -0.2253    2.6393   -0.9801 H   0  0  0  0  0  0  0  0  0  0  0  0
    0.8252    3.1372    0.3947 H   0  0  0  0  0  0  0  0  0  0  0  0
  1  4  1  0  0  0  0
  1 12  1  0  0  0  0
  2  1  2  0  0  0  0
  3  1  2  0  0  0  0
  4  5  1  0  0  0  0
  5 15  1  0  0  0  0
  5  6  2  0  0  0  0
  6 13  1  0  0  0  0
  7  6  1  0  0  0  0
  7  8  2  0  0  0  0
  8 26  1  0  0  0  0
  9  8  1  0  0  0  0
  9 27  1  0  0  0  0
 10  9  2  0  0  0  0
 11 12  2  0  0  0  0
 11 10  1  0  0  0  0
 12  7  1  0  0  0  0
 13 14  1  0  0  0  0
 14 32  1  0  0  0  0
 15 16  2  0  0  0  0
 15 17  1  0  0  0  0
 17 18  2  0  0  0  0
 18 23  1  0  0  0  0
 18 19  1  0  0  0  0
 19 20  1  0  0  0  0
 20 21  2  0  0  0  0
 20 33  1  0  0  0  0
 21 34  1  0  0  0  0
 22 35  1  0  0  0  0
 22 21  1  0  0  0  0
 23 22  2  0  0  0  0
 24 19  1  0  0  0  0
 24 39  1  0  0  0  0
 24 37  1  0  0  0  0
 25 40  1  0  0  0  0
 25 42  1  0  0  0  0
 25  4  1  0  0  0  0
 28 10  1  0  0  0  0
 29 11  1  0  0  0  0
 30 14  1  0  0  0  0
 31 14  1  0  0  0  0
 36 23  1  0  0  0  0
 38 24  1  0  0  0  0
 41 25  1  0  0  0  0
M  END
$$$$
