rmsd34.gzmat
 OpenBabel08211713403D

 42 44  0  0  0  0  0  0  0  0999 V2000
    0.0000    0.0000    0.0000 S   0  0  0  0  0  0  0  0  0  0  0  0
    1.4389    0.0000    0.0000 O   0  0  0  0  0  0  0  0  0  0  0  0
   -0.6925    0.0000   -1.2655 O   0  0  0  0  0  0  0  0  0  0  0  0
   -0.5047    1.4943    0.8046 N   0  0  0  0  0  0  0  0  0  0  0  0
   -0.7074    1.5153    2.1581 C   0  0  0  0  0  0  0  0  0  0  0  0
   -0.9594    0.3890    2.8940 C   0  0  0  0  0  0  0  0  0  0  0  0
   -0.9722   -0.9584    2.3795 C   0  0  0  0  0  0  0  0  0  0  0  0
   -1.3568   -2.0226    3.2197 C   0  0  0  0  0  0  0  0  0  0  0  0
   -1.4230   -3.3144    2.7290 C   0  0  0  0  0  0  0  0  0  0  0  0
   -1.1025   -3.5794    1.3909 C   0  0  0  0  0  0  0  0  0  0  0  0
   -0.6927   -2.5447    0.5633 C   0  0  0  0  0  0  0  0  0  0  0  0
   -0.6131   -1.2359    1.0539 C   0  0  0  0  0  0  0  0  0  0  0  0
   -1.1094    0.5320    4.2558 O   0  0  0  0  0  0  0  0  0  0  0  0
   -2.4643    0.7757    4.6390 C   0  0  0  0  0  0  0  0  0  0  0  0
   -0.6868    2.8479    2.8814 C   0  0  0  0  0  0  0  0  0  0  0  0
   -1.6930    3.4653    3.1531 O   0  0  0  0  0  0  0  0  0  0  0  0
    0.6134    3.2390    3.1340 N   0  0  0  0  0  0  0  0  0  0  0  0
    0.9710    4.2006    3.9729 C   0  0  0  0  0  0  0  0  0  0  0  0
    2.3613    4.3844    4.0578 N   0  0  0  0  0  0  0  0  0  0  0  0
    2.9048    5.3248    4.8949 C   0  0  0  0  0  0  0  0  0  0  0  0
    2.1128    6.1209    5.6863 C   0  0  0  0  0  0  0  0  0  0  0  0
    0.7043    5.9685    5.6383 C   0  0  0  0  0  0  0  0  0  0  0  0
    0.1515    5.0397    4.8063 C   0  0  0  0  0  0  0  0  0  0  0  0
    3.2373    3.5374    3.2379 C   0  0  0  0  0  0  0  0  0  0  0  0
   -0.2847    2.7638    0.1017 C   0  0  0  0  0  0  0  0  0  0  0  0
   -1.5899   -1.8154    4.2644 H   0  0  0  0  0  0  0  0  0  0  0  0
   -1.7249   -4.1327    3.3814 H   0  0  0  0  0  0  0  0  0  0  0  0
   -1.1714   -4.5944    1.0094 H   0  0  0  0  0  0  0  0  0  0  0  0
   -0.4397   -2.7689   -0.4780 H   0  0  0  0  0  0  0  0  0  0  0  0
   -3.1079   -0.0596    4.3543 H   0  0  0  0  0  0  0  0  0  0  0  0
   -2.8315    1.7108    4.1996 H   0  0  0  0  0  0  0  0  0  0  0  0
   -2.3901    0.8661    5.7280 H   0  0  0  0  0  0  0  0  0  0  0  0
    3.9985    5.4077    4.9023 H   0  0  0  0  0  0  0  0  0  0  0  0
    2.5546    6.8618    6.3460 H   0  0  0  0  0  0  0  0  0  0  0  0
    0.0792    6.6021    6.2716 H   0  0  0  0  0  0  0  0  0  0  0  0
   -0.9321    4.8946    4.7334 H   0  0  0  0  0  0  0  0  0  0  0  0
    4.2969    3.6737    3.4929 H   0  0  0  0  0  0  0  0  0  0  0  0
    3.0835    3.7537    2.1616 H   0  0  0  0  0  0  0  0  0  0  0  0
    2.9675    2.4641    3.3716 H   0  0  0  0  0  0  0  0  0  0  0  0
   -0.4438    2.6283   -0.9861 H   0  0  0  0  0  0  0  0  0  0  0  0
    0.7361    3.1551    0.2705 H   0  0  0  0  0  0  0  0  0  0  0  0
   -1.0099    3.5292    0.4370 H   0  0  0  0  0  0  0  0  0  0  0  0
  1  4  1  0  0  0  0
  1 12  1  0  0  0  0
  2  1  2  0  0  0  0
  3  1  2  0  0  0  0
  4  5  1  0  0  0  0
  5 15  1  0  0  0  0
  5  6  2  0  0  0  0
  6 13  1  0  0  0  0
  7  6  1  0  0  0  0
  7  8  2  0  0  0  0
  8 26  1  0  0  0  0
  9  8  1  0  0  0  0
  9 27  1  0  0  0  0
 10  9  2  0  0  0  0
 11 12  2  0  0  0  0
 11 10  1  0  0  0  0
 12  7  1  0  0  0  0
 13 14  1  0  0  0  0
 14 32  1  0  0  0  0
 15 17  1  0  0  0  0
 15 16  2  0  0  0  0
 17 18  2  0  0  0  0
 18 19  1  0  0  0  0
 18 23  1  0  0  0  0
 19 20  1  0  0  0  0
 20 33  1  0  0  0  0
 20 21  2  0  0  0  0
 21 34  1  0  0  0  0
 22 21  1  0  0  0  0
 22 35  1  0  0  0  0
 23 22  2  0  0  0  0
 24 39  1  0  0  0  0
 24 37  1  0  0  0  0
 24 19  1  0  0  0  0
 25 41  1  0  0  0  0
 25 42  1  0  0  0  0
 25  4  1  0  0  0  0
 28 10  1  0  0  0  0
 29 11  1  0  0  0  0
 30 14  1  0  0  0  0
 31 14  1  0  0  0  0
 36 23  1  0  0  0  0
 38 24  1  0  0  0  0
 40 25  1  0  0  0  0
M  END
$$$$
