42
rmsd4.gzmat
S          0.00000        0.00000        0.00000
O          1.43930        0.00000        0.00000
O         -0.69040        0.00000       -1.26620
N         -0.49660        1.50270        0.79600
C         -0.80250        1.52740        2.12730
C         -1.07000        0.40200        2.86030
C         -1.02210       -0.94970        2.36380
C         -1.40190       -2.01490        3.20630
C         -1.41850       -3.31300        2.73050
C         -1.05330       -3.58460        1.40480
C         -0.64600       -2.54980        0.57750
C         -0.61400       -1.23300        1.05420
O         -1.31030        0.55950        4.20790
C         -2.69490        0.75610        4.50190
C         -0.90620        2.86990        2.82520
O         -1.95800        3.46310        2.92950
N          0.32810        3.30070        3.26770
C          0.51810        4.30420        4.11400
N          1.86870        4.52940        4.42700
C          2.24140        5.51010        5.30980
C          1.31040        6.31850        5.91560
C         -0.06490        6.13400        5.62580
C         -0.44800        5.15860        4.75300
C          2.88830        3.67380        3.80600
C         -0.23090        2.77070        0.10640
H         -1.67080       -1.80070        4.24100
H         -1.71600       -4.13210        3.38380
H         -1.08570       -4.60520        1.03390
H         -0.35630       -2.78000       -0.45280
H         -3.29410       -0.09060        4.15990
H         -3.05680        1.68820        4.05250
H         -2.69810        0.82810        5.59460
H          3.31510        5.61730        5.50650
H          1.61760        7.09240        6.61250
H         -0.80170        6.78040        6.10770
H         -1.50040        4.98700        4.49920
H          3.89980        3.91520        4.15970
H          2.85080        3.77150        2.70140
H          2.66980        2.60370        4.02060
H         -0.99690        3.52710        0.36350
H         -0.27910        2.62920       -0.99090
H          0.76360        3.17620        0.37160
