rmsd16.gzmat
 OpenBabel08211713403D

 42 44  0  0  0  0  0  0  0  0999 V2000
    0.0000    0.0000    0.0000 S   0  0  0  0  0  0  0  0  0  0  0  0
    1.4415    0.0000    0.0000 O   0  0  0  0  0  0  0  0  0  0  0  0
   -0.6877    0.0000   -1.2655 O   0  0  0  0  0  0  0  0  0  0  0  0
   -0.4593    1.5116    0.8037 N   0  0  0  0  0  0  0  0  0  0  0  0
   -1.3685    1.5350    1.8207 C   0  0  0  0  0  0  0  0  0  0  0  0
   -1.8129    0.4116    2.4661 C   0  0  0  0  0  0  0  0  0  0  0  0
   -1.4759   -0.9440    2.1187 C   0  0  0  0  0  0  0  0  0  0  0  0
   -2.0165   -2.0076    2.8718 C   0  0  0  0  0  0  0  0  0  0  0  0
   -1.6905   -3.3165    2.5700 C   0  0  0  0  0  0  0  0  0  0  0  0
   -0.8180   -3.6009    1.5098 C   0  0  0  0  0  0  0  0  0  0  0  0
   -0.2982   -2.5655    0.7499 C   0  0  0  0  0  0  0  0  0  0  0  0
   -0.6296   -1.2353    1.0419 C   0  0  0  0  0  0  0  0  0  0  0  0
   -2.7506    0.5809    3.4625 O   0  0  0  0  0  0  0  0  0  0  0  0
   -2.1506    0.7562    4.7477 C   0  0  0  0  0  0  0  0  0  0  0  0
   -1.8959    2.8756    2.2968 C   0  0  0  0  0  0  0  0  0  0  0  0
   -1.3834    3.4870    3.2086 O   0  0  0  0  0  0  0  0  0  0  0  0
   -2.9760    3.2785    1.5373 N   0  0  0  0  0  0  0  0  0  0  0  0
   -3.7700    4.2992    1.8331 C   0  0  0  0  0  0  0  0  0  0  0  0
   -4.8103    4.4891    0.9086 N   0  0  0  0  0  0  0  0  0  0  0  0
   -5.7232    5.5010    1.0616 C   0  0  0  0  0  0  0  0  0  0  0  0
   -5.6615    6.3643    2.1283 C   0  0  0  0  0  0  0  0  0  0  0  0
   -4.6355    6.2060    3.0930 C   0  0  0  0  0  0  0  0  0  0  0  0
   -3.7191    5.2059    2.9492 C   0  0  0  0  0  0  0  0  0  0  0  0
   -4.9163    3.5711   -0.2331 C   0  0  0  0  0  0  0  0  0  0  0  0
   -0.0833    2.7741    0.1560 C   0  0  0  0  0  0  0  0  0  0  0  0
   -2.7059   -1.7808    3.6858 H   0  0  0  0  0  0  0  0  0  0  0  0
   -2.1114   -4.1340    3.1533 H   0  0  0  0  0  0  0  0  0  0  0  0
   -0.5575   -4.6317    1.2870 H   0  0  0  0  0  0  0  0  0  0  0  0
    0.3765   -2.8062   -0.0778 H   0  0  0  0  0  0  0  0  0  0  0  0
   -1.5555    1.6771    4.7723 H   0  0  0  0  0  0  0  0  0  0  0  0
   -1.5351   -0.1062    5.0141 H   0  0  0  0  0  0  0  0  0  0  0  0
   -3.0197    0.8419    5.4082 H   0  0  0  0  0  0  0  0  0  0  0  0
   -6.5017    5.5862    0.2935 H   0  0  0  0  0  0  0  0  0  0  0  0
   -6.3890    7.1629    2.2387 H   0  0  0  0  0  0  0  0  0  0  0  0
   -4.5929    6.8928    3.9414 H   0  0  0  0  0  0  0  0  0  0  0  0
   -2.9078    5.0531    3.6699 H   0  0  0  0  0  0  0  0  0  0  0  0
   -5.8119    3.7692   -0.8377 H   0  0  0  0  0  0  0  0  0  0  0  0
   -4.9431    2.5175    0.1262 H   0  0  0  0  0  0  0  0  0  0  0  0
   -4.0128    3.6468   -0.8722 H   0  0  0  0  0  0  0  0  0  0  0  0
    0.8655    2.6544   -0.4014 H   0  0  0  0  0  0  0  0  0  0  0  0
    0.0878    3.5695    0.9059 H   0  0  0  0  0  0  0  0  0  0  0  0
   -0.8684    3.1163   -0.5446 H   0  0  0  0  0  0  0  0  0  0  0  0
  1  2  2  0  0  0  0
  1  4  1  0  0  0  0
  1 12  1  0  0  0  0
  3  1  2  0  0  0  0
  4  5  1  0  0  0  0
  5 15  1  0  0  0  0
  5  6  2  0  0  0  0
  6 13  1  0  0  0  0
  7  6  1  0  0  0  0
  7  8  2  0  0  0  0
  8 26  1  0  0  0  0
  9  8  1  0  0  0  0
  9 27  1  0  0  0  0
 10  9  2  0  0  0  0
 11 12  2  0  0  0  0
 11 10  1  0  0  0  0
 12  7  1  0  0  0  0
 13 14  1  0  0  0  0
 14 30  1  0  0  0  0
 14 31  1  0  0  0  0
 14 32  1  0  0  0  0
 15 16  2  0  0  0  0
 17 18  2  0  0  0  0
 17 15  1  0  0  0  0
 18 23  1  0  0  0  0
 19 20  1  0  0  0  0
 19 18  1  0  0  0  0
 20 21  2  0  0  0  0
 21 34  1  0  0  0  0
 21 22  1  0  0  0  0
 22 35  1  0  0  0  0
 23 22  2  0  0  0  0
 23 36  1  0  0  0  0
 24 38  1  0  0  0  0
 24 19  1  0  0  0  0
 25  4  1  0  0  0  0
 25 41  1  0  0  0  0
 28 10  1  0  0  0  0
 29 11  1  0  0  0  0
 33 20  1  0  0  0  0
 37 24  1  0  0  0  0
 39 24  1  0  0  0  0
 40 25  1  0  0  0  0
 42 25  1  0  0  0  0
M  END
$$$$
