33
rmsd154.gzmat
S          0.00000        0.00000        0.00000
O          1.43440        0.00000        0.00000
O         -0.78920        0.00000       -1.21340
N         -0.47240        1.47850        0.82290
C         -1.22720        2.47290        0.21780
N         -1.46090        3.71900        0.74210
N         -2.28800        4.37540       -0.07500
C         -2.60620        3.58840       -1.13290
N         -1.94310        2.35580       -0.97700
H         -1.91480        1.58620       -1.63190
C         -3.47480        3.91650       -2.24500
C         -4.09720        2.91230       -2.99450
C         -4.92610        3.25710       -4.05860
C         -5.14200        4.59780       -4.37470
C         -4.52990        5.59910       -3.62240
C         -3.69680        5.26300       -2.55900
C         -0.57760       -1.24670        1.07270
C         -1.89440       -1.69680        0.97600
C         -2.35240       -2.69040        1.84020
C         -1.49370       -3.23600        2.79320
C         -0.17310       -2.79540        2.87920
C          0.28630       -1.79980        2.01980
H          0.13410        1.83860        1.57070
H         -3.94660        1.86400       -2.74640
H         -5.40850        2.47560       -4.64260
H         -5.79000        4.86210       -5.20800
H         -4.70210        6.64630       -3.86580
H         -3.21740        6.04200       -1.96060
H         -2.58040       -1.28820        0.22520
H         -3.38140       -3.03930        1.77000
H         -1.85330       -4.00930        3.47230
H          0.49900       -3.23070        3.61700
H          1.32980       -1.47000        2.09570
