33
rmsd16.gzmat
S          0.00000        0.00000        0.00000
O          1.44760        0.00000        0.00000
O         -0.78110        0.00000       -1.20320
N         -0.42920        1.47940        0.84520
C          0.49370        2.46820        1.15440
N          0.18710        3.71330        1.64240
N          1.32620        4.36490        1.89040
C          2.38280        3.57530        1.57540
N          1.88530        2.34650        1.10040
H          2.41510        1.57780        0.71220
C          3.79040        3.89840        1.69140
C          4.74930        2.89180        1.84870
C          6.09530        3.23040        1.95950
C          6.48780        4.56760        1.91380
C          5.53180        5.57120        1.76270
C          4.18370        5.24110        1.65500
C         -0.58260       -1.24810        1.06900
C         -1.79850       -1.87970        0.80480
C         -2.25820       -2.88130        1.65750
C         -1.50270       -3.25250        2.76910
C         -0.28580       -2.62400        3.02890
C          0.17720       -1.62180        2.17780
H         -1.38360        1.84540        0.73530
H          4.45050        1.84690        1.89440
H          6.84280        2.44910        2.08570
H          7.54080        4.82690        1.99850
H          5.83850        6.61530        1.72860
H          3.42670        6.02240        1.54940
H         -2.40000       -1.60810       -0.07140
H         -3.20790       -3.37390        1.45560
H         -1.86320       -4.03650        3.43450
H          0.30410       -2.91670        3.89600
H          1.14000       -1.14500        2.39250
