33
rmsd167.gzmat
S          0.00000        0.00000        0.00000
O          1.44730        0.00000        0.00000
O         -0.77880        0.00000       -1.20480
N         -0.42750        1.47730        0.84980
C          0.49470        2.46870        1.15320
N          0.18830        3.71340        1.64160
N          1.32730        4.36600        1.88690
C          2.38350        3.57720        1.56950
N          1.88610        2.34790        1.09610
H          2.41630        1.57650        0.71290
C          3.79130        3.90110        1.67910
C          4.74980        2.89610        1.84690
C          6.09670        3.23520        1.94170
C          6.49010        4.57130        1.87370
C          5.53390        5.57340        1.71870
C          4.18530        5.24270        1.62140
C         -0.58780       -1.24630        1.06860
C         -1.74350       -1.95560        0.73980
C         -2.20910       -2.95530        1.59140
C         -1.52240       -3.24380        2.76990
C         -0.36430       -2.53870        3.09390
C          0.10610       -1.54060        2.24250
H         -1.38520        1.83840        0.75420
H          4.45010        1.85240        1.91120
H          6.84350        2.45410        2.07140
H          7.54420        4.83150        1.94350
H          5.84000        6.61710        1.67180
H          3.42860        6.02270        1.50390
H         -2.29400       -1.74400       -0.18540
H         -3.10970       -3.51110        1.33640
H         -1.89130       -4.02170        3.43820
H          0.17390       -2.76660        4.01250
H          1.02160       -1.00260        2.51140
