rmsd13.gzmat
 OpenBabel08211713403D

 33 35  0  0  0  0  0  0  0  0999 V2000
    0.0000    0.0000    0.0000 S   0  0  0  0  0  0  0  0  0  0  0  0
    1.4343    0.0000    0.0000 O   0  0  0  0  0  0  0  0  0  0  0  0
   -0.7814    0.0000   -1.2186 O   0  0  0  0  0  0  0  0  0  0  0  0
   -0.4939    1.4756    0.8196 N   0  0  0  0  0  0  0  0  0  0  0  0
   -1.1315    2.5141    0.1537 C   0  0  0  0  0  0  0  0  0  0  0  0
   -1.2673    3.7965    0.6220 N   0  0  0  0  0  0  0  0  0  0  0  0
   -2.0060    4.4890   -0.2469 N   0  0  0  0  0  0  0  0  0  0  0  0
   -2.3572    3.6922   -1.2892 C   0  0  0  0  0  0  0  0  0  0  0  0
   -1.8178    2.4124   -1.0593 N   0  0  0  0  0  0  0  0  0  0  0  0
   -1.8517    1.6085   -1.6712 H   0  0  0  0  0  0  0  0  0  0  0  0
   -3.1476    4.0634   -2.4449 C   0  0  0  0  0  0  0  0  0  0  0  0
   -3.2778    3.2081   -3.5444 C   0  0  0  0  0  0  0  0  0  0  0  0
   -4.0379    3.6022   -4.6426 C   0  0  0  0  0  0  0  0  0  0  0  0
   -4.6667    4.8462   -4.6514 C   0  0  0  0  0  0  0  0  0  0  0  0
   -4.5381    5.6996   -3.5566 C   0  0  0  0  0  0  0  0  0  0  0  0
   -3.7827    5.3119   -2.4540 C   0  0  0  0  0  0  0  0  0  0  0  0
   -0.5744   -1.2480    1.0727 C   0  0  0  0  0  0  0  0  0  0  0  0
   -1.9352   -1.5503    1.1310 C   0  0  0  0  0  0  0  0  0  0  0  0
   -2.3840   -2.5633    1.9771 C   0  0  0  0  0  0  0  0  0  0  0  0
   -1.4741   -3.2741    2.7583 C   0  0  0  0  0  0  0  0  0  0  0  0
   -0.1139   -2.9717    2.6981 C   0  0  0  0  0  0  0  0  0  0  0  0
    0.3373   -1.9579    1.8558 C   0  0  0  0  0  0  0  0  0  0  0  0
    0.0707    1.8041    1.6143 H   0  0  0  0  0  0  0  0  0  0  0  0
   -2.7859    2.2380   -3.5558 H   0  0  0  0  0  0  0  0  0  0  0  0
   -4.1372    2.9358   -5.4977 H   0  0  0  0  0  0  0  0  0  0  0  0
   -5.2562    5.1520   -5.5133 H   0  0  0  0  0  0  0  0  0  0  0  0
   -5.0269    6.6724   -3.5627 H   0  0  0  0  0  0  0  0  0  0  0  0
   -3.6760    5.9771   -1.5924 H   0  0  0  0  0  0  0  0  0  0  0  0
   -2.6645   -1.0086    0.5185 H   0  0  0  0  0  0  0  0  0  0  0  0
   -3.4458   -2.7996    2.0270 H   0  0  0  0  0  0  0  0  0  0  0  0
   -1.8260   -4.0681    3.4168 H   0  0  0  0  0  0  0  0  0  0  0  0
    0.5955   -3.5279    3.3087 H   0  0  0  0  0  0  0  0  0  0  0  0
    1.4115   -1.7362    1.8158 H   0  0  0  0  0  0  0  0  0  0  0  0
  1  2  2  0  0  0  0
  1  4  1  0  0  0  0
  1 17  1  0  0  0  0
  3  1  2  0  0  0  0
  4 23  1  0  0  0  0
  5  6  2  0  0  0  0
  5  4  1  0  0  0  0
  7  6  1  0  0  0  0
  8  9  1  0  0  0  0
  8  7  2  0  0  0  0
  9  5  1  0  0  0  0
 10  9  1  0  0  0  0
 11  8  1  0  0  0  0
 12 11  2  0  0  0  0
 13 12  1  0  0  0  0
 14 13  2  0  0  0  0
 14 15  1  0  0  0  0
 15 16  2  0  0  0  0
 16 11  1  0  0  0  0
 16 28  1  0  0  0  0
 17 18  2  0  0  0  0
 17 22  1  0  0  0  0
 18 19  1  0  0  0  0
 19 30  1  0  0  0  0
 19 20  2  0  0  0  0
 20 31  1  0  0  0  0
 21 20  1  0  0  0  0
 21 32  1  0  0  0  0
 22 21  2  0  0  0  0
 24 12  1  0  0  0  0
 25 13  1  0  0  0  0
 26 14  1  0  0  0  0
 27 15  1  0  0  0  0
 29 18  1  0  0  0  0
 33 22  1  0  0  0  0
M  END
$$$$
