rmsd166.gzmat
 OpenBabel08211713403D

 33 35  0  0  0  0  0  0  0  0999 V2000
    0.0000    0.0000    0.0000 S   0  0  0  0  0  0  0  0  0  0  0  0
    1.4479    0.0000    0.0000 O   0  0  0  0  0  0  0  0  0  0  0  0
   -0.7788    0.0000   -1.2042 O   0  0  0  0  0  0  0  0  0  0  0  0
   -0.4258    1.4787    0.8516 N   0  0  0  0  0  0  0  0  0  0  0  0
    0.4847    2.5059    1.0600 C   0  0  0  0  0  0  0  0  0  0  0  0
    0.1674    3.7859    1.4390 N   0  0  0  0  0  0  0  0  0  0  0  0
    1.3005    4.4663    1.6274 N   0  0  0  0  0  0  0  0  0  0  0  0
    2.3647    3.6624    1.3763 C   0  0  0  0  0  0  0  0  0  0  0  0
    1.8769    2.3920    1.0143 N   0  0  0  0  0  0  0  0  0  0  0  0
    2.4104    1.5997    0.6833 H   0  0  0  0  0  0  0  0  0  0  0  0
    3.7683    4.0112    1.4578 C   0  0  0  0  0  0  0  0  0  0  0  0
    4.7551    3.0231    1.5438 C   0  0  0  0  0  0  0  0  0  0  0  0
    6.0968    3.3884    1.6127 C   0  0  0  0  0  0  0  0  0  0  0  0
    6.4583    4.7345    1.6033 C   0  0  0  0  0  0  0  0  0  0  0  0
    5.4756    5.7203    1.5277 C   0  0  0  0  0  0  0  0  0  0  0  0
    4.1323    5.3635    1.4548 C   0  0  0  0  0  0  0  0  0  0  0  0
   -0.5825   -1.2476    1.0694 C   0  0  0  0  0  0  0  0  0  0  0  0
   -1.8307   -1.8311    0.8486 C   0  0  0  0  0  0  0  0  0  0  0  0
   -2.2886   -2.8320    1.7030 C   0  0  0  0  0  0  0  0  0  0  0  0
   -1.4983   -3.2528    2.7721 C   0  0  0  0  0  0  0  0  0  0  0  0
   -0.2478   -2.6752    2.9860 C   0  0  0  0  0  0  0  0  0  0  0  0
    0.2120   -1.6720    2.1346 C   0  0  0  0  0  0  0  0  0  0  0  0
   -1.3951    1.8166    0.7873 H   0  0  0  0  0  0  0  0  0  0  0  0
    4.4848    1.9702    1.5630 H   0  0  0  0  0  0  0  0  0  0  0  0
    6.8645    2.6192    1.6742 H   0  0  0  0  0  0  0  0  0  0  0  0
    7.5080    5.0152    1.6564 H   0  0  0  0  0  0  0  0  0  0  0  0
    5.7575    6.7717    1.5239 H   0  0  0  0  0  0  0  0  0  0  0  0
    3.3557    6.1315    1.3992 H   0  0  0  0  0  0  0  0  0  0  0  0
   -2.4595   -1.5227    0.0044 H   0  0  0  0  0  0  0  0  0  0  0  0
   -3.2633   -3.2871    1.5350 H   0  0  0  0  0  0  0  0  0  0  0  0
   -1.8585   -4.0348    3.4403 H   0  0  0  0  0  0  0  0  0  0  0  0
    0.3713   -3.0069    3.8178 H   0  0  0  0  0  0  0  0  0  0  0  0
    1.2010   -1.2348    2.3142 H   0  0  0  0  0  0  0  0  0  0  0  0
  1  4  1  0  0  0  0
  1 17  1  0  0  0  0
  2  1  2  0  0  0  0
  3  1  2  0  0  0  0
  4  5  1  0  0  0  0
  5  6  2  0  0  0  0
  6  7  1  0  0  0  0
  8 11  1  0  0  0  0
  8  7  2  0  0  0  0
  9  5  1  0  0  0  0
  9  8  1  0  0  0  0
 10  9  1  0  0  0  0
 11 12  1  0  0  0  0
 12 24  1  0  0  0  0
 12 13  2  0  0  0  0
 13 25  1  0  0  0  0
 14 13  1  0  0  0  0
 14 26  1  0  0  0  0
 15 14  2  0  0  0  0
 16 11  2  0  0  0  0
 16 15  1  0  0  0  0
 17 22  1  0  0  0  0
 18 17  2  0  0  0  0
 18 19  1  0  0  0  0
 19 20  2  0  0  0  0
 20 21  1  0  0  0  0
 20 31  1  0  0  0  0
 21 32  1  0  0  0  0
 22 33  1  0  0  0  0
 22 21  2  0  0  0  0
 23  4  1  0  0  0  0
 27 15  1  0  0  0  0
 28 16  1  0  0  0  0
 29 18  1  0  0  0  0
 30 19  1  0  0  0  0
M  END
$$$$
