33
rmsd170.gzmat
S          0.00000        0.00000        0.00000
O          1.43440        0.00000        0.00000
O         -0.77830        0.00000       -1.22030
N         -0.50110        1.47710        0.81340
C         -1.10480        2.52820        0.13460
N         -1.23040        3.80990        0.60710
N         -1.93750        4.51990       -0.27430
C         -2.27970        3.73430       -1.32730
N         -1.76650        2.44390       -1.09390
H         -1.78500        1.64860       -1.71790
C         -3.03310        4.12890       -2.50040
C         -3.14560        5.49210       -2.80150
C         -3.85920        5.89830       -3.92500
C         -4.46210        4.95080       -4.75110
C         -4.35540        3.59410       -4.44980
C         -3.64720        3.18000       -3.32450
C         -0.57360       -1.24480        1.07860
C         -1.94320       -1.47010        1.21890
C         -2.39700       -2.47520        2.07140
C         -1.48310       -3.26020        2.77320
C         -0.11430       -3.03740        2.62810
C          0.34190       -2.02720        1.78380
H          0.04370        1.79450        1.62620
H         -2.67410        6.22980       -2.14620
H         -3.94500        6.95820       -4.15780
H         -5.01730        5.27020       -5.63040
H         -4.82750        2.85490       -5.09460
H         -3.58330        2.11990       -3.09120
H         -2.67640       -0.87090        0.66800
H         -3.46580       -2.64670        2.18780
H         -1.83830       -4.04910        3.43630
H          0.59850       -3.65360        3.17360
H          1.42280       -1.86530        1.68370
