
     RDKit          3D

 33 35  0  0  0  0  0  0  0  0999 V2000
   -0.3875   -0.0621   -0.0190 S   0  0  0  0  0  0  0  0  0  0  0  0
    1.0522    0.0781   -0.2167 O   0  0  0  0  0  0  0  0  0  0  0  0
   -1.2874   -0.2546   -1.1645 O   0  0  0  0  0  0  0  0  0  0  0  0
   -1.0392    1.2915    0.8065 N   0  0  0  0  0  0  0  0  0  0  0  0
   -1.4083    2.4286    0.0839 C   0  0  0  0  0  0  0  0  0  0  0  0
   -1.2448    3.6589    0.5055 N   0  0  0  0  0  0  0  0  0  0  0  0
   -1.8064    4.4792   -0.4382 N   0  0  0  0  0  0  0  0  0  0  0  0
   -2.2792    3.7319   -1.4140 C   0  0  0  0  0  0  0  0  0  0  0  0
   -2.0576    2.4027   -1.1128 N   0  0  0  0  0  0  0  0  0  0  0  0
   -2.2252    1.5613   -1.6566 H   0  0  0  0  0  0  0  0  0  0  0  0
   -2.9316    4.2159   -2.6300 C   0  0  0  0  0  0  0  0  0  0  0  0
   -3.0983    5.6015   -2.8080 C   0  0  0  0  0  0  0  0  0  0  0  0
   -3.7154    6.0919   -3.9561 C   0  0  0  0  0  0  0  0  0  0  0  0
   -4.1744    5.2126   -4.9439 C   0  0  0  0  0  0  0  0  0  0  0  0
   -4.0112    3.8357   -4.7741 C   0  0  0  0  0  0  0  0  0  0  0  0
   -3.3943    3.3385   -3.6248 C   0  0  0  0  0  0  0  0  0  0  0  0
   -0.6789   -1.3352    1.1906 C   0  0  0  0  0  0  0  0  0  0  0  0
   -1.9858   -1.7871    1.3959 C   0  0  0  0  0  0  0  0  0  0  0  0
   -2.2026   -2.7892    2.3404 C   0  0  0  0  0  0  0  0  0  0  0  0
   -1.1244   -3.3248    3.0559 C   0  0  0  0  0  0  0  0  0  0  0  0
    0.1761   -2.8655    2.8301 C   0  0  0  0  0  0  0  0  0  0  0  0
    0.4100   -1.8609    1.8875 C   0  0  0  0  0  0  0  0  0  0  0  0
   -0.4904    1.5447    1.6292 H   0  0  0  0  0  0  0  0  0  0  0  0
   -2.7334    6.2718   -2.0285 H   0  0  0  0  0  0  0  0  0  0  0  0
   -3.8397    7.1699   -4.0841 H   0  0  0  0  0  0  0  0  0  0  0  0
   -4.6573    5.6006   -5.8437 H   0  0  0  0  0  0  0  0  0  0  0  0
   -4.3653    3.1422   -5.5404 H   0  0  0  0  0  0  0  0  0  0  0  0
   -3.2757    2.2582   -3.5115 H   0  0  0  0  0  0  0  0  0  0  0  0
   -2.8080   -1.3601    0.8200 H   0  0  0  0  0  0  0  0  0  0  0  0
   -3.2152   -3.1573    2.5179 H   0  0  0  0  0  0  0  0  0  0  0  0
   -1.3015   -4.1103    3.7940 H   0  0  0  0  0  0  0  0  0  0  0  0
    1.0136   -3.2917    3.3863 H   0  0  0  0  0  0  0  0  0  0  0  0
    1.4143   -1.4886    1.6809 H   0  0  0  0  0  0  0  0  0  0  0  0
  1  2  2  0
  1  3  2  0
  1  4  1  0
  1 17  1  0
  4  5  1  0
  4 23  1  0
  5  6  2  0
  5  9  1  0
  6  7  1  0
  7  8  2  0
  8  9  1  0
  8 11  1  0
  9 10  1  0
 11 12  2  0
 11 16  1  0
 12 13  1  0
 12 24  1  0
 13 14  2  0
 13 25  1  0
 14 15  1  0
 14 26  1  0
 15 16  2  0
 15 27  1  0
 16 28  1  0
 17 18  2  0
 17 22  1  0
 18 19  1  0
 18 29  1  0
 19 20  2  0
 19 30  1  0
 20 21  1  0
 20 31  1  0
 21 22  2  0
 21 32  1  0
 22 33  1  0
M  END

