rmsd227.gzmat
 OpenBabel08211713363D

 56 59  0  0  1  0  0  0  0  0999 V2000
    0.0000    0.0000    0.0000 F   0  0  0  0  0  0  0  0  0  0  0  0
    1.3407    0.0000    0.0000 C   0  0  0  0  0  0  0  0  0  0  0  0
    1.6330    0.0000    1.3047 F   0  0  0  0  0  0  0  0  0  0  0  0
    1.8030   -1.1540   -0.6118 O   0  0  0  0  0  0  0  0  0  0  0  0
    1.4238   -2.3576   -0.0617 C   0  0  0  0  0  0  0  0  0  0  0  0
    2.1164   -2.8747    1.0511 C   0  0  0  0  0  0  0  0  0  0  0  0
    3.0549   -2.0407    1.5654 O   0  0  0  0  0  0  0  0  0  0  0  0
    3.7032   -2.4827    2.7338 C   0  0  0  0  0  0  0  0  0  0  0  0
    4.8509   -3.4518    2.5634 C   0  0  0  0  0  0  0  0  0  0  0  0
    5.1244   -1.9807    2.7823 C   0  0  0  0  0  0  0  0  0  0  0  0
    1.8156   -4.1523    1.5154 C   0  0  0  0  0  0  0  0  0  0  0  0
    0.8381   -4.9043    0.8588 C   0  0  0  0  0  0  0  0  0  0  0  0
    0.1614   -4.3894   -0.2450 C   0  0  0  0  0  0  0  0  0  0  0  0
    0.4473   -3.1038   -0.7062 C   0  0  0  0  0  0  0  0  0  0  0  0
    0.5554   -6.3010    1.3575 C   0  0  1  0  0  0  0  0  0  0  0  0
    1.0198   -6.4384    2.3761 H   0  0  0  0  0  0  0  0  0  0  0  0
   -0.9156   -6.5207    1.4599 C   0  0  0  0  0  0  0  0  0  0  0  0
   -1.6487   -7.1634    0.5697 N   0  0  0  0  0  0  0  0  0  0  0  0
   -2.9852   -7.2199    0.9260 C   0  0  0  0  0  0  0  0  0  0  0  0
   -3.3020   -6.6013    2.1153 C   0  0  2  0  0  0  0  0  0  0  0  0
   -1.8632   -5.9127    2.8231 S   0  0  0  0  0  0  0  0  0  0  0  0
   -4.6200   -6.4902    2.7632 C   0  0  0  0  0  0  0  0  0  0  0  0
   -4.4712   -5.6506    3.8658 O   0  0  0  0  0  0  0  0  0  0  0  0
   -5.6716   -5.8422    1.8019 C   0  0  0  0  0  0  0  0  0  0  0  0
   -6.8077   -5.5379    2.4205 F   0  0  0  0  0  0  0  0  0  0  0  0
   -5.2390   -4.7076    1.2703 F   0  0  0  0  0  0  0  0  0  0  0  0
   -6.0191   -6.6183    0.7825 F   0  0  0  0  0  0  0  0  0  0  0  0
   -5.1140   -7.8871    3.2684 C   0  0  0  0  0  0  0  0  0  0  0  0
   -4.3425   -8.3595    4.2380 F   0  0  0  0  0  0  0  0  0  0  0  0
   -6.3405   -7.8408    3.7799 F   0  0  0  0  0  0  0  0  0  0  0  0
   -5.1520   -8.8222    2.3294 F   0  0  0  0  0  0  0  0  0  0  0  0
    1.2292   -7.3165    0.4029 C   0  0  0  0  0  0  0  0  0  0  0  0
    1.3460   -8.6472    1.0751 C   0  0  0  0  0  0  0  0  0  0  0  0
    2.4124   -8.9151    1.9383 C   0  0  0  0  0  0  0  0  0  0  0  0
    2.4751  -10.1573    2.5616 C   0  0  0  0  0  0  0  0  0  0  0  0
    1.4955  -11.1145    2.3257 C   0  0  0  0  0  0  0  0  0  0  0  0
    0.4535  -10.8422    1.4692 N   0  3  0  0  0  0  0  0  0  0  0  0
    0.3742   -9.6174    0.8500 C   0  0  0  0  0  0  0  0  0  0  0  0
   -0.4181  -11.7049    1.2588 O   0  5  0  0  0  0  0  0  0  0  0  0
    1.8030    0.8498   -0.5797 H   0  0  0  0  0  0  0  0  0  0  0  0
    3.0345   -2.4863    3.5905 H   0  0  0  0  0  0  0  0  0  0  0  0
    5.0418   -3.8866    1.5841 H   0  0  0  0  0  0  0  0  0  0  0  0
    5.0780   -4.1707    3.3441 H   0  0  0  0  0  0  0  0  0  0  0  0
    5.5436   -1.6328    3.7220 H   0  0  0  0  0  0  0  0  0  0  0  0
    5.5011   -1.3780    1.9556 H   0  0  0  0  0  0  0  0  0  0  0  0
    2.3431   -4.5623    2.3723 H   0  0  0  0  0  0  0  0  0  0  0  0
   -0.5950   -4.9887   -0.7548 H   0  0  0  0  0  0  0  0  0  0  0  0
   -0.0805   -2.6843   -1.5637 H   0  0  0  0  0  0  0  0  0  0  0  0
   -3.6516   -7.7462    0.2441 H   0  0  0  0  0  0  0  0  0  0  0  0
   -5.2876   -5.5677    4.4196 H   0  0  0  0  0  0  0  0  0  0  0  0
    2.2290   -6.9376    0.1008 H   0  0  0  0  0  0  0  0  0  0  0  0
    0.6485   -7.3879   -0.5450 H   0  0  0  0  0  0  0  0  0  0  0  0
    3.1799   -8.1685    2.1164 H   0  0  0  0  0  0  0  0  0  0  0  0
    3.2940  -10.3927    3.2432 H   0  0  0  0  0  0  0  0  0  0  0  0
    1.5071  -12.1004    2.7944 H   0  0  0  0  0  0  0  0  0  0  0  0
   -0.4865   -9.4443    0.1917 H   0  0  0  0  0  0  0  0  0  0  0  0
  2  1  1  0  0  0  0
  2  3  1  0  0  0  0
  4  5  1  0  0  0  0
  4  2  1  0  0  0  0
  5  6  2  0  0  0  0
  6 11  1  0  0  0  0
  6  7  1  0  0  0  0
  7  8  1  0  0  0  0
  8 10  1  0  0  0  0
  8 41  1  0  0  0  0
  9  8  1  0  0  0  0
  9 10  1  0  0  0  0
  9 43  1  0  0  0  0
 10 44  1  0  0  0  0
 11 46  1  0  0  0  0
 12 15  1  0  0  0  0
 12 11  2  0  0  0  0
 13 12  1  0  0  0  0
 14 13  2  0  0  0  0
 14  5  1  0  0  0  0
 15 17  1  0  0  0  0
 15 16  1  1  0  0  0
 17 21  1  0  0  0  0
 18 19  2  0  0  0  0
 18 17  2  0  0  0  0
 19 20  1  0  0  0  0
 20 22  1  1  0  0  0
 20 21  1  0  0  0  0
 22 28  1  0  0  0  0
 22 23  1  0  0  0  0
 23 50  1  0  0  0  0
 24 25  1  0  0  0  0
 24 22  1  0  0  0  0
 26 24  1  0  0  0  0
 27 24  1  0  0  0  0
 28 30  1  0  0  0  0
 28 29  1  0  0  0  0
 31 28  1  0  0  0  0
 32 33  1  0  0  0  0
 32 15  1  0  0  0  0
 33 34  1  0  0  0  0
 34 53  1  0  0  0  0
 34 35  2  0  0  0  0
 35 54  1  0  0  0  0
 36 35  1  0  0  0  0
 36 55  1  0  0  0  0
 37 36  2  0  0  0  0
 38 33  2  0  0  0  0
 38 37  1  0  0  0  0
 39 37  1  0  0  0  0
 40  2  1  0  0  0  0
 42  9  1  0  0  0  0
 45 10  1  0  0  0  0
 47 13  1  0  0  0  0
 48 14  1  0  0  0  0
 49 19  1  0  0  0  0
 51 32  1  0  0  0  0
 52 32  1  0  0  0  0
 56 38  1  0  0  0  0
M  RAD  1  20   2
M  CHG  2  37   1  39  -1
M  END
$$$$
