rmsd80.gzmat
 OpenBabel08211713363D

 56 59  0  0  1  0  0  0  0  0999 V2000
    0.0000    0.0000    0.0000 F   0  0  0  0  0  0  0  0  0  0  0  0
    1.3411    0.0000    0.0000 C   0  0  0  0  0  0  0  0  0  0  0  0
    1.6327    0.0000    1.3046 F   0  0  0  0  0  0  0  0  0  0  0  0
    1.8033   -1.1528   -0.6137 O   0  0  0  0  0  0  0  0  0  0  0  0
    1.4373   -2.3570   -0.0551 C   0  0  0  0  0  0  0  0  0  0  0  0
    2.1481   -2.8674    1.0496 C   0  0  0  0  0  0  0  0  0  0  0  0
    3.0832   -2.0271    1.5541 O   0  0  0  0  0  0  0  0  0  0  0  0
    3.8306   -2.5138    2.6453 C   0  0  0  0  0  0  0  0  0  0  0  0
    4.9893   -3.4287    2.3317 C   0  0  0  0  0  0  0  0  0  0  0  0
    5.2365   -1.9660    2.6195 C   0  0  0  0  0  0  0  0  0  0  0  0
    1.8577   -4.1457    1.5193 C   0  0  0  0  0  0  0  0  0  0  0  0
    0.8850   -4.9078    0.8679 C   0  0  0  0  0  0  0  0  0  0  0  0
    0.1878   -4.3975   -0.2252 C   0  0  0  0  0  0  0  0  0  0  0  0
    0.4564   -3.1081   -0.6863 C   0  0  0  0  0  0  0  0  0  0  0  0
    0.6548   -6.3249    1.3363 C   0  0  1  0  0  0  0  0  0  0  0  0
    1.1112   -6.4679    2.3584 H   0  0  0  0  0  0  0  0  0  0  0  0
   -0.8018   -6.6225    1.4251 C   0  0  0  0  0  0  0  0  0  0  0  0
   -1.4289   -7.5340    0.7044 N   0  0  0  0  0  0  0  0  0  0  0  0
   -2.7791   -7.6033    1.0005 C   0  0  0  0  0  0  0  0  0  0  0  0
   -3.2130   -6.7287    1.9731 C   0  0  1  0  0  0  0  0  0  0  0  0
   -1.8732   -5.7678    2.5429 S   0  0  0  0  0  0  0  0  0  0  0  0
   -4.5758   -6.5614    2.5061 C   0  0  0  0  0  0  0  0  0  0  0  0
   -4.4997   -5.6494    3.5569 O   0  0  0  0  0  0  0  0  0  0  0  0
   -5.5330   -5.9816    1.4117 C   0  0  0  0  0  0  0  0  0  0  0  0
   -6.7822   -5.8408    1.8443 F   0  0  0  0  0  0  0  0  0  0  0  0
   -5.1548   -4.7756    1.0114 F   0  0  0  0  0  0  0  0  0  0  0  0
   -5.6169   -6.7261    0.3169 F   0  0  0  0  0  0  0  0  0  0  0  0
   -5.1340   -7.9086    3.0758 C   0  0  0  0  0  0  0  0  0  0  0  0
   -4.3144   -8.4579    3.9611 F   0  0  0  0  0  0  0  0  0  0  0  0
   -6.2925   -7.7544    3.7087 F   0  0  0  0  0  0  0  0  0  0  0  0
   -5.3556   -8.8349    2.1514 F   0  0  0  0  0  0  0  0  0  0  0  0
    1.3717   -7.2960    0.3647 C   0  0  0  0  0  0  0  0  0  0  0  0
    2.8189   -6.9367    0.2605 C   0  0  0  0  0  0  0  0  0  0  0  0
    3.3388   -6.3864   -0.9124 C   0  0  0  0  0  0  0  0  0  0  0  0
    4.6794   -6.0129   -0.9450 C   0  0  0  0  0  0  0  0  0  0  0  0
    5.4848   -6.1822    0.1751 C   0  0  0  0  0  0  0  0  0  0  0  0
    4.9636   -6.7303    1.3236 N   0  3  0  0  0  0  0  0  0  0  0  0
    3.6477   -7.1174    1.3683 C   0  0  0  0  0  0  0  0  0  0  0  0
    5.6826   -6.8591    2.3340 O   0  5  0  0  0  0  0  0  0  0  0  0
    1.8005    0.8517   -0.5788 H   0  0  0  0  0  0  0  0  0  0  0  0
    3.2279   -2.5870    3.5461 H   0  0  0  0  0  0  0  0  0  0  0  0
    5.1202   -3.7980    1.3162 H   0  0  0  0  0  0  0  0  0  0  0  0
    5.2980   -4.1939    3.0428 H   0  0  0  0  0  0  0  0  0  0  0  0
    5.7122   -1.6612    3.5473 H   0  0  0  0  0  0  0  0  0  0  0  0
    5.5343   -1.3050    1.8063 H   0  0  0  0  0  0  0  0  0  0  0  0
    2.4009   -4.5548    2.3686 H   0  0  0  0  0  0  0  0  0  0  0  0
   -0.5641   -5.0022   -0.7305 H   0  0  0  0  0  0  0  0  0  0  0  0
   -0.0840   -2.6919   -1.5367 H   0  0  0  0  0  0  0  0  0  0  0  0
   -3.3650   -8.3328    0.4446 H   0  0  0  0  0  0  0  0  0  0  0  0
   -5.3779   -5.4151    3.9498 H   0  0  0  0  0  0  0  0  0  0  0  0
    0.8691   -7.2712   -0.6275 H   0  0  0  0  0  0  0  0  0  0  0  0
    1.2380   -8.3434    0.7112 H   0  0  0  0  0  0  0  0  0  0  0  0
    2.7027   -6.2347   -1.7812 H   0  0  0  0  0  0  0  0  0  0  0  0
    5.1086   -5.5753   -1.8485 H   0  0  0  0  0  0  0  0  0  0  0  0
    6.5390   -5.8986    0.1947 H   0  0  0  0  0  0  0  0  0  0  0  0
    3.2940   -7.5615    2.3005 H   0  0  0  0  0  0  0  0  0  0  0  0
  2  1  1  0  0  0  0
  2  3  1  0  0  0  0
  4  5  1  0  0  0  0
  4  2  1  0  0  0  0
  5  6  2  0  0  0  0
  6 11  1  0  0  0  0
  6  7  1  0  0  0  0
  7  8  1  0  0  0  0
  8 41  1  0  0  0  0
  9 10  1  0  0  0  0
  9  8  1  0  0  0  0
  9 43  1  0  0  0  0
 10  8  1  0  0  0  0
 10 44  1  0  0  0  0
 11 46  1  0  0  0  0
 12 15  1  0  0  0  0
 12 11  2  0  0  0  0
 13 12  1  0  0  0  0
 14 13  2  0  0  0  0
 14  5  1  0  0  0  0
 15 17  1  0  0  0  0
 15 16  1  1  0  0  0
 17 21  1  0  0  0  0
 18 19  2  0  0  0  0
 18 17  2  0  0  0  0
 19 20  1  0  0  0  0
 20 22  1  6  0  0  0
 20 21  1  0  0  0  0
 22 28  1  0  0  0  0
 22 23  1  0  0  0  0
 23 50  1  0  0  0  0
 24 25  1  0  0  0  0
 24 22  1  0  0  0  0
 26 24  1  0  0  0  0
 27 24  1  0  0  0  0
 28 30  1  0  0  0  0
 28 29  1  0  0  0  0
 31 28  1  0  0  0  0
 32 52  1  0  0  0  0
 32 15  1  0  0  0  0
 33 32  1  0  0  0  0
 33 38  2  0  0  0  0
 34 33  1  0  0  0  0
 35 34  2  0  0  0  0
 35 36  1  0  0  0  0
 36 55  1  0  0  0  0
 36 37  2  0  0  0  0
 37 38  1  0  0  0  0
 37 39  1  0  0  0  0
 38 56  1  0  0  0  0
 40  2  1  0  0  0  0
 42  9  1  0  0  0  0
 45 10  1  0  0  0  0
 47 13  1  0  0  0  0
 48 14  1  0  0  0  0
 49 19  1  0  0  0  0
 51 32  1  0  0  0  0
 53 34  1  0  0  0  0
 54 35  1  0  0  0  0
M  RAD  1  20   2
M  CHG  2  37   1  39  -1
M  END
$$$$
