rmsd133.gzmat
 OpenBabel08211713363D

 56 59  0  0  1  0  0  0  0  0999 V2000
    0.0000    0.0000    0.0000 F   0  0  0  0  0  0  0  0  0  0  0  0
    1.3354    0.0000    0.0000 C   0  0  0  0  0  0  0  0  0  0  0  0
    1.6664    0.0000    1.2948 F   0  0  0  0  0  0  0  0  0  0  0  0
    1.8333   -1.1252   -0.6286 O   0  0  0  0  0  0  0  0  0  0  0  0
    1.4748   -2.4036   -0.2994 C   0  0  0  0  0  0  0  0  0  0  0  0
    0.6418   -2.8226    0.7530 C   0  0  0  0  0  0  0  0  0  0  0  0
    0.1487   -1.8328    1.5442 O   0  0  0  0  0  0  0  0  0  0  0  0
   -0.8967   -2.1958    2.4125 C   0  0  0  0  0  0  0  0  0  0  0  0
   -0.5003   -2.7108    3.7774 C   0  0  0  0  0  0  0  0  0  0  0  0
   -0.9432   -1.2749    3.6054 C   0  0  0  0  0  0  0  0  0  0  0  0
    0.3969   -4.1810    0.9407 C   0  0  0  0  0  0  0  0  0  0  0  0
    0.9762   -5.1154    0.0812 C   0  0  0  0  0  0  0  0  0  0  0  0
    1.8013   -4.6969   -0.9609 C   0  0  0  0  0  0  0  0  0  0  0  0
    2.0548   -3.3425   -1.1539 C   0  0  0  0  0  0  0  0  0  0  0  0
    0.6936   -6.5809    0.3030 C   0  0  1  0  0  0  0  0  0  0  0  0
   -0.0156   -6.6963    1.1712 H   0  0  0  0  0  0  0  0  0  0  0  0
    0.0860   -7.1596   -0.9316 C   0  0  0  0  0  0  0  0  0  0  0  0
    0.7659   -7.5191   -2.0067 N   0  0  0  0  0  0  0  0  0  0  0  0
   -0.0505   -8.0194   -3.0051 C   0  0  0  0  0  0  0  0  0  0  0  0
   -1.3948   -8.0577   -2.7020 C   0  0  2  0  0  0  0  0  0  0  0  0
   -1.6524   -7.4263   -1.0977 S   0  0  0  0  0  0  0  0  0  0  0  0
   -2.5021   -8.5455   -3.5405 C   0  0  0  0  0  0  0  0  0  0  0  0
   -3.6376   -8.6058   -2.7353 O   0  0  0  0  0  0  0  0  0  0  0  0
   -2.7792   -7.5600   -4.7250 C   0  0  0  0  0  0  0  0  0  0  0  0
   -1.7068   -7.2700   -5.4490 F   0  0  0  0  0  0  0  0  0  0  0  0
   -3.6771   -8.0307   -5.5853 F   0  0  0  0  0  0  0  0  0  0  0  0
   -3.2666   -6.4022   -4.3003 F   0  0  0  0  0  0  0  0  0  0  0  0
   -2.2133   -9.9877   -4.0786 C   0  0  0  0  0  0  0  0  0  0  0  0
   -1.7684  -10.8038   -3.1335 F   0  0  0  0  0  0  0  0  0  0  0  0
   -3.2965  -10.5736   -4.5771 F   0  0  0  0  0  0  0  0  0  0  0  0
   -1.3110  -10.0266   -5.0522 F   0  0  0  0  0  0  0  0  0  0  0  0
    1.9983   -7.3254    0.6766 C   0  0  0  0  0  0  0  0  0  0  0  0
    1.6724   -8.7175    1.1147 C   0  0  0  0  0  0  0  0  0  0  0  0
    1.7583   -9.7876    0.2236 C   0  0  0  0  0  0  0  0  0  0  0  0
    1.4002  -11.0596    0.6621 C   0  0  0  0  0  0  0  0  0  0  0  0
    0.9701  -11.2580    1.9684 C   0  0  0  0  0  0  0  0  0  0  0  0
    0.8965  -10.1971    2.8416 N   0  3  0  0  0  0  0  0  0  0  0  0
    1.2430   -8.9358    2.4236 C   0  0  0  0  0  0  0  0  0  0  0  0
    0.5088  -10.3789    4.0114 O   0  5  0  0  0  0  0  0  0  0  0  0
    1.7912    0.8566   -0.5832 H   0  0  0  0  0  0  0  0  0  0  0  0
   -1.7798   -2.5300    1.8747 H   0  0  0  0  0  0  0  0  0  0  0  0
    0.5484   -2.9173    3.9845 H   0  0  0  0  0  0  0  0  0  0  0  0
   -1.1343   -3.4196    4.3006 H   0  0  0  0  0  0  0  0  0  0  0  0
   -1.9017   -0.9424    3.9926 H   0  0  0  0  0  0  0  0  0  0  0  0
   -0.2068   -0.4751    3.6880 H   0  0  0  0  0  0  0  0  0  0  0  0
   -0.2382   -4.5077    1.7621 H   0  0  0  0  0  0  0  0  0  0  0  0
    2.2428   -5.4308   -1.6396 H   0  0  0  0  0  0  0  0  0  0  0  0
    2.6968   -3.0037   -1.9674 H   0  0  0  0  0  0  0  0  0  0  0  0
    0.4356   -8.3313   -3.9275 H   0  0  0  0  0  0  0  0  0  0  0  0
   -4.4672   -8.8284   -3.2282 H   0  0  0  0  0  0  0  0  0  0  0  0
    2.5323   -6.7636    1.4723 H   0  0  0  0  0  0  0  0  0  0  0  0
    2.6934   -7.3292   -0.1926 H   0  0  0  0  0  0  0  0  0  0  0  0
    2.0891   -9.6260   -0.8017 H   0  0  0  0  0  0  0  0  0  0  0  0
    1.4510  -11.9120   -0.0185 H   0  0  0  0  0  0  0  0  0  0  0  0
    0.6784  -12.2374    2.3533 H   0  0  0  0  0  0  0  0  0  0  0  0
    1.1690   -8.1321    3.1589 H   0  0  0  0  0  0  0  0  0  0  0  0
  1  2  1  0  0  0  0
  2  3  1  0  0  0  0
  4  5  1  0  0  0  0
  4  2  1  0  0  0  0
  5  6  2  0  0  0  0
  6 11  1  0  0  0  0
  6  7  1  0  0  0  0
  7  8  1  0  0  0  0
  8 10  1  0  0  0  0
  8  9  1  0  0  0  0
  9 42  1  0  0  0  0
  9 43  1  0  0  0  0
 10 45  1  0  0  0  0
 10  9  1  0  0  0  0
 10 44  1  0  0  0  0
 11 46  1  0  0  0  0
 12 15  1  0  0  0  0
 12 11  2  0  0  0  0
 13 12  1  0  0  0  0
 14 13  2  0  0  0  0
 14  5  1  0  0  0  0
 15 32  1  0  0  0  0
 15 16  1  1  0  0  0
 17 15  1  0  0  0  0
 18 17  2  0  0  0  0
 19 20  1  0  0  0  0
 19 18  2  0  0  0  0
 20 22  1  1  0  0  0
 20 21  1  0  0  0  0
 21 17  1  0  0  0  0
 22 23  1  0  0  0  0
 24 27  1  0  0  0  0
 24 22  1  0  0  0  0
 25 24  1  0  0  0  0
 26 24  1  0  0  0  0
 28 22  1  0  0  0  0
 28 29  1  0  0  0  0
 30 28  1  0  0  0  0
 31 28  1  0  0  0  0
 32 33  1  0  0  0  0
 32 51  1  0  0  0  0
 33 38  2  0  0  0  0
 34 35  2  0  0  0  0
 34 33  1  0  0  0  0
 35 36  1  0  0  0  0
 36 55  1  0  0  0  0
 36 37  2  0  0  0  0
 37 39  1  0  0  0  0
 38 37  1  0  0  0  0
 38 56  1  0  0  0  0
 40  2  1  0  0  0  0
 41  8  1  0  0  0  0
 47 13  1  0  0  0  0
 48 14  1  0  0  0  0
 49 19  1  0  0  0  0
 50 23  1  0  0  0  0
 52 32  1  0  0  0  0
 53 34  1  0  0  0  0
 54 35  1  0  0  0  0
M  RAD  1  20   2
M  CHG  2  37   1  39  -1
M  END
$$$$
