rmsd170.gzmat
 OpenBabel08211713363D

 56 59  0  0  1  0  0  0  0  0999 V2000
    0.0000    0.0000    0.0000 F   0  0  0  0  0  0  0  0  0  0  0  0
    1.3412    0.0000    0.0000 C   0  0  0  0  0  0  0  0  0  0  0  0
    1.6326    0.0000    1.3048 F   0  0  0  0  0  0  0  0  0  0  0  0
    1.8025   -1.1541   -0.6121 O   0  0  0  0  0  0  0  0  0  0  0  0
    1.4427   -2.3561   -0.0445 C   0  0  0  0  0  0  0  0  0  0  0  0
    2.1550   -2.8542    1.0650 C   0  0  0  0  0  0  0  0  0  0  0  0
    3.0932   -2.0084    1.5544 O   0  0  0  0  0  0  0  0  0  0  0  0
    3.8160   -2.4600    2.6761 C   0  0  0  0  0  0  0  0  0  0  0  0
    4.9410   -3.4361    2.4302 C   0  0  0  0  0  0  0  0  0  0  0  0
    5.2423   -1.9689    2.6299 C   0  0  0  0  0  0  0  0  0  0  0  0
    1.8667   -4.1275    1.5494 C   0  0  0  0  0  0  0  0  0  0  0  0
    0.8964   -4.8992    0.9057 C   0  0  0  0  0  0  0  0  0  0  0  0
    0.2021   -4.4031   -0.1962 C   0  0  0  0  0  0  0  0  0  0  0  0
    0.4662   -3.1176   -0.6697 C   0  0  0  0  0  0  0  0  0  0  0  0
    0.6628   -6.3081    1.3944 C   0  0  1  0  0  0  0  0  0  0  0  0
    1.0901   -6.4286    2.4324 H   0  0  0  0  0  0  0  0  0  0  0  0
   -0.7919   -6.6239    1.4502 C   0  0  0  0  0  0  0  0  0  0  0  0
   -1.3592   -7.6401    0.8254 N   0  0  0  0  0  0  0  0  0  0  0  0
   -2.7207   -7.7105    1.0610 C   0  0  0  0  0  0  0  0  0  0  0  0
   -3.2245   -6.7298    1.8880 C   0  0  1  0  0  0  0  0  0  0  0  0
   -1.9385   -5.6651    2.3945 S   0  0  0  0  0  0  0  0  0  0  0  0
   -4.6167   -6.5355    2.3271 C   0  0  0  0  0  0  0  0  0  0  0  0
   -4.6406   -5.4029    3.1384 O   0  0  0  0  0  0  0  0  0  0  0  0
   -5.5623   -6.2828    1.1056 C   0  0  0  0  0  0  0  0  0  0  0  0
   -5.6654   -7.3165    0.2794 F   0  0  0  0  0  0  0  0  0  0  0  0
   -6.8070   -5.9949    1.4724 F   0  0  0  0  0  0  0  0  0  0  0  0
   -5.1614   -5.2575    0.3671 F   0  0  0  0  0  0  0  0  0  0  0  0
   -5.1115   -7.7560    3.1730 C   0  0  0  0  0  0  0  0  0  0  0  0
   -4.3598   -7.9527    4.2475 F   0  0  0  0  0  0  0  0  0  0  0  0
   -6.3505   -7.5965    3.6272 F   0  0  0  0  0  0  0  0  0  0  0  0
   -5.1198   -8.9062    2.5117 F   0  0  0  0  0  0  0  0  0  0  0  0
    1.4110   -7.2942    0.4624 C   0  0  0  0  0  0  0  0  0  0  0  0
    2.8720   -6.9816    0.4509 C   0  0  0  0  0  0  0  0  0  0  0  0
    3.4695   -6.3835   -0.6602 C   0  0  0  0  0  0  0  0  0  0  0  0
    4.8238   -6.0662   -0.6072 C   0  0  0  0  0  0  0  0  0  0  0  0
    5.5663   -6.3383    0.5359 C   0  0  0  0  0  0  0  0  0  0  0  0
    4.9701   -6.9361    1.6213 N   0  3  0  0  0  0  0  0  0  0  0  0
    3.6379   -7.2645    1.5821 C   0  0  0  0  0  0  0  0  0  0  0  0
    5.6362   -7.1678    2.6488 O   0  5  0  0  0  0  0  0  0  0  0  0
    1.8018    0.8503   -0.5798 H   0  0  0  0  0  0  0  0  0  0  0  0
    3.2042   -2.4569    3.5739 H   0  0  0  0  0  0  0  0  0  0  0  0
    5.0648   -3.8742    1.4418 H   0  0  0  0  0  0  0  0  0  0  0  0
    5.2131   -4.1630    3.1930 H   0  0  0  0  0  0  0  0  0  0  0  0
    5.7244   -1.6259    3.5412 H   0  0  0  0  0  0  0  0  0  0  0  0
    5.5696   -1.3700    1.7807 H   0  0  0  0  0  0  0  0  0  0  0  0
    2.4098   -4.5250    2.4044 H   0  0  0  0  0  0  0  0  0  0  0  0
   -0.5455   -5.0148   -0.6991 H   0  0  0  0  0  0  0  0  0  0  0  0
   -0.0757   -2.7121   -1.5245 H   0  0  0  0  0  0  0  0  0  0  0  0
   -3.2598   -8.5232    0.5777 H   0  0  0  0  0  0  0  0  0  0  0  0
   -5.5351   -5.1898    3.5054 H   0  0  0  0  0  0  0  0  0  0  0  0
    0.9715   -7.2503   -0.5578 H   0  0  0  0  0  0  0  0  0  0  0  0
    1.2243   -8.3396    0.7940 H   0  0  0  0  0  0  0  0  0  0  0  0
    2.8835   -6.1546   -1.5472 H   0  0  0  0  0  0  0  0  0  0  0  0
    5.3134   -5.5946   -1.4616 H   0  0  0  0  0  0  0  0  0  0  0  0
    6.6291   -6.1028    0.6210 H   0  0  0  0  0  0  0  0  0  0  0  0
    3.2224   -7.7514    2.4665 H   0  0  0  0  0  0  0  0  0  0  0  0
  2  1  1  0  0  0  0
  2  3  1  0  0  0  0
  4  5  1  0  0  0  0
  4  2  1  0  0  0  0
  5  6  2  0  0  0  0
  6 11  1  0  0  0  0
  6  7  1  0  0  0  0
  7  8  1  0  0  0  0
  8 41  1  0  0  0  0
  9 10  1  0  0  0  0
  9  8  1  0  0  0  0
  9 43  1  0  0  0  0
 10  8  1  0  0  0  0
 10 44  1  0  0  0  0
 11 46  1  0  0  0  0
 12 15  1  0  0  0  0
 12 11  2  0  0  0  0
 13 12  1  0  0  0  0
 14 13  2  0  0  0  0
 14  5  1  0  0  0  0
 15 17  1  0  0  0  0
 15 16  1  1  0  0  0
 17 21  1  0  0  0  0
 18 19  2  0  0  0  0
 18 17  2  0  0  0  0
 19 20  1  0  0  0  0
 20 22  1  6  0  0  0
 20 21  1  0  0  0  0
 22 23  1  0  0  0  0
 22 28  1  0  0  0  0
 23 50  1  0  0  0  0
 24 26  1  0  0  0  0
 24 22  1  0  0  0  0
 25 24  1  0  0  0  0
 27 24  1  0  0  0  0
 28 30  1  0  0  0  0
 28 29  1  0  0  0  0
 31 28  1  0  0  0  0
 32 52  1  0  0  0  0
 32 15  1  0  0  0  0
 33 32  1  0  0  0  0
 33 38  2  0  0  0  0
 34 35  2  0  0  0  0
 34 33  1  0  0  0  0
 35 36  1  0  0  0  0
 36 55  1  0  0  0  0
 36 37  2  0  0  0  0
 37 39  1  0  0  0  0
 38 37  1  0  0  0  0
 38 56  1  0  0  0  0
 40  2  1  0  0  0  0
 42  9  1  0  0  0  0
 45 10  1  0  0  0  0
 47 13  1  0  0  0  0
 48 14  1  0  0  0  0
 49 19  1  0  0  0  0
 51 32  1  0  0  0  0
 53 34  1  0  0  0  0
 54 35  1  0  0  0  0
M  RAD  1  20   2
M  CHG  2  37   1  39  -1
M  END
$$$$
