56
rmsd245.gzmat
F          0.00000        0.00000        0.00000
C          1.33730        0.00000        0.00000
F          1.62800        0.00000        1.30910
O          1.83110       -1.15400       -0.58520
C          1.36610       -2.35440       -0.09500
C          0.14180       -2.87830       -0.55480
O         -0.55680       -2.05370       -1.37330
C         -1.82330       -2.51770       -1.78190
C         -2.94060       -2.50910       -0.76590
C         -2.84190       -1.40420       -1.79180
C         -0.25000       -4.15250       -0.15360
C          0.56750       -4.88300        0.70900
C          1.77660       -4.35630        1.16310
C          2.18040       -3.08360        0.75940
C          0.15440       -6.26550        1.15210
H          0.89170       -6.64340        1.91570
C         -1.21780       -6.24590        1.73950
N         -2.33490       -6.12180        1.04330
C         -3.46360       -6.19520        1.83950
C         -3.22380       -6.38510        3.18330
S         -1.50600       -6.44930        3.46960
C         -4.20320       -6.54380        4.27100
O         -3.48960       -6.84400        5.42930
C         -5.00230       -5.21920        4.50690
F         -5.94020       -5.34670        5.44070
F         -4.21650       -4.23510        4.92180
F         -5.63130       -4.76570        3.43070
C         -5.17610       -7.73560        3.97780
F         -5.90720       -8.07210        5.03510
F         -6.04830       -7.48910        3.00730
F         -4.53380       -8.83890        3.61970
C          0.20180       -7.23590       -0.05530
C         -0.17780       -8.61250        0.38910
C         -1.46320       -9.10550        0.16260
C         -1.79490      -10.36960        0.64260
C         -0.85530      -11.12870        1.32880
N          0.41380      -10.63850        1.53600
C          0.75480       -9.39130        1.07320
O          1.25390      -11.32450        2.14840
H          1.80240        0.85120       -0.57500
H         -1.73280       -3.26190       -2.56810
H         -2.71290       -2.29170        0.27670
H         -3.73440       -3.24820       -0.82410
H         -3.56190       -1.33790       -2.60130
H         -2.54120       -0.40600       -1.47400
H         -1.19800       -4.57450       -0.49550
H          2.41230       -4.92740        1.83650
H          3.12210       -2.65780        1.10590
H         -4.42500       -6.10280        1.33890
H         -4.05000       -6.89990        6.24380
H          1.21600       -7.21950       -0.50620
H         -0.48010       -6.87070       -0.85560
H         -2.19980       -8.50150       -0.36550
H         -2.79760      -10.77310        0.48710
H         -1.07310      -12.12250        1.72610
H          1.77470       -9.05340        1.26510
