rmsd155.gzmat
 OpenBabel08211713363D

 56 59  0  0  1  0  0  0  0  0999 V2000
    0.0000    0.0000    0.0000 F   0  0  0  0  0  0  0  0  0  0  0  0
    1.3361    0.0000    0.0000 C   0  0  0  0  0  0  0  0  0  0  0  0
    1.6667    0.0000    1.2943 F   0  0  0  0  0  0  0  0  0  0  0  0
    1.8303   -1.1276   -0.6284 O   0  0  0  0  0  0  0  0  0  0  0  0
    1.4128   -2.3994   -0.3456 C   0  0  0  0  0  0  0  0  0  0  0  0
    0.6181   -2.8244    0.7355 C   0  0  0  0  0  0  0  0  0  0  0  0
    0.1880   -1.8415    1.5677 O   0  0  0  0  0  0  0  0  0  0  0  0
   -0.5487   -2.2498    2.6947 C   0  0  0  0  0  0  0  0  0  0  0  0
   -1.6115   -1.2377    3.0435 C   0  0  0  0  0  0  0  0  0  0  0  0
   -2.0074   -2.5880    2.4910 C   0  0  0  0  0  0  0  0  0  0  0  0
    0.3160   -4.1769    0.8774 C   0  0  0  0  0  0  0  0  0  0  0  0
    0.8009   -5.0967   -0.0531 C   0  0  0  0  0  0  0  0  0  0  0  0
    1.5918   -4.6746   -1.1195 C   0  0  0  0  0  0  0  0  0  0  0  0
    1.8970   -3.3247   -1.2707 C   0  0  0  0  0  0  0  0  0  0  0  0
    0.4633   -6.5563    0.1230 C   0  0  1  0  0  0  0  0  0  0  0  0
   -0.2942   -6.6747    0.9525 H   0  0  0  0  0  0  0  0  0  0  0  0
   -0.1255   -7.0850   -1.1407 C   0  0  0  0  0  0  0  0  0  0  0  0
    0.4415   -7.9525   -1.9534 N   0  0  0  0  0  0  0  0  0  0  0  0
   -0.3502   -8.2472   -3.0534 C   0  0  0  0  0  0  0  0  0  0  0  0
   -1.5595   -7.5894   -3.1038 C   0  0  2  0  0  0  0  0  0  0  0  0
   -1.7237   -6.5517   -1.7138 S   0  0  0  0  0  0  0  0  0  0  0  0
   -2.5443   -7.7628   -4.1864 C   0  0  0  0  0  0  0  0  0  0  0  0
   -2.1603   -8.9162   -4.8733 O   0  0  0  0  0  0  0  0  0  0  0  0
   -3.9996   -7.9813   -3.6564 C   0  0  0  0  0  0  0  0  0  0  0  0
   -4.5621   -6.8866   -3.1584 F   0  0  0  0  0  0  0  0  0  0  0  0
   -4.8257   -8.4009   -4.6097 F   0  0  0  0  0  0  0  0  0  0  0  0
   -4.0639   -8.8992   -2.7023 F   0  0  0  0  0  0  0  0  0  0  0  0
   -2.4965   -6.5554   -5.1824 C   0  0  0  0  0  0  0  0  0  0  0  0
   -3.4203   -6.6393   -6.1351 F   0  0  0  0  0  0  0  0  0  0  0  0
   -2.6744   -5.3712   -4.6142 F   0  0  0  0  0  0  0  0  0  0  0  0
   -1.3348   -6.4923   -5.8198 F   0  0  0  0  0  0  0  0  0  0  0  0
    1.7367   -7.3243    0.5498 C   0  0  0  0  0  0  0  0  0  0  0  0
    1.3581   -8.6103    1.2119 C   0  0  0  0  0  0  0  0  0  0  0  0
    1.3260   -9.8058    0.4947 C   0  0  0  0  0  0  0  0  0  0  0  0
    0.9422  -10.9734    1.1483 C   0  0  0  0  0  0  0  0  0  0  0  0
    0.5972  -10.9450    2.4941 C   0  0  0  0  0  0  0  0  0  0  0  0
    0.6328   -9.7602    3.1923 N   0  3  0  0  0  0  0  0  0  0  0  0
    1.0111   -8.6006    2.5627 C   0  0  0  0  0  0  0  0  0  0  0  0
    0.3175   -9.7378    4.3978 O   0  5  0  0  0  0  0  0  0  0  0  0
    1.7939    0.8559   -0.5828 H   0  0  0  0  0  0  0  0  0  0  0  0
    0.0863   -2.7355    3.4312 H   0  0  0  0  0  0  0  0  0  0  0  0
   -1.7266   -0.3506    2.4200 H   0  0  0  0  0  0  0  0  0  0  0  0
   -1.7994   -0.9895    4.0842 H   0  0  0  0  0  0  0  0  0  0  0  0
   -2.4923   -3.3199    3.1299 H   0  0  0  0  0  0  0  0  0  0  0  0
   -2.4043   -2.6493    1.4785 H   0  0  0  0  0  0  0  0  0  0  0  0
   -0.3010   -4.5121    1.7097 H   0  0  0  0  0  0  0  0  0  0  0  0
    1.9727   -5.3971   -1.8420 H   0  0  0  0  0  0  0  0  0  0  0  0
    2.5098   -2.9787   -2.1039 H   0  0  0  0  0  0  0  0  0  0  0  0
    0.0327   -8.9630   -3.7803 H   0  0  0  0  0  0  0  0  0  0  0  0
   -2.6927   -9.0902   -5.6895 H   0  0  0  0  0  0  0  0  0  0  0  0
    2.3442   -6.6884    1.2298 H   0  0  0  0  0  0  0  0  0  0  0  0
    2.3879   -7.5044   -0.3346 H   0  0  0  0  0  0  0  0  0  0  0  0
    1.5826   -9.8173   -0.5655 H   0  0  0  0  0  0  0  0  0  0  0  0
    0.9062  -11.9214    0.6080 H   0  0  0  0  0  0  0  0  0  0  0  0
    0.2897  -11.8356    3.0456 H   0  0  0  0  0  0  0  0  0  0  0  0
    1.0279   -7.6914    3.1668 H   0  0  0  0  0  0  0  0  0  0  0  0
  1  2  1  0  0  0  0
  2  3  1  0  0  0  0
  4  5  1  0  0  0  0
  4  2  1  0  0  0  0
  5  6  2  0  0  0  0
  6 11  1  0  0  0  0
  6  7  1  0  0  0  0
  7  8  1  0  0  0  0
  8  9  1  0  0  0  0
  8 41  1  0  0  0  0
  9 43  1  0  0  0  0
 10  8  1  0  0  0  0
 10  9  1  0  0  0  0
 10 44  1  0  0  0  0
 11 46  1  0  0  0  0
 12 15  1  0  0  0  0
 12 11  2  0  0  0  0
 13 12  1  0  0  0  0
 14 13  2  0  0  0  0
 14  5  1  0  0  0  0
 15 32  1  0  0  0  0
 15 16  1  1  0  0  0
 17 15  1  0  0  0  0
 18 17  2  0  0  0  0
 19 18  2  0  0  0  0
 20 22  1  1  0  0  0
 20 19  1  0  0  0  0
 20 21  1  0  0  0  0
 21 17  1  0  0  0  0
 22 24  1  0  0  0  0
 23 22  1  0  0  0  0
 24 25  1  0  0  0  0
 24 27  1  0  0  0  0
 26 24  1  0  0  0  0
 28 30  1  0  0  0  0
 28 22  1  0  0  0  0
 29 28  1  0  0  0  0
 31 28  1  0  0  0  0
 32 33  1  0  0  0  0
 32 51  1  0  0  0  0
 33 38  2  0  0  0  0
 34 35  2  0  0  0  0
 34 33  1  0  0  0  0
 35 36  1  0  0  0  0
 36 55  1  0  0  0  0
 36 37  2  0  0  0  0
 37 39  1  0  0  0  0
 38 56  1  0  0  0  0
 38 37  1  0  0  0  0
 40  2  1  0  0  0  0
 42  9  1  0  0  0  0
 45 10  1  0  0  0  0
 47 13  1  0  0  0  0
 48 14  1  0  0  0  0
 49 19  1  0  0  0  0
 50 23  1  0  0  0  0
 52 32  1  0  0  0  0
 53 34  1  0  0  0  0
 54 35  1  0  0  0  0
M  RAD  1  20   2
M  CHG  2  37   1  39  -1
M  END
$$$$
