56
rmsd69.gzmat
F          0.00000        0.00000        0.00000
C          1.33760        0.00000        0.00000
F          1.62160        0.00000        1.31110
O          1.83210       -1.15220       -0.58660
C          1.40350       -2.34970       -0.05530
C          0.16340       -2.89310       -0.44370
O         -0.55840       -2.10910       -1.28050
C         -1.87190       -2.54150       -1.55470
C         -2.91640       -2.28970       -0.49490
C         -2.81160       -1.36820       -1.68740
C         -0.21890       -4.14230        0.04120
C          0.63120       -4.82210        0.91550
C          1.86890       -4.28970        1.27370
C          2.26230       -3.04470        0.78450
C          0.15020       -6.11530        1.53270
H         -0.77360       -6.47620        0.99780
C          1.21740       -7.14800        1.42870
N          1.97980       -7.56180        2.41940
C          2.91510       -8.50190        2.01230
C          2.87730       -8.83050        0.67490
S          1.61800       -7.92520       -0.12030
C          3.78570       -9.80050        0.03680
O          4.72880      -10.13790        1.00890
C          3.02420      -11.10280       -0.38030
F          2.07320      -10.91230       -1.28520
F          3.83120      -12.02330       -0.89930
F          2.43940      -11.68720        0.65660
C          4.54670       -9.18450       -1.18380
F          5.50290       -9.98640       -1.64200
F          3.77420       -8.92210       -2.23030
F          5.15410       -8.04770       -0.87410
C         -0.24180       -5.85040        3.00900
C         -1.22650       -4.72600        3.06530
C         -0.81370       -3.43080        3.38410
C         -1.74700       -2.39860        3.35030
C         -3.07010       -2.65830        3.01250
N         -3.46850       -3.94030        2.71400
C         -2.56070       -4.96990        2.74300
O         -4.65350       -4.16720        2.40110
H          1.80220        0.85260       -0.57270
H         -1.88130       -3.39900       -2.22100
H         -2.60600       -1.92760        0.48430
H         -3.76660       -2.95980       -0.38890
H         -3.57920       -1.37560       -2.45610
H         -2.42490       -0.35870       -1.55150
H         -1.17990       -4.56820       -0.23770
H          2.52720       -4.83440        1.95070
H          3.22390       -2.61120        1.06010
H          3.59950       -8.89850        2.76240
H          5.38120      -10.82120        0.71400
H          0.67010       -5.62380        3.60610
H         -0.64780       -6.77690        3.46520
H          0.22590       -3.22710        3.63170
H         -1.44430       -1.37440        3.57990
H         -3.83440       -1.87930        2.97280
H         -2.93490       -5.96650        2.50340
