rmsd135.gzmat
 OpenBabel08211713363D

 56 59  0  0  1  0  0  0  0  0999 V2000
    0.0000    0.0000    0.0000 F   0  0  0  0  0  0  0  0  0  0  0  0
    1.3376    0.0000    0.0000 C   0  0  0  0  0  0  0  0  0  0  0  0
    1.6269    0.0000    1.3094 F   0  0  0  0  0  0  0  0  0  0  0  0
    1.8305   -1.1552   -0.5833 O   0  0  0  0  0  0  0  0  0  0  0  0
    1.3648   -2.3523   -0.0853 C   0  0  0  0  0  0  0  0  0  0  0  0
    0.1439   -2.8790   -0.5510 C   0  0  0  0  0  0  0  0  0  0  0  0
   -0.5387   -2.0581   -1.3883 O   0  0  0  0  0  0  0  0  0  0  0  0
   -1.8049   -2.5126   -1.8040 C   0  0  0  0  0  0  0  0  0  0  0  0
   -2.9375   -2.4507   -0.8061 C   0  0  0  0  0  0  0  0  0  0  0  0
   -2.8034   -1.3834   -1.8676 C   0  0  0  0  0  0  0  0  0  0  0  0
   -0.2598   -4.1453   -0.1356 C   0  0  0  0  0  0  0  0  0  0  0  0
    0.5481   -4.8630    0.7509 C   0  0  0  0  0  0  0  0  0  0  0  0
    1.7522   -4.3336    1.2090 C   0  0  0  0  0  0  0  0  0  0  0  0
    2.1699   -3.0718    0.7859 C   0  0  0  0  0  0  0  0  0  0  0  0
    0.0536   -6.2065    1.2322 C   0  0  1  0  0  0  0  0  0  0  0  0
   -0.8020   -6.5423    0.5788 H   0  0  0  0  0  0  0  0  0  0  0  0
    1.1452   -7.2213    1.1825 C   0  0  0  0  0  0  0  0  0  0  0  0
    2.0452   -7.4070    2.1324 N   0  0  0  0  0  0  0  0  0  0  0  0
    2.9408   -8.4148    1.8230 C   0  0  0  0  0  0  0  0  0  0  0  0
    2.7337   -9.0330    0.6090 C   0  0  2  0  0  0  0  0  0  0  0  0
    1.3603   -8.3137   -0.1889 S   0  0  0  0  0  0  0  0  0  0  0  0
    3.5011  -10.1352    0.0047 C   0  0  0  0  0  0  0  0  0  0  0  0
    2.8079  -10.5476   -1.1313 O   0  0  0  0  0  0  0  0  0  0  0  0
    4.9252   -9.6490   -0.4271 C   0  0  0  0  0  0  0  0  0  0  0  0
    5.6743  -10.6292   -0.9224 F   0  0  0  0  0  0  0  0  0  0  0  0
    4.8664   -8.7286   -1.3796 F   0  0  0  0  0  0  0  0  0  0  0  0
    5.6363   -9.1185    0.5590 F   0  0  0  0  0  0  0  0  0  0  0  0
    3.6045  -11.3578    0.9773 C   0  0  0  0  0  0  0  0  0  0  0  0
    4.0994  -12.4403    0.3864 F   0  0  0  0  0  0  0  0  0  0  0  0
    4.3821  -11.1443    2.0321 F   0  0  0  0  0  0  0  0  0  0  0  0
    2.4236  -11.7212    1.4578 F   0  0  0  0  0  0  0  0  0  0  0  0
   -0.4966   -6.0462    2.6713 C   0  0  0  0  0  0  0  0  0  0  0  0
   -1.3006   -7.2510    3.0392 C   0  0  0  0  0  0  0  0  0  0  0  0
   -0.7384   -8.2911    3.7790 C   0  0  0  0  0  0  0  0  0  0  0  0
   -1.5160   -9.4103    4.0648 C   0  0  0  0  0  0  0  0  0  0  0  0
   -2.8306   -9.4863    3.6205 C   0  0  0  0  0  0  0  0  0  0  0  0
   -3.3770   -8.4515    2.8967 N   0  3  0  0  0  0  0  0  0  0  0  0
   -2.6238   -7.3412    2.6062 C   0  0  0  0  0  0  0  0  0  0  0  0
   -4.5558   -8.5230    2.4995 O   0  5  0  0  0  0  0  0  0  0  0  0
    1.8014    0.8518   -0.5750 H   0  0  0  0  0  0  0  0  0  0  0  0
   -1.7172   -3.2808   -2.5672 H   0  0  0  0  0  0  0  0  0  0  0  0
   -2.7214   -2.1955    0.2306 H   0  0  0  0  0  0  0  0  0  0  0  0
   -3.7482   -3.1719   -0.8538 H   0  0  0  0  0  0  0  0  0  0  0  0
   -3.5098   -1.3327   -2.6907 H   0  0  0  0  0  0  0  0  0  0  0  0
   -2.4909   -0.3795   -1.5792 H   0  0  0  0  0  0  0  0  0  0  0  0
   -1.1982   -4.5649   -0.4901 H   0  0  0  0  0  0  0  0  0  0  0  0
    2.3728   -4.8989    1.9077 H   0  0  0  0  0  0  0  0  0  0  0  0
    3.1131   -2.6478    1.1323 H   0  0  0  0  0  0  0  0  0  0  0  0
    3.7189   -8.6212    2.5555 H   0  0  0  0  0  0  0  0  0  0  0  0
    3.2791  -11.2394   -1.6602 H   0  0  0  0  0  0  0  0  0  0  0  0
   -1.1057   -5.1194    2.7379 H   0  0  0  0  0  0  0  0  0  0  0  0
    0.3467   -5.8881    3.3813 H   0  0  0  0  0  0  0  0  0  0  0  0
    0.2953   -8.2297    4.1180 H   0  0  0  0  0  0  0  0  0  0  0  0
   -1.0974  -10.2396    4.6388 H   0  0  0  0  0  0  0  0  0  0  0  0
   -3.4748  -10.3454    3.8197 H   0  0  0  0  0  0  0  0  0  0  0  0
   -3.1100   -6.5484    2.0343 H   0  0  0  0  0  0  0  0  0  0  0  0
  1  2  1  0  0  0  0
  2  3  1  0  0  0  0
  4  5  1  0  0  0  0
  4  2  1  0  0  0  0
  5 14  2  0  0  0  0
  6 11  2  0  0  0  0
  6  5  1  0  0  0  0
  7  6  1  0  0  0  0
  8  7  1  0  0  0  0
  8  9  1  0  0  0  0
  9 42  1  0  0  0  0
 10  8  1  0  0  0  0
 10 45  1  0  0  0  0
 10  9  1  0  0  0  0
 11 12  1  0  0  0  0
 12 13  2  0  0  0  0
 12 15  1  0  0  0  0
 13 47  1  0  0  0  0
 14 48  1  0  0  0  0
 14 13  1  0  0  0  0
 15 16  1  6  0  0  0
 15 32  1  0  0  0  0
 17 15  1  0  0  0  0
 17 18  2  0  0  0  0
 19 18  2  0  0  0  0
 19 49  1  0  0  0  0
 20 22  1  1  0  0  0
 20 19  1  0  0  0  0
 21 20  1  0  0  0  0
 21 17  1  0  0  0  0
 22 28  1  0  0  0  0
 23 22  1  0  0  0  0
 24 22  1  0  0  0  0
 24 27  1  0  0  0  0
 25 24  1  0  0  0  0
 26 24  1  0  0  0  0
 28 31  1  0  0  0  0
 28 30  1  0  0  0  0
 29 28  1  0  0  0  0
 32 51  1  0  0  0  0
 32 33  1  0  0  0  0
 32 52  1  0  0  0  0
 33 34  2  0  0  0  0
 34 35  1  0  0  0  0
 34 53  1  0  0  0  0
 35 54  1  0  0  0  0
 36 55  1  0  0  0  0
 36 35  2  0  0  0  0
 37 36  1  0  0  0  0
 38 37  2  0  0  0  0
 38 33  1  0  0  0  0
 39 37  1  0  0  0  0
 40  2  1  0  0  0  0
 41  8  1  0  0  0  0
 43  9  1  0  0  0  0
 44 10  1  0  0  0  0
 46 11  1  0  0  0  0
 50 23  1  0  0  0  0
 56 38  1  0  0  0  0
M  RAD  1  20   2
M  CHG  2  37   1  39  -1
M  END
$$$$
