56
rmsd133.gzmat
F          0.00000        0.00000        0.00000
C          1.33540        0.00000        0.00000
F          1.66640        0.00000        1.29480
O          1.83330       -1.12520       -0.62860
C          1.47480       -2.40360       -0.29940
C          0.64180       -2.82260        0.75300
O          0.14870       -1.83280        1.54420
C         -0.89670       -2.19580        2.41250
C         -0.50030       -2.71080        3.77740
C         -0.94320       -1.27490        3.60540
C          0.39690       -4.18100        0.94070
C          0.97620       -5.11540        0.08120
C          1.80130       -4.69690       -0.96090
C          2.05480       -3.34250       -1.15390
C          0.69360       -6.58090        0.30300
H         -0.01560       -6.69630        1.17120
C          0.08600       -7.15960       -0.93160
N          0.76590       -7.51910       -2.00670
C         -0.05050       -8.01940       -3.00510
C         -1.39480       -8.05770       -2.70200
S         -1.65240       -7.42630       -1.09770
C         -2.50210       -8.54550       -3.54050
O         -3.63760       -8.60580       -2.73530
C         -2.77920       -7.56000       -4.72500
F         -1.70680       -7.27000       -5.44900
F         -3.67710       -8.03070       -5.58530
F         -3.26660       -6.40220       -4.30030
C         -2.21330       -9.98770       -4.07860
F         -1.76840      -10.80380       -3.13350
F         -3.29650      -10.57360       -4.57710
F         -1.31100      -10.02660       -5.05220
C          1.99830       -7.32540        0.67660
C          1.67240       -8.71750        1.11470
C          1.75830       -9.78760        0.22360
C          1.40020      -11.05960        0.66210
C          0.97010      -11.25800        1.96840
N          0.89650      -10.19710        2.84160
C          1.24300       -8.93580        2.42360
O          0.50880      -10.37890        4.01140
H          1.79120        0.85660       -0.58320
H         -1.77980       -2.53000        1.87470
H          0.54840       -2.91730        3.98450
H         -1.13430       -3.41960        4.30060
H         -1.90170       -0.94240        3.99260
H         -0.20680       -0.47510        3.68800
H         -0.23820       -4.50770        1.76210
H          2.24280       -5.43080       -1.63960
H          2.69680       -3.00370       -1.96740
H          0.43560       -8.33130       -3.92750
H         -4.46720       -8.82840       -3.22820
H          2.53230       -6.76360        1.47230
H          2.69340       -7.32920       -0.19260
H          2.08910       -9.62600       -0.80170
H          1.45100      -11.91200       -0.01850
H          0.67840      -12.23740        2.35330
H          1.16900       -8.13210        3.15890
