45

C          0.20150       -0.42580        0.10530
N          1.51880       -0.26390        0.25020
C          1.94110        0.20130        1.43360
N          1.17000        0.53550        2.47740
C         -0.15320        0.37890        2.32650
C         -0.72150       -0.11130        1.14350
C         -2.18150       -0.31370        0.94510
C         -3.06090        0.76450        0.76170
C         -4.43080        0.57810        0.57160
C         -4.97550       -0.72070        0.54740
C         -4.09770       -1.81140        0.71630
C         -2.73590       -1.60750        0.91250
N         -6.32830       -0.94970        0.34150
C         -7.31640        0.09620        0.41230
C         -7.37430        0.99270       -0.81590
C         -6.91290        0.53250       -2.05300
C         -7.00950        1.36610       -3.16360
C         -7.55190        2.64670       -3.09200
C         -8.00150        3.07740       -1.84600
C         -7.91930        2.27870       -0.70870
F         -8.52310        4.30610       -1.74100
F         -6.56320        0.92550       -4.34680
C         -0.99230        0.68220        3.54490
C         -1.15510       -0.56280        4.42690
N          3.28900        0.33470        1.59650
N         -0.23050       -0.92580       -1.08700
H         -2.65900        1.78080        0.76700
H         -5.07070        1.44750        0.42240
H         -4.49880       -2.82910        0.69970
H         -2.07780       -2.46920        1.04870
H         -6.64830       -1.88620        0.54610
H         -7.17300        0.73290        1.30740
H         -8.30120       -0.38440        0.53390
H         -6.46970       -0.45870       -2.14630
H         -7.61540        3.28760       -3.97110
H         -8.27590        2.67160        0.24550
H         -1.98250        1.05740        3.24970
H         -0.47970        1.47380        4.11160
H         -1.69260       -1.35860        3.88730
H         -1.72100       -0.32950        5.34280
H         -0.16940       -0.95570        4.72020
H          3.61620        0.83930        2.40830
H          3.87830        0.25970        0.77960
H         -1.21360       -0.88400       -1.31730
H          0.44890       -0.98920       -1.83360
