
     RDKit          3D

 45 47  0  0  0  0  0  0  0  0999 V2000
   -0.5928   -0.4077   -0.0842 C   0  0  0  0  0  0  0  0  0  0  0  0
    0.7225   -0.3845   -0.3178 N   0  0  0  0  0  0  0  0  0  0  0  0
    1.5185   -0.1325    0.7297 C   0  0  0  0  0  0  0  0  0  0  0  0
    1.1270    0.0808    1.9940 N   0  0  0  0  0  0  0  0  0  0  0  0
   -0.1923    0.0505    2.2298 C   0  0  0  0  0  0  0  0  0  0  0  0
   -1.1305   -0.1862    1.2179 C   0  0  0  0  0  0  0  0  0  0  0  0
   -2.6008   -0.2174    1.4327 C   0  0  0  0  0  0  0  0  0  0  0  0
   -3.2347   -1.3174    2.0390 C   0  0  0  0  0  0  0  0  0  0  0  0
   -4.6209   -1.3804    2.1607 C   0  0  0  0  0  0  0  0  0  0  0  0
   -5.4315   -0.3552    1.6432 C   0  0  0  0  0  0  0  0  0  0  0  0
   -4.8058    0.7647    1.0754 C   0  0  0  0  0  0  0  0  0  0  0  0
   -3.4159    0.8334    0.9806 C   0  0  0  0  0  0  0  0  0  0  0  0
   -6.8351   -0.4950    1.6373 N   0  0  0  0  0  0  0  0  0  0  0  0
   -7.3614   -1.6096    0.8313 C   0  0  0  0  0  0  0  0  0  0  0  0
   -6.9858   -1.4791   -0.6331 C   0  0  0  0  0  0  0  0  0  0  0  0
   -7.8754   -0.8985   -1.5470 C   0  0  0  0  0  0  0  0  0  0  0  0
   -7.4521   -0.6483   -2.8510 C   0  0  0  0  0  0  0  0  0  0  0  0
   -6.1591   -0.9356   -3.2823 C   0  0  0  0  0  0  0  0  0  0  0  0
   -5.2975   -1.5103   -2.3521 C   0  0  0  0  0  0  0  0  0  0  0  0
   -5.6855   -1.8037   -1.0513 C   0  0  0  0  0  0  0  0  0  0  0  0
   -4.0306   -1.7755   -2.7215 F   0  0  0  0  0  0  0  0  0  0  0  0
   -8.3116   -0.1020   -3.7199 F   0  0  0  0  0  0  0  0  0  0  0  0
   -0.6149    0.3737    3.6428 C   0  0  0  0  0  0  0  0  0  0  0  0
   -0.7830    1.8865    3.8367 C   0  0  0  0  0  0  0  0  0  0  0  0
    2.8585   -0.0745    0.4835 N   0  0  0  0  0  0  0  0  0  0  0  0
   -1.4004   -0.6429   -1.1535 N   0  0  0  0  0  0  0  0  0  0  0  0
   -2.6207   -2.1402    2.4132 H   0  0  0  0  0  0  0  0  0  0  0  0
   -5.0896   -2.2459    2.6341 H   0  0  0  0  0  0  0  0  0  0  0  0
   -5.4202    1.5703    0.6637 H   0  0  0  0  0  0  0  0  0  0  0  0
   -2.9481    1.7024    0.5121 H   0  0  0  0  0  0  0  0  0  0  0  0
   -7.2759    0.3744    1.3455 H   0  0  0  0  0  0  0  0  0  0  0  0
   -8.4551   -1.6281    0.9473 H   0  0  0  0  0  0  0  0  0  0  0  0
   -6.9786   -2.5546    1.2425 H   0  0  0  0  0  0  0  0  0  0  0  0
   -8.8950   -0.6334   -1.2603 H   0  0  0  0  0  0  0  0  0  0  0  0
   -5.8383   -0.7179   -4.3007 H   0  0  0  0  0  0  0  0  0  0  0  0
   -4.9637   -2.2533   -0.3707 H   0  0  0  0  0  0  0  0  0  0  0  0
    0.1691   -0.0010    4.3180 H   0  0  0  0  0  0  0  0  0  0  0  0
   -1.5554   -0.1381    3.8923 H   0  0  0  0  0  0  0  0  0  0  0  0
    0.1498    2.4106    3.5776 H   0  0  0  0  0  0  0  0  0  0  0  0
   -1.0375    2.1274    4.8809 H   0  0  0  0  0  0  0  0  0  0  0  0
   -1.5849    2.2787    3.1913 H   0  0  0  0  0  0  0  0  0  0  0  0
    3.4828   -0.0497    1.2773 H   0  0  0  0  0  0  0  0  0  0  0  0
    3.1949   -0.3944   -0.4136 H   0  0  0  0  0  0  0  0  0  0  0  0
   -2.3872   -0.8237   -1.0378 H   0  0  0  0  0  0  0  0  0  0  0  0
   -0.9573   -0.9012   -2.0248 H   0  0  0  0  0  0  0  0  0  0  0  0
  1  2  2  0
  1  6  1  0
  1 26  1  0
  2  3  1  0
  3  4  2  0
  3 25  1  0
  4  5  1  0
  5  6  2  0
  5 23  1  0
  6  7  1  0
  7  8  2  0
  7 12  1  0
  8  9  1  0
  8 27  1  0
  9 10  2  0
  9 28  1  0
 10 11  1  0
 10 13  1  0
 11 12  2  0
 11 29  1  0
 12 30  1  0
 13 14  1  0
 13 31  1  0
 14 15  1  0
 14 32  1  0
 14 33  1  0
 15 16  2  0
 15 20  1  0
 16 17  1  0
 16 34  1  0
 17 18  2  0
 17 22  1  0
 18 19  1  0
 18 35  1  0
 19 20  2  0
 19 21  1  0
 20 36  1  0
 23 24  1  0
 23 37  1  0
 23 38  1  0
 24 39  1  0
 24 40  1  0
 24 41  1  0
 25 42  1  0
 25 43  1  0
 26 44  1  0
 26 45  1  0
M  END

