45

C         -0.59280       -0.40770       -0.08420
N          0.72250       -0.38450       -0.31780
C          1.51850       -0.13250        0.72970
N          1.12700        0.08080        1.99400
C         -0.19230        0.05050        2.22980
C         -1.13050       -0.18620        1.21790
C         -2.60080       -0.21740        1.43270
C         -3.23470       -1.31740        2.03900
C         -4.62090       -1.38040        2.16070
C         -5.43150       -0.35520        1.64320
C         -4.80580        0.76470        1.07540
C         -3.41590        0.83340        0.98060
N         -6.83510       -0.49500        1.63730
C         -7.36140       -1.60960        0.83130
C         -6.98580       -1.47910       -0.63310
C         -7.87540       -0.89850       -1.54700
C         -7.45210       -0.64830       -2.85100
C         -6.15910       -0.93560       -3.28230
C         -5.29750       -1.51030       -2.35210
C         -5.68550       -1.80370       -1.05130
F         -4.03060       -1.77550       -2.72150
F         -8.31160       -0.10200       -3.71990
C         -0.61490        0.37370        3.64280
C         -0.78300        1.88650        3.83670
N          2.85850       -0.07450        0.48350
N         -1.40040       -0.64290       -1.15350
H         -2.62070       -2.14020        2.41320
H         -5.08960       -2.24590        2.63410
H         -5.42020        1.57030        0.66370
H         -2.94810        1.70240        0.51210
H         -7.27590        0.37440        1.34550
H         -8.45510       -1.62810        0.94730
H         -6.97860       -2.55460        1.24250
H         -8.89500       -0.63340       -1.26030
H         -5.83830       -0.71790       -4.30070
H         -4.96370       -2.25330       -0.37070
H          0.16910       -0.00100        4.31800
H         -1.55540       -0.13810        3.89230
H          0.14980        2.41060        3.57760
H         -1.03750        2.12740        4.88090
H         -1.58490        2.27870        3.19130
H          3.48280       -0.04970        1.27730
H          3.19490       -0.39440       -0.41360
H         -2.38720       -0.82370       -1.03780
H         -0.95730       -0.90120       -2.02480
