
     RDKit          3D

 45 47  0  0  0  0  0  0  0  0999 V2000
   -0.0607   -0.4648    0.1543 C   0  0  0  0  0  0  0  0  0  0  0  0
    1.2645   -0.6268    0.1602 N   0  0  0  0  0  0  0  0  0  0  0  0
    1.8919   -0.4060    1.3233 C   0  0  0  0  0  0  0  0  0  0  0  0
    1.3175   -0.0555    2.4822 N   0  0  0  0  0  0  0  0  0  0  0  0
   -0.0145    0.0988    2.4755 C   0  0  0  0  0  0  0  0  0  0  0  0
   -0.7862   -0.0908    1.3211 C   0  0  0  0  0  0  0  0  0  0  0  0
   -2.2620    0.0869    1.2727 C   0  0  0  0  0  0  0  0  0  0  0  0
   -3.1390   -0.8336    1.8672 C   0  0  0  0  0  0  0  0  0  0  0  0
   -4.5238   -0.6657    1.8318 C   0  0  0  0  0  0  0  0  0  0  0  0
   -5.0893    0.4461    1.1768 C   0  0  0  0  0  0  0  0  0  0  0  0
   -4.2169    1.3674    0.5610 C   0  0  0  0  0  0  0  0  0  0  0  0
   -2.8385    1.1888    0.6125 C   0  0  0  0  0  0  0  0  0  0  0  0
   -6.4583    0.6614    1.1396 N   0  0  0  0  0  0  0  0  0  0  0  0
   -7.4215   -0.3335    1.5336 C   0  0  0  0  0  0  0  0  0  0  0  0
   -7.5670   -0.5126    3.0379 C   0  0  0  0  0  0  0  0  0  0  0  0
   -7.2054    0.5150    3.9142 C   0  0  0  0  0  0  0  0  0  0  0  0
   -7.3810    0.3297    5.2828 C   0  0  0  0  0  0  0  0  0  0  0  0
   -7.9064   -0.8444    5.8166 C   0  0  0  0  0  0  0  0  0  0  0  0
   -8.2555   -1.8502    4.9187 C   0  0  0  0  0  0  0  0  0  0  0  0
   -8.0924   -1.7089    3.5434 C   0  0  0  0  0  0  0  0  0  0  0  0
   -8.7583   -2.9945    5.3993 F   0  0  0  0  0  0  0  0  0  0  0  0
   -7.0313    1.3129    6.1212 F   0  0  0  0  0  0  0  0  0  0  0  0
   -0.6263    0.5763    3.7709 C   0  0  0  0  0  0  0  0  0  0  0  0
   -0.6831    2.1089    3.8237 C   0  0  0  0  0  0  0  0  0  0  0  0
    3.2497   -0.5373    1.3247 N   0  0  0  0  0  0  0  0  0  0  0  0
   -0.6994   -0.6594   -1.0348 N   0  0  0  0  0  0  0  0  0  0  0  0
   -2.7229   -1.7057    2.3777 H   0  0  0  0  0  0  0  0  0  0  0  0
   -5.1616   -1.3968    2.3279 H   0  0  0  0  0  0  0  0  0  0  0  0
   -4.6340    2.2385    0.0472 H   0  0  0  0  0  0  0  0  0  0  0  0
   -2.1840    1.9209    0.1333 H   0  0  0  0  0  0  0  0  0  0  0  0
   -6.7757    1.3730    0.4964 H   0  0  0  0  0  0  0  0  0  0  0  0
   -7.1959   -1.3198    1.0820 H   0  0  0  0  0  0  0  0  0  0  0  0
   -8.3998   -0.0287    1.1267 H   0  0  0  0  0  0  0  0  0  0  0  0
   -6.7769    1.4431    3.5366 H   0  0  0  0  0  0  0  0  0  0  0  0
   -8.0323   -0.9739    6.8913 H   0  0  0  0  0  0  0  0  0  0  0  0
   -8.3719   -2.5344    2.8859 H   0  0  0  0  0  0  0  0  0  0  0  0
    0.0014    0.1994    4.5920 H   0  0  0  0  0  0  0  0  0  0  0  0
   -1.6384    0.1663    3.8965 H   0  0  0  0  0  0  0  0  0  0  0  0
    0.3232    2.5348    3.6893 H   0  0  0  0  0  0  0  0  0  0  0  0
   -1.0802    2.4579    4.7901 H   0  0  0  0  0  0  0  0  0  0  0  0
   -1.3309    2.5055    3.0260 H   0  0  0  0  0  0  0  0  0  0  0  0
    3.7206   -0.5413    2.2184 H   0  0  0  0  0  0  0  0  0  0  0  0
    3.6895   -0.9642    0.5218 H   0  0  0  0  0  0  0  0  0  0  0  0
   -1.7063   -0.7442   -1.0493 H   0  0  0  0  0  0  0  0  0  0  0  0
   -0.1591   -1.0688   -1.7855 H   0  0  0  0  0  0  0  0  0  0  0  0
  1  2  2  0
  1  6  1  0
  1 26  1  0
  2  3  1  0
  3  4  2  0
  3 25  1  0
  4  5  1  0
  5  6  2  0
  5 23  1  0
  6  7  1  0
  7  8  2  0
  7 12  1  0
  8  9  1  0
  8 27  1  0
  9 10  2  0
  9 28  1  0
 10 11  1  0
 10 13  1  0
 11 12  2  0
 11 29  1  0
 12 30  1  0
 13 14  1  0
 13 31  1  0
 14 15  1  0
 14 32  1  0
 14 33  1  0
 15 16  2  0
 15 20  1  0
 16 17  1  0
 16 34  1  0
 17 18  2  0
 17 22  1  0
 18 19  1  0
 18 35  1  0
 19 20  2  0
 19 21  1  0
 20 36  1  0
 23 24  1  0
 23 37  1  0
 23 38  1  0
 24 39  1  0
 24 40  1  0
 24 41  1  0
 25 42  1  0
 25 43  1  0
 26 44  1  0
 26 45  1  0
M  END

