rmsd116.gzmat
 OpenBabel08211713433D

 45 47  0  0  1  0  0  0  0  0999 V2000
    0.0000    0.0000    0.0000 C   0  0  0  0  0  0  0  0  0  0  0  0
    1.3652    0.0000    0.0000 N   0  0  0  0  0  0  0  0  0  0  0  0
    1.9651    0.0000    1.2283 C   0  0  0  0  0  0  0  0  0  0  0  0
    1.3120    0.0072    2.4377 N   0  0  0  0  0  0  0  0  0  0  0  0
   -0.0357    0.0034    2.4098 C   0  0  0  0  0  0  0  0  0  0  0  0
   -0.7562    0.0040    1.2056 C   0  0  1  0  0  0  0  0  0  0  0  0
   -2.2117    0.0118    1.1708 C   0  0  0  0  0  0  0  0  0  0  0  0
   -2.9118    1.2055    1.3645 C   0  0  0  0  0  0  0  0  0  0  0  0
   -4.3001    1.2250    1.3265 C   0  0  0  0  0  0  0  0  0  0  0  0
   -5.0091    0.0351    1.0931 C   0  0  0  0  0  0  0  0  0  0  0  0
   -4.3046   -1.1692    0.9004 C   0  0  0  0  0  0  0  0  0  0  0  0
   -2.9177   -1.1740    0.9452 C   0  0  0  0  0  0  0  0  0  0  0  0
   -6.4162   -0.0152    1.1399 N   0  0  0  0  0  0  0  0  0  0  0  0
   -7.1867    1.1517    0.6916 C   0  0  0  0  0  0  0  0  0  0  0  0
   -7.3080    1.2505   -0.8109 C   0  0  0  0  0  0  0  0  0  0  0  0
   -6.1621    1.2857   -1.6067 C   0  0  0  0  0  0  0  0  0  0  0  0
   -6.3118    1.3706   -2.9896 C   0  0  0  0  0  0  0  0  0  0  0  0
   -7.5539    1.4382   -3.6195 C   0  0  0  0  0  0  0  0  0  0  0  0
   -8.6665    1.4090   -2.7809 C   0  0  0  0  0  0  0  0  0  0  0  0
   -8.5751    1.3132   -1.3923 C   0  0  0  0  0  0  0  0  0  0  0  0
   -9.8685    1.4726   -3.3296 F   0  0  0  0  0  0  0  0  0  0  0  0
   -5.2235    1.3909   -3.7412 F   0  0  0  0  0  0  0  0  0  0  0  0
   -0.7131    0.0026    3.7516 C   0  0  0  0  0  0  0  0  0  0  0  0
   -1.2071   -1.4069    4.0808 C   0  0  0  0  0  0  0  0  0  0  0  0
    3.3326   -0.0068    1.2579 N   0  0  0  0  0  0  0  0  0  0  0  0
   -0.5890   -0.0065   -1.2349 N   0  0  0  0  0  0  0  0  0  0  0  0
   -2.3588    2.1275    1.5461 H   0  0  0  0  0  0  0  0  0  0  0  0
   -4.8271    2.1597    1.4938 H   0  0  0  0  0  0  0  0  0  0  0  0
   -4.8427   -2.0953    0.7228 H   0  0  0  0  0  0  0  0  0  0  0  0
   -2.3693   -2.1059    0.8014 H   0  0  0  0  0  0  0  0  0  0  0  0
   -6.8223   -0.8918    0.8199 H   0  0  0  0  0  0  0  0  0  0  0  0
   -6.7401    2.0921    1.0964 H   0  0  0  0  0  0  0  0  0  0  0  0
   -8.1937    1.0777    1.1731 H   0  0  0  0  0  0  0  0  0  0  0  0
   -5.1691    1.2473   -1.1542 H   0  0  0  0  0  0  0  0  0  0  0  0
   -7.6494    1.5108   -4.7017 H   0  0  0  0  0  0  0  0  0  0  0  0
   -9.4740    1.2870   -0.7789 H   0  0  0  0  0  0  0  0  0  0  0  0
   -1.5609    0.7188    3.7496 H   0  0  0  0  0  0  0  0  0  0  0  0
   -0.0093    0.3521    4.5388 H   0  0  0  0  0  0  0  0  0  0  0  0
   -1.9460   -1.7536    3.3465 H   0  0  0  0  0  0  0  0  0  0  0  0
   -1.6815   -1.4370    5.0676 H   0  0  0  0  0  0  0  0  0  0  0  0
   -0.3784   -2.1262    4.0854 H   0  0  0  0  0  0  0  0  0  0  0  0
    3.8129    0.0053    2.1339 H   0  0  0  0  0  0  0  0  0  0  0  0
    3.8537    0.0008    0.4066 H   0  0  0  0  0  0  0  0  0  0  0  0
   -1.5829    0.0284   -1.3219 H   0  0  0  0  0  0  0  0  0  0  0  0
   -0.0277    0.0144   -2.0622 H   0  0  0  0  0  0  0  0  0  0  0  0
  1  2  2  0  0  0  0
  1  6  1  0  0  0  0
  2  3  2  0  0  0  0
  3 25  1  0  0  0  0
  3  4  2  0  0  0  0
  5  4  2  0  0  0  0
  5 23  1  0  0  0  0
  6  7  1  6  0  0  0
  6  5  1  0  0  0  0
  7  8  2  0  0  0  0
  8 27  1  0  0  0  0
  9  8  1  0  0  0  0
  9 28  1  0  0  0  0
 10 13  1  0  0  0  0
 10  9  2  0  0  0  0
 11 12  2  0  0  0  0
 11 10  1  0  0  0  0
 12  7  1  0  0  0  0
 14 32  1  0  0  0  0
 14 13  1  0  0  0  0
 14 33  1  0  0  0  0
 15 14  1  0  0  0  0
 16 34  1  0  0  0  0
 16 15  2  0  0  0  0
 17 16  1  0  0  0  0
 18 17  2  0  0  0  0
 18 19  1  0  0  0  0
 19 20  2  0  0  0  0
 20 15  1  0  0  0  0
 20 36  1  0  0  0  0
 21 19  1  0  0  0  0
 22 17  1  0  0  0  0
 23 24  1  0  0  0  0
 23 38  1  0  0  0  0
 24 41  1  0  0  0  0
 24 40  1  0  0  0  0
 25 42  1  0  0  0  0
 26  1  1  0  0  0  0
 29 11  1  0  0  0  0
 30 12  1  0  0  0  0
 31 13  1  0  0  0  0
 35 18  1  0  0  0  0
 37 23  1  0  0  0  0
 39 24  1  0  0  0  0
 43 25  1  0  0  0  0
 44 26  1  0  0  0  0
 45 26  1  0  0  0  0
M  RAD  1   6   2
M  END
$$$$
