rmsd190.gzmat
 OpenBabel08211713433D

 45 47  0  0  1  0  0  0  0  0999 V2000
    0.0000    0.0000    0.0000 C   0  0  0  0  0  0  0  0  0  0  0  0
    1.3651    0.0000    0.0000 N   0  0  0  0  0  0  0  0  0  0  0  0
    1.9648    0.0000    1.2285 C   0  0  0  0  0  0  0  0  0  0  0  0
    1.3114    0.0037    2.4375 N   0  0  0  0  0  0  0  0  0  0  0  0
   -0.0364   -0.0024    2.4096 C   0  0  0  0  0  0  0  0  0  0  0  0
   -0.7571    0.0018    1.2055 C   0  0  2  0  0  0  0  0  0  0  0  0
   -2.2128    0.0005    1.1651 C   0  0  0  0  0  0  0  0  0  0  0  0
   -2.9061   -1.1903    0.9223 C   0  0  0  0  0  0  0  0  0  0  0  0
   -4.2921   -1.1989    0.8651 C   0  0  0  0  0  0  0  0  0  0  0  0
   -5.0102   -0.0027    1.0609 C   0  0  0  0  0  0  0  0  0  0  0  0
   -4.3148    1.1917    1.3122 C   0  0  0  0  0  0  0  0  0  0  0  0
   -2.9265    1.1855    1.3622 C   0  0  0  0  0  0  0  0  0  0  0  0
   -6.4164   -0.0681    1.0883 N   0  0  0  0  0  0  0  0  0  0  0  0
   -7.1979    1.1021    0.6713 C   0  0  0  0  0  0  0  0  0  0  0  0
   -7.3084    1.2552   -0.8281 C   0  0  0  0  0  0  0  0  0  0  0  0
   -6.1580    1.3062   -1.6165 C   0  0  0  0  0  0  0  0  0  0  0  0
   -6.2989    1.4480   -2.9957 C   0  0  0  0  0  0  0  0  0  0  0  0
   -7.5363    1.5536   -3.6294 C   0  0  0  0  0  0  0  0  0  0  0  0
   -8.6540    1.5079   -2.7983 C   0  0  0  0  0  0  0  0  0  0  0  0
   -8.5715    1.3577   -1.4137 C   0  0  0  0  0  0  0  0  0  0  0  0
   -9.8515    1.6094   -3.3514 F   0  0  0  0  0  0  0  0  0  0  0  0
   -5.2063    1.4865   -3.7405 F   0  0  0  0  0  0  0  0  0  0  0  0
   -0.7118   -0.0094    3.7525 C   0  0  0  0  0  0  0  0  0  0  0  0
   -1.2277   -1.4140    4.0681 C   0  0  0  0  0  0  0  0  0  0  0  0
    3.3322   -0.0011    1.2586 N   0  0  0  0  0  0  0  0  0  0  0  0
   -0.5887   -0.0082   -1.2348 N   0  0  0  0  0  0  0  0  0  0  0  0
   -2.3469   -2.1150    0.7741 H   0  0  0  0  0  0  0  0  0  0  0  0
   -4.8204   -2.1289    0.6760 H   0  0  0  0  0  0  0  0  0  0  0  0
   -4.8525    2.1199    1.4827 H   0  0  0  0  0  0  0  0  0  0  0  0
   -2.3857    2.1127    1.5535 H   0  0  0  0  0  0  0  0  0  0  0  0
   -6.8108   -0.9409    0.7453 H   0  0  0  0  0  0  0  0  0  0  0  0
   -6.7672    2.0340    1.1131 H   0  0  0  0  0  0  0  0  0  0  0  0
   -8.2088    0.9978    1.1404 H   0  0  0  0  0  0  0  0  0  0  0  0
   -5.1675    1.2367   -1.1615 H   0  0  0  0  0  0  0  0  0  0  0  0
   -7.6244    1.6658   -4.7092 H   0  0  0  0  0  0  0  0  0  0  0  0
   -9.4745    1.3223   -0.8060 H   0  0  0  0  0  0  0  0  0  0  0  0
   -1.5473    0.7209    3.7594 H   0  0  0  0  0  0  0  0  0  0  0  0
   -0.0016    0.3203    4.5434 H   0  0  0  0  0  0  0  0  0  0  0  0
   -1.9526   -1.7529    3.3165 H   0  0  0  0  0  0  0  0  0  0  0  0
   -1.7272   -1.4394    5.0425 H   0  0  0  0  0  0  0  0  0  0  0  0
   -0.4066   -2.1414    4.0919 H   0  0  0  0  0  0  0  0  0  0  0  0
    3.8119    0.0027    2.1348 H   0  0  0  0  0  0  0  0  0  0  0  0
    3.8541   -0.0019    0.4076 H   0  0  0  0  0  0  0  0  0  0  0  0
   -1.5824    0.0287   -1.3229 H   0  0  0  0  0  0  0  0  0  0  0  0
   -0.0270    0.0148   -2.0622 H   0  0  0  0  0  0  0  0  0  0  0  0
  1  2  2  0  0  0  0
  1  6  1  0  0  0  0
  2  3  2  0  0  0  0
  3 25  1  0  0  0  0
  3  4  2  0  0  0  0
  5  4  2  0  0  0  0
  5 23  1  0  0  0  0
  6  7  1  6  0  0  0
  6  5  1  0  0  0  0
  7 12  2  0  0  0  0
  8  7  1  0  0  0  0
  9  8  2  0  0  0  0
  9 10  1  0  0  0  0
 10 13  1  0  0  0  0
 10 11  2  0  0  0  0
 11 12  1  0  0  0  0
 11 29  1  0  0  0  0
 12 30  1  0  0  0  0
 14 13  1  0  0  0  0
 14 32  1  0  0  0  0
 14 33  1  0  0  0  0
 15 14  1  0  0  0  0
 16 34  1  0  0  0  0
 16 15  2  0  0  0  0
 17 16  1  0  0  0  0
 18 17  2  0  0  0  0
 18 19  1  0  0  0  0
 19 20  2  0  0  0  0
 20 15  1  0  0  0  0
 20 36  1  0  0  0  0
 21 19  1  0  0  0  0
 22 17  1  0  0  0  0
 23 37  1  0  0  0  0
 23 24  1  0  0  0  0
 23 38  1  0  0  0  0
 24 41  1  0  0  0  0
 24 40  1  0  0  0  0
 25 42  1  0  0  0  0
 26  1  1  0  0  0  0
 27  8  1  0  0  0  0
 28  9  1  0  0  0  0
 31 13  1  0  0  0  0
 35 18  1  0  0  0  0
 39 24  1  0  0  0  0
 43 25  1  0  0  0  0
 44 26  1  0  0  0  0
 45 26  1  0  0  0  0
M  RAD  1   6   2
M  END
$$$$
