45
rmsd190.gzmat
C          0.00000        0.00000        0.00000
N          1.36510        0.00000        0.00000
C          1.96480        0.00000        1.22850
N          1.31140        0.00370        2.43750
C         -0.03640       -0.00240        2.40960
C         -0.75710        0.00180        1.20550
C         -2.21280        0.00050        1.16510
C         -2.90610       -1.19030        0.92230
C         -4.29210       -1.19890        0.86510
C         -5.01020       -0.00270        1.06090
C         -4.31480        1.19170        1.31220
C         -2.92650        1.18550        1.36220
N         -6.41640       -0.06810        1.08830
C         -7.19790        1.10210        0.67130
C         -7.30840        1.25520       -0.82810
C         -6.15800        1.30620       -1.61650
C         -6.29890        1.44800       -2.99570
C         -7.53630        1.55360       -3.62940
C         -8.65400        1.50790       -2.79830
C         -8.57150        1.35770       -1.41370
F         -9.85150        1.60940       -3.35140
F         -5.20630        1.48650       -3.74050
C         -0.71180       -0.00940        3.75250
C         -1.22770       -1.41400        4.06810
N          3.33220       -0.00110        1.25860
N         -0.58870       -0.00820       -1.23480
H         -2.34690       -2.11500        0.77410
H         -4.82040       -2.12890        0.67600
H         -4.85250        2.11990        1.48270
H         -2.38570        2.11270        1.55350
H         -6.81080       -0.94090        0.74530
H         -6.76720        2.03400        1.11310
H         -8.20880        0.99780        1.14040
H         -5.16750        1.23670       -1.16150
H         -7.62440        1.66580       -4.70920
H         -9.47450        1.32230       -0.80600
H         -1.54730        0.72090        3.75940
H         -0.00160        0.32030        4.54340
H         -1.95260       -1.75290        3.31650
H         -1.72720       -1.43940        5.04250
H         -0.40660       -2.14140        4.09190
H          3.81190        0.00270        2.13480
H          3.85410       -0.00190        0.40760
H         -1.58240        0.02870       -1.32290
H         -0.02700        0.01480       -2.06220
