45
rmsd146.gzmat
C          0.00000        0.00000        0.00000
N          1.36500        0.00000        0.00000
C          1.96490        0.00000        1.22830
N          1.31170        0.00680        2.43740
C         -0.03590        0.00560        2.40940
C         -0.75710        0.01120        1.20540
C         -2.21240        0.03710        1.16760
C         -2.89550        1.23570        1.39040
C         -4.28270        1.27940        1.34160
C         -5.00950        0.10920        1.06550
C         -4.32230       -1.10030        0.84360
C         -2.93600       -1.12970        0.90220
N         -6.41710        0.08000        1.09510
C         -7.16960        1.27860        0.70620
C         -7.29040        1.46350       -0.78860
C         -6.15030        1.45110       -1.59310
C         -6.30100        1.62240       -2.96780
C         -7.53720        1.82030       -3.58100
C         -8.64350        1.83680       -2.73370
C         -8.55160        1.66070       -1.35300
F         -9.83900        2.02740       -3.26680
F         -5.21840        1.59780       -3.72780
C         -0.71180       -0.00430        3.75170
C         -1.18160       -1.42290        4.07740
N          3.33230       -0.00420        1.25750
N         -0.58730       -0.02310       -1.23560
H         -2.32940        2.14370        1.60150
H         -4.79500        2.21760        1.53230
H         -4.87440       -2.01180        0.63390
H         -2.40180       -2.06630        0.73760
H         -6.83470       -0.77440        0.73350
H         -6.70950        2.19070        1.15950
H         -8.17860        1.19340        1.18240
H         -5.16040        1.31190       -1.15390
H         -7.63260        1.95490       -4.65740
H         -9.44540        1.67820       -0.73150
H         -1.57020        0.69850        3.75190
H         -0.01300        0.35520        4.53930
H         -1.86070       -1.80690        3.30450
H         -1.71690       -1.45140        5.03240
H         -0.33180       -2.11420        4.14770
H          3.81300       -0.00430        2.13340
H          3.85290       -0.00660        0.40560
H         -1.58000        0.03390       -1.32530
H         -0.02360        0.01100       -2.06120
