45
rmsd177.gzmat
C          0.00000        0.00000        0.00000
N          1.36510        0.00000        0.00000
C          1.96520        0.00000        1.22820
N          1.31260       -0.01460        2.43790
C         -0.03490       -0.01130        2.40980
C         -0.75630       -0.00920        1.20570
C         -2.21190       -0.01120        1.17310
C         -2.91990       -1.18530        1.44160
C         -4.30890       -1.19570        1.41720
C         -5.01010       -0.01760        1.11260
C         -4.29740        1.16650        0.83770
C         -2.91090        1.16380        0.87750
N         -6.41470        0.05550        1.17110
C         -7.20850       -1.14420        0.87490
C         -7.30580       -1.41920       -0.60730
C         -8.48660       -1.11840       -1.28720
C         -8.54770       -1.37140       -2.65760
C         -7.48480       -1.90710       -3.38250
C         -6.32800       -2.18750       -2.65650
C         -6.21310       -1.95880       -1.28650
F         -5.29130       -2.69780       -3.30050
F         -9.66810       -1.08750       -3.30130
C         -0.71580       -0.00370        3.75000
C         -1.13960        1.42380        4.09930
N          3.33260        0.01570        1.25810
N         -0.58940        0.02350       -1.23490
H         -2.37250       -2.10010        1.67150
H         -4.84110       -2.11250        1.65270
H         -4.83030        2.08390        0.60550
H         -2.35700        2.08160        0.67690
H         -6.81620        0.89680        0.76360
H         -8.22110       -0.98730        1.32270
H         -6.78870       -2.02770        1.41220
H         -9.34170       -0.69750       -0.76110
H         -7.55350       -2.09650       -4.45290
H         -5.28630       -2.18780       -0.75680
H         -0.03460       -0.40200        4.53330
H         -1.59890       -0.67540        3.73430
H         -0.26650        2.07400        4.23470
H         -1.72230        1.44620        5.02630
H         -1.76030        1.86170        3.30710
H          3.81230        0.00210        2.13450
H          3.85410        0.01140        0.40670
H         -1.58200       -0.04800       -1.32200
H         -0.02750       -0.01600       -2.06130
