45

C         -0.06070       -0.46480        0.15430
N          1.26450       -0.62680        0.16020
C          1.89190       -0.40600        1.32330
N          1.31750       -0.05550        2.48220
C         -0.01450        0.09880        2.47550
C         -0.78620       -0.09080        1.32110
C         -2.26200        0.08690        1.27270
C         -3.13900       -0.83360        1.86720
C         -4.52380       -0.66570        1.83180
C         -5.08930        0.44610        1.17680
C         -4.21690        1.36740        0.56100
C         -2.83850        1.18880        0.61250
N         -6.45830        0.66140        1.13960
C         -7.42150       -0.33350        1.53360
C         -7.56700       -0.51260        3.03790
C         -7.20540        0.51500        3.91420
C         -7.38100        0.32970        5.28280
C         -7.90640       -0.84440        5.81660
C         -8.25550       -1.85020        4.91870
C         -8.09240       -1.70890        3.54340
F         -8.75830       -2.99450        5.39930
F         -7.03130        1.31290        6.12120
C         -0.62630        0.57630        3.77090
C         -0.68310        2.10890        3.82370
N          3.24970       -0.53730        1.32470
N         -0.69940       -0.65940       -1.03480
H         -2.72290       -1.70570        2.37770
H         -5.16160       -1.39680        2.32790
H         -4.63400        2.23850        0.04720
H         -2.18400        1.92090        0.13330
H         -6.77570        1.37300        0.49640
H         -7.19590       -1.31980        1.08200
H         -8.39980       -0.02870        1.12670
H         -6.77690        1.44310        3.53660
H         -8.03230       -0.97390        6.89130
H         -8.37190       -2.53440        2.88590
H          0.00140        0.19940        4.59200
H         -1.63840        0.16630        3.89650
H          0.32320        2.53480        3.68930
H         -1.08020        2.45790        4.79010
H         -1.33090        2.50550        3.02600
H          3.72060       -0.54130        2.21840
H          3.68950       -0.96420        0.52180
H         -1.70630       -0.74420       -1.04930
H         -0.15910       -1.06880       -1.78550
