45
rmsd114.gzmat
C          0.00000        0.00000        0.00000
N          1.36480        0.00000        0.00000
C          1.96440        0.00000        1.22880
N          1.31110        0.01110        2.43770
C         -0.03660        0.00900        2.41030
C         -0.75650        0.00900        1.20500
C         -2.21190        0.00460        1.16800
C         -2.89950       -1.17920        0.88790
C         -4.28740       -1.19920        0.85100
C         -5.00930       -0.02060        1.10210
C         -4.31780        1.17400        1.38070
C         -2.93030        1.17980        1.40770
N         -6.41200        0.02780        0.97830
C         -7.19680       -1.15440        1.35850
C         -7.35510       -1.30170        2.85400
C         -6.23580       -1.53090        3.65580
C         -6.41610       -1.65910        5.03180
C         -7.66430       -1.57650        5.64800
C         -8.74920       -1.34800        4.80410
C         -8.62580       -1.20590        3.42190
F         -9.95510       -1.26090        5.34110
F         -5.35400       -1.87190        5.79080
C         -0.71550        0.00390        3.75150
C         -1.21530       -1.40550        4.07210
N          3.33190       -0.01060        1.25650
N         -0.58730       -0.02530       -1.23650
H         -2.33680       -2.09410        0.69920
H         -4.80390       -2.12450        0.61390
H         -4.86600        2.09130        1.57330
H         -2.39150        2.10370        1.62030
H         -6.83890        0.89400        1.29950
H         -6.73780       -2.07770        0.92960
H         -8.19080       -1.06180        0.85450
H         -5.23890       -1.60110        3.21410
H         -7.78430       -1.68490        6.72490
H         -9.50250       -1.02480        2.80280
H         -1.56000        0.72400        3.75350
H         -0.01250        0.34710        4.54270
H         -1.92590       -1.76130        3.31510
H         -1.72320       -1.43110        5.04280
H         -0.38440       -2.12100        4.11040
H          3.81380       -0.00490        2.13160
H          3.85050       -0.01330        0.40350
H         -1.57960        0.04170       -1.32640
H         -0.02250        0.01060       -2.06150
