45
rmsd109.gzmat
C          0.00000        0.00000        0.00000
N          1.36470        0.00000        0.00000
C          1.96440        0.00000        1.22850
N          1.31090       -0.00250        2.43760
C         -0.03680       -0.00650        2.41010
C         -0.75670        0.00440        1.20500
C         -2.21190        0.00680        1.17050
C         -2.90500       -1.17480        0.89490
C         -4.29310       -1.19160        0.87530
C         -5.00960       -0.01200        1.13820
C         -4.31260        1.18240        1.40470
C         -2.92500        1.18510        1.41530
N         -6.41350        0.03980        1.04690
C         -7.19430       -1.15780        1.37920
C         -7.35850       -1.38300        2.86420
C         -6.23860       -1.48260        3.69040
C         -6.43100       -1.69800        5.05360
C         -7.69210       -1.82880        5.63390
C         -8.77780       -1.72790        4.76640
C         -8.64290       -1.50540        3.39600
F         -9.99600       -1.84800        5.26830
F         -5.36790       -1.78510        5.83560
C         -0.71520       -0.02080        3.75140
C         -1.23810       -1.42510        4.05620
N          3.33170        0.01000        1.25720
N         -0.58810       -0.02090       -1.23620
H         -2.34670       -2.09100        0.69900
H         -4.81360       -2.11670        0.64730
H         -4.85730        2.10150        1.59990
H         -2.38220        2.10820        1.62040
H         -6.83580        0.89220        1.40780
H         -6.73370       -2.06220        0.91160
H         -8.18750       -1.04560        0.87700
H         -5.23060       -1.39140        3.27810
H         -7.82060       -2.00050        6.70140
H         -9.52150       -1.43110        2.75780
H         -1.54840        0.71240        3.76320
H         -0.00570        0.30040        4.54580
H         -1.98870       -1.74150        3.32100
H         -1.70700       -1.46340        5.04600
H         -0.42590       -2.16230        4.04350
H          3.81260       -0.00200        2.13280
H          3.85160       -0.00100        0.40550
H         -1.57980        0.05400       -1.32560
H         -0.02400        0.01970       -2.06120
