rmsd125.gzmat
 OpenBabel08211713403D

 36 38  0  0  1  0  0  0  0  0999 V2000
    0.0000    0.0000    0.0000 O   0  0  0  0  0  0  0  0  0  0  0  0
    1.3848    0.0000    0.0000 C   0  0  0  0  0  0  0  0  0  0  0  0
    1.9144    0.0000    1.2238 N   0  0  0  0  0  0  0  0  0  0  0  0
    0.8185   -0.0012    2.0977 C   0  0  0  0  0  0  0  0  0  0  0  0
   -0.3439   -0.0007    1.3586 C   0  0  2  0  0  0  0  0  0  0  0  0
   -1.7549   -0.0084    1.6293 C   0  0  0  0  0  0  0  0  0  0  0  0
   -2.6761   -0.1078    0.5791 C   0  0  0  0  0  0  0  0  0  0  0  0
   -4.0404   -0.1223    0.8533 C   0  0  0  0  0  0  0  0  0  0  0  0
   -4.4922   -0.0332    2.1691 C   0  0  0  0  0  0  0  0  0  0  0  0
   -3.5765    0.0679    3.2155 C   0  0  0  0  0  0  0  0  0  0  0  0
   -2.2101    0.0792    2.9511 C   0  0  0  0  0  0  0  0  0  0  0  0
    2.0398   -0.0133   -1.2129 N   0  0  0  0  0  0  0  0  0  0  0  0
    1.3465    0.1023   -2.4204 C   0  0  0  0  0  0  0  0  0  0  0  0
    0.1558    0.2169   -2.5519 O   0  0  0  0  0  0  0  0  0  0  0  0
    2.2629    0.0289   -3.4267 O   0  0  0  0  0  0  0  0  0  0  0  0
    1.7623    0.3670   -4.7309 C   0  0  0  0  0  0  0  0  0  0  0  0
    1.7763    1.8550   -4.8817 C   0  0  0  0  0  0  0  0  0  0  0  0
    2.8986    2.4911   -5.4138 C   0  0  0  0  0  0  0  0  0  0  0  0
    2.9180    3.8789   -5.5355 C   0  0  0  0  0  0  0  0  0  0  0  0
    1.8200    4.6309   -5.1210 C   0  0  0  0  0  0  0  0  0  0  0  0
    0.6998    3.9950   -4.5877 C   0  0  0  0  0  0  0  0  0  0  0  0
    0.6760    2.6074   -4.4676 C   0  0  0  0  0  0  0  0  0  0  0  0
    0.9776   -0.0016    3.1600 H   0  0  0  0  0  0  0  0  0  0  0  0
   -2.3252   -0.1735   -0.4530 H   0  0  0  0  0  0  0  0  0  0  0  0
   -4.7557   -0.2029    0.0364 H   0  0  0  0  0  0  0  0  0  0  0  0
   -5.5594   -0.0430    2.3798 H   0  0  0  0  0  0  0  0  0  0  0  0
   -3.9304    0.1388    4.2418 H   0  0  0  0  0  0  0  0  0  0  0  0
   -1.4974    0.1564    3.7698 H   0  0  0  0  0  0  0  0  0  0  0  0
    3.0606   -0.0734   -1.1987 H   0  0  0  0  0  0  0  0  0  0  0  0
    0.7596   -0.0781   -4.8848 H   0  0  0  0  0  0  0  0  0  0  0  0
    2.4979   -0.1531   -5.3771 H   0  0  0  0  0  0  0  0  0  0  0  0
    3.7620    1.9071   -5.7283 H   0  0  0  0  0  0  0  0  0  0  0  0
    3.7923    4.3757   -5.9504 H   0  0  0  0  0  0  0  0  0  0  0  0
    1.8387    5.7154   -5.2122 H   0  0  0  0  0  0  0  0  0  0  0  0
   -0.1564    4.5822   -4.2604 H   0  0  0  0  0  0  0  0  0  0  0  0
   -0.1988    2.1101   -4.0405 H   0  0  0  0  0  0  0  0  0  0  0  0
  1  2  1  0  0  0  0
  1  5  1  0  0  0  0
  2  3  2  0  0  0  0
  3  4  2  0  0  0  0
  4 23  1  0  0  0  0
  5  6  1  6  0  0  0
  5  4  1  0  0  0  0
  6 11  2  0  0  0  0
  7  8  2  0  0  0  0
  7  6  1  0  0  0  0
  8  9  1  0  0  0  0
  9 26  1  0  0  0  0
  9 10  2  0  0  0  0
 10 27  1  0  0  0  0
 11 10  1  0  0  0  0
 11 28  1  0  0  0  0
 12 29  1  0  0  0  0
 12  2  1  0  0  0  0
 13 12  1  0  0  0  0
 14 13  2  0  0  0  0
 15 13  1  0  0  0  0
 16 15  1  0  0  0  0
 17 16  1  0  0  0  0
 17 22  2  0  0  0  0
 18 17  1  0  0  0  0
 19 18  2  0  0  0  0
 19 20  1  0  0  0  0
 20 21  2  0  0  0  0
 21 22  1  0  0  0  0
 21 35  1  0  0  0  0
 22 36  1  0  0  0  0
 24  7  1  0  0  0  0
 25  8  1  0  0  0  0
 30 16  1  0  0  0  0
 31 16  1  0  0  0  0
 32 18  1  0  0  0  0
 33 19  1  0  0  0  0
 34 20  1  0  0  0  0
M  RAD  1   5   2
M  END
$$$$
