36
rmsd100.gzmat
O          0.00000        0.00000        0.00000
C          1.38500        0.00000        0.00000
N          1.91530        0.00000        1.22370
C          0.81990        0.00050        2.09790
C         -0.34240        0.00030        1.35900
C         -1.75200       -0.00170        1.63690
C         -2.67690       -0.22520        0.60950
C         -4.03970       -0.22360        0.89230
C         -4.48530       -0.00020        2.19430
C         -3.56520        0.22200        3.21800
C         -2.20070        0.22180        2.94460
N          2.04690       -0.01730       -1.20880
C          1.36590        0.08400       -2.42490
O          0.17790        0.20840       -2.56980
O          2.29340       -0.02060       -3.41830
C          1.81040        0.26550       -4.74100
C          1.82000        1.74640       -4.94990
C          2.95010        2.36800       -5.48220
C          2.96390        3.74990       -5.65800
C          1.85270        4.51030       -5.29670
C          0.72560        3.88930       -4.76040
C          0.70740        2.50730       -4.58760
H          0.97840        0.00010        3.16040
H         -2.32940       -0.39900       -0.41090
H         -4.75790       -0.39750        0.09270
H         -5.55110        0.00120        2.41270
H         -3.91460        0.39840        4.23350
H         -1.48450        0.39820        3.74470
H          3.06810       -0.07530       -1.18520
H          0.81240       -0.19050       -4.89170
H          2.55870       -0.27450       -5.35630
H          3.82370        1.77860       -5.75470
H          3.84430        4.23530       -6.07420
H          1.86700        5.59010       -5.43180
H         -0.13990        4.48400       -4.47250
H         -0.17260        2.02110       -4.15830
