36
rmsd146.gzmat
O          0.00000        0.00000        0.00000
C          1.38460        0.00000        0.00000
N          1.91400        0.00000        1.22390
C          0.81760        0.00090        2.09760
C         -0.34430       -0.00080        1.35820
C         -1.75580       -0.00650        1.62620
C         -2.21360       -0.12350        2.94440
C         -3.58100       -0.13220        3.20470
C         -4.49450       -0.02400        2.15720
C         -4.04000        0.09250        0.84420
C         -2.67460        0.10130        0.57440
N          2.03920       -0.00080       -1.21320
C          1.33860       -0.03200       -2.42190
O          0.14270       -0.04300       -2.55340
O          2.25790       -0.07530       -3.42710
C          1.71520        0.06270       -4.75090
C          1.43840        1.50710       -5.02160
C          2.45200        2.33020       -5.51420
C          2.19800        3.67970       -5.74980
C          0.93350        4.20650       -5.49090
C         -0.07750        3.38490       -4.99450
C          0.17370        2.03530       -4.75800
H          0.97660        0.00500        3.15990
H         -1.50310       -0.20940        3.76400
H         -3.93720       -0.22500        4.22890
H         -5.56250       -0.03090        2.36420
H         -4.75410        0.17680        0.02690
H         -2.32080        0.19080       -0.45510
H          3.06140        0.01450       -1.19980
H          0.82150       -0.58210       -4.86180
H          2.54630       -0.35170       -5.35710
H          3.44230        1.92230       -5.70940
H          2.98730        4.32280       -6.13420
H          0.73650        5.26150       -5.67380
H         -1.06310        3.79750       -4.78610
H         -0.61420        1.39490       -4.35280
