rmsd199.gzmat
 OpenBabel08211713403D

 36 38  0  0  1  0  0  0  0  0999 V2000
    0.0000    0.0000    0.0000 O   0  0  0  0  0  0  0  0  0  0  0  0
    1.3851    0.0000    0.0000 C   0  0  0  0  0  0  0  0  0  0  0  0
    1.9146    0.0000    1.2236 N   0  0  0  0  0  0  0  0  0  0  0  0
    0.8182    0.0024    2.0973 C   0  0  0  0  0  0  0  0  0  0  0  0
   -0.3437   -0.0008    1.3579 C   0  0  2  0  0  0  0  0  0  0  0  0
   -1.7552   -0.0138    1.6262 C   0  0  0  0  0  0  0  0  0  0  0  0
   -2.6671   -0.2810    0.5971 C   0  0  0  0  0  0  0  0  0  0  0  0
   -4.0318   -0.2991    0.8685 C   0  0  0  0  0  0  0  0  0  0  0  0
   -4.4926   -0.0515    2.1611 C   0  0  0  0  0  0  0  0  0  0  0  0
   -3.5858    0.2198    3.1848 C   0  0  0  0  0  0  0  0  0  0  0  0
   -2.2189    0.2408    2.9224 C   0  0  0  0  0  0  0  0  0  0  0  0
    2.0365    0.0233   -1.2146 N   0  0  0  0  0  0  0  0  0  0  0  0
    1.3397   -0.1211   -2.4173 C   0  0  0  0  0  0  0  0  0  0  0  0
    0.1557   -0.2957   -2.5399 O   0  0  0  0  0  0  0  0  0  0  0  0
    2.2500   -0.0492   -3.4306 O   0  0  0  0  0  0  0  0  0  0  0  0
    1.6748    0.1138   -4.7383 C   0  0  0  0  0  0  0  0  0  0  0  0
    1.1556    1.5095   -4.8754 C   0  0  0  0  0  0  0  0  0  0  0  0
    2.0331    2.5512   -5.1785 C   0  0  0  0  0  0  0  0  0  0  0  0
    1.5560    3.8569   -5.2680 C   0  0  0  0  0  0  0  0  0  0  0  0
    0.2049    4.1219   -5.0477 C   0  0  0  0  0  0  0  0  0  0  0  0
   -0.6710    3.0809   -4.7443 C   0  0  0  0  0  0  0  0  0  0  0  0
   -0.1973    1.7735   -4.6593 C   0  0  0  0  0  0  0  0  0  0  0  0
    0.9760   -0.0012    3.1596 H   0  0  0  0  0  0  0  0  0  0  0  0
   -2.3074   -0.4755   -0.4159 H   0  0  0  0  0  0  0  0  0  0  0  0
   -4.7401   -0.5089    0.0686 H   0  0  0  0  0  0  0  0  0  0  0  0
   -5.5600   -0.0708    2.3704 H   0  0  0  0  0  0  0  0  0  0  0  0
   -3.9463    0.4157    4.1927 H   0  0  0  0  0  0  0  0  0  0  0  0
   -1.5139    0.4578    3.7225 H   0  0  0  0  0  0  0  0  0  0  0  0
    3.0520    0.1374   -1.2069 H   0  0  0  0  0  0  0  0  0  0  0  0
    0.9021   -0.6619   -4.9019 H   0  0  0  0  0  0  0  0  0  0  0  0
    2.5558   -0.0974   -5.3774 H   0  0  0  0  0  0  0  0  0  0  0  0
    3.0903    2.3460   -5.3353 H   0  0  0  0  0  0  0  0  0  0  0  0
    2.2389    4.6701   -5.5049 H   0  0  0  0  0  0  0  0  0  0  0  0
   -0.1660    5.1437   -5.1080 H   0  0  0  0  0  0  0  0  0  0  0  0
   -1.7240    3.2885   -4.5641 H   0  0  0  0  0  0  0  0  0  0  0  0
   -0.8801    0.9599   -4.4036 H   0  0  0  0  0  0  0  0  0  0  0  0
  1  2  1  0  0  0  0
  1  5  1  0  0  0  0
  2  3  2  0  0  0  0
  3  4  2  0  0  0  0
  4 23  1  0  0  0  0
  5  6  1  1  0  0  0
  5  4  1  0  0  0  0
  6 11  2  0  0  0  0
  7  8  2  0  0  0  0
  7  6  1  0  0  0  0
  8  9  1  0  0  0  0
  9 26  1  0  0  0  0
  9 10  2  0  0  0  0
 10 27  1  0  0  0  0
 11 10  1  0  0  0  0
 11 28  1  0  0  0  0
 12 29  1  0  0  0  0
 12  2  1  0  0  0  0
 13 12  1  0  0  0  0
 14 13  2  0  0  0  0
 15 13  1  0  0  0  0
 16 15  1  0  0  0  0
 17 16  1  0  0  0  0
 17 22  2  0  0  0  0
 18 17  1  0  0  0  0
 19 18  2  0  0  0  0
 19 20  1  0  0  0  0
 20 21  2  0  0  0  0
 21 22  1  0  0  0  0
 21 35  1  0  0  0  0
 22 36  1  0  0  0  0
 24  7  1  0  0  0  0
 25  8  1  0  0  0  0
 30 16  1  0  0  0  0
 31 16  1  0  0  0  0
 32 18  1  0  0  0  0
 33 19  1  0  0  0  0
 34 20  1  0  0  0  0
M  RAD  1   5   2
M  END
$$$$
