rmsd146.gzmat
 OpenBabel08211713403D

 36 38  0  0  1  0  0  0  0  0999 V2000
    0.0000    0.0000    0.0000 O   0  0  0  0  0  0  0  0  0  0  0  0
    1.3846    0.0000    0.0000 C   0  0  0  0  0  0  0  0  0  0  0  0
    1.9140    0.0000    1.2239 N   0  0  0  0  0  0  0  0  0  0  0  0
    0.8176    0.0009    2.0976 C   0  0  0  0  0  0  0  0  0  0  0  0
   -0.3443   -0.0008    1.3582 C   0  0  2  0  0  0  0  0  0  0  0  0
   -1.7558   -0.0065    1.6262 C   0  0  0  0  0  0  0  0  0  0  0  0
   -2.2136   -0.1235    2.9444 C   0  0  0  0  0  0  0  0  0  0  0  0
   -3.5810   -0.1322    3.2047 C   0  0  0  0  0  0  0  0  0  0  0  0
   -4.4945   -0.0240    2.1572 C   0  0  0  0  0  0  0  0  0  0  0  0
   -4.0400    0.0925    0.8442 C   0  0  0  0  0  0  0  0  0  0  0  0
   -2.6746    0.1013    0.5744 C   0  0  0  0  0  0  0  0  0  0  0  0
    2.0392   -0.0008   -1.2132 N   0  0  0  0  0  0  0  0  0  0  0  0
    1.3386   -0.0320   -2.4219 C   0  0  0  0  0  0  0  0  0  0  0  0
    0.1427   -0.0430   -2.5534 O   0  0  0  0  0  0  0  0  0  0  0  0
    2.2579   -0.0753   -3.4271 O   0  0  0  0  0  0  0  0  0  0  0  0
    1.7152    0.0627   -4.7509 C   0  0  0  0  0  0  0  0  0  0  0  0
    1.4384    1.5071   -5.0216 C   0  0  0  0  0  0  0  0  0  0  0  0
    2.4520    2.3302   -5.5142 C   0  0  0  0  0  0  0  0  0  0  0  0
    2.1980    3.6797   -5.7498 C   0  0  0  0  0  0  0  0  0  0  0  0
    0.9335    4.2065   -5.4909 C   0  0  0  0  0  0  0  0  0  0  0  0
   -0.0775    3.3849   -4.9945 C   0  0  0  0  0  0  0  0  0  0  0  0
    0.1737    2.0353   -4.7580 C   0  0  0  0  0  0  0  0  0  0  0  0
    0.9766    0.0050    3.1599 H   0  0  0  0  0  0  0  0  0  0  0  0
   -1.5031   -0.2094    3.7640 H   0  0  0  0  0  0  0  0  0  0  0  0
   -3.9372   -0.2250    4.2289 H   0  0  0  0  0  0  0  0  0  0  0  0
   -5.5625   -0.0309    2.3642 H   0  0  0  0  0  0  0  0  0  0  0  0
   -4.7541    0.1768    0.0269 H   0  0  0  0  0  0  0  0  0  0  0  0
   -2.3208    0.1908   -0.4551 H   0  0  0  0  0  0  0  0  0  0  0  0
    3.0614    0.0145   -1.1998 H   0  0  0  0  0  0  0  0  0  0  0  0
    0.8215   -0.5821   -4.8618 H   0  0  0  0  0  0  0  0  0  0  0  0
    2.5463   -0.3517   -5.3571 H   0  0  0  0  0  0  0  0  0  0  0  0
    3.4423    1.9223   -5.7094 H   0  0  0  0  0  0  0  0  0  0  0  0
    2.9873    4.3228   -6.1342 H   0  0  0  0  0  0  0  0  0  0  0  0
    0.7365    5.2615   -5.6738 H   0  0  0  0  0  0  0  0  0  0  0  0
   -1.0631    3.7975   -4.7861 H   0  0  0  0  0  0  0  0  0  0  0  0
   -0.6142    1.3949   -4.3528 H   0  0  0  0  0  0  0  0  0  0  0  0
  1  2  1  0  0  0  0
  1  5  1  0  0  0  0
  2  3  2  0  0  0  0
  3  4  2  0  0  0  0
  4 23  1  0  0  0  0
  5  6  1  6  0  0  0
  5  4  1  0  0  0  0
  6  7  2  0  0  0  0
  7  8  1  0  0  0  0
  7 24  1  0  0  0  0
  8 25  1  0  0  0  0
  9 26  1  0  0  0  0
  9  8  2  0  0  0  0
 10  9  1  0  0  0  0
 11 10  2  0  0  0  0
 11  6  1  0  0  0  0
 12 29  1  0  0  0  0
 12  2  1  0  0  0  0
 13 12  1  0  0  0  0
 14 13  2  0  0  0  0
 15 13  1  0  0  0  0
 16 15  1  0  0  0  0
 17 22  2  0  0  0  0
 17 16  1  0  0  0  0
 18 17  1  0  0  0  0
 19 18  2  0  0  0  0
 19 20  1  0  0  0  0
 20 21  2  0  0  0  0
 21 35  1  0  0  0  0
 21 22  1  0  0  0  0
 22 36  1  0  0  0  0
 27 10  1  0  0  0  0
 28 11  1  0  0  0  0
 30 16  1  0  0  0  0
 31 16  1  0  0  0  0
 32 18  1  0  0  0  0
 33 19  1  0  0  0  0
 34 20  1  0  0  0  0
M  RAD  1   5   2
M  END
$$$$
