rmsd141.gzmat
 OpenBabel08211713403D

 36 38  0  0  1  0  0  0  0  0999 V2000
    0.0000    0.0000    0.0000 O   0  0  0  0  0  0  0  0  0  0  0  0
    1.3846    0.0000    0.0000 C   0  0  0  0  0  0  0  0  0  0  0  0
    1.9142    0.0000    1.2239 N   0  0  0  0  0  0  0  0  0  0  0  0
    0.8179   -0.0024    2.0976 C   0  0  0  0  0  0  0  0  0  0  0  0
   -0.3442   -0.0024    1.3581 C   0  0  1  0  0  0  0  0  0  0  0  0
   -1.7557   -0.0034    1.6256 C   0  0  0  0  0  0  0  0  0  0  0  0
   -2.2139   -0.1307    2.9428 C   0  0  0  0  0  0  0  0  0  0  0  0
   -3.5813   -0.1303    3.2030 C   0  0  0  0  0  0  0  0  0  0  0  0
   -4.4943   -0.0134    2.1561 C   0  0  0  0  0  0  0  0  0  0  0  0
   -4.0390    0.1110    0.8439 C   0  0  0  0  0  0  0  0  0  0  0  0
   -2.6736    0.1188    0.5749 C   0  0  0  0  0  0  0  0  0  0  0  0
    2.0397   -0.0019   -1.2130 N   0  0  0  0  0  0  0  0  0  0  0  0
    1.3398    0.0043   -2.4223 C   0  0  0  0  0  0  0  0  0  0  0  0
    0.1435    0.0019   -2.5544 O   0  0  0  0  0  0  0  0  0  0  0  0
    2.2591    0.0417   -3.4269 O   0  0  0  0  0  0  0  0  0  0  0  0
    1.7237   -0.0993   -4.7531 C   0  0  0  0  0  0  0  0  0  0  0  0
    1.5854   -1.5543   -5.0719 C   0  0  0  0  0  0  0  0  0  0  0  0
    0.4383   -2.2465   -4.6805 C   0  0  0  0  0  0  0  0  0  0  0  0
    0.3135   -3.6033   -4.9697 C   0  0  0  0  0  0  0  0  0  0  0  0
    1.3309   -4.2675   -5.6532 C   0  0  0  0  0  0  0  0  0  0  0  0
    2.4773   -3.5763   -6.0426 C   0  0  0  0  0  0  0  0  0  0  0  0
    2.6079   -2.2207   -5.7489 C   0  0  0  0  0  0  0  0  0  0  0  0
    0.9765   -0.0037    3.1601 H   0  0  0  0  0  0  0  0  0  0  0  0
   -1.5033   -0.2327    3.7610 H   0  0  0  0  0  0  0  0  0  0  0  0
   -3.9375   -0.2233    4.2269 H   0  0  0  0  0  0  0  0  0  0  0  0
   -5.5621   -0.0196    2.3634 H   0  0  0  0  0  0  0  0  0  0  0  0
   -4.7520    0.2022    0.0260 H   0  0  0  0  0  0  0  0  0  0  0  0
   -2.3187    0.2190   -0.4532 H   0  0  0  0  0  0  0  0  0  0  0  0
    3.0620   -0.0112   -1.1984 H   0  0  0  0  0  0  0  0  0  0  0  0
    2.5070    0.4135   -5.3476 H   0  0  0  0  0  0  0  0  0  0  0  0
    0.7696    0.4566   -4.8450 H   0  0  0  0  0  0  0  0  0  0  0  0
   -0.3592   -1.7268   -4.1427 H   0  0  0  0  0  0  0  0  0  0  0  0
   -0.5790   -4.1441   -4.6600 H   0  0  0  0  0  0  0  0  0  0  0  0
    1.2315   -5.3272   -5.8821 H   0  0  0  0  0  0  0  0  0  0  0  0
    3.2717   -4.0965   -6.5737 H   0  0  0  0  0  0  0  0  0  0  0  0
    3.5090   -1.6865   -6.0454 H   0  0  0  0  0  0  0  0  0  0  0  0
  1  5  1  0  0  0  0
  2  1  1  0  0  0  0
  2  3  2  0  0  0  0
  3  4  2  0  0  0  0
  4 23  1  0  0  0  0
  5  6  1  1  0  0  0
  5  4  1  0  0  0  0
  6  7  2  0  0  0  0
  7  8  1  0  0  0  0
  7 24  1  0  0  0  0
  8 25  1  0  0  0  0
  9 26  1  0  0  0  0
  9  8  2  0  0  0  0
 10  9  1  0  0  0  0
 11 10  2  0  0  0  0
 11  6  1  0  0  0  0
 12 29  1  0  0  0  0
 12  2  1  0  0  0  0
 13 12  1  0  0  0  0
 14 13  2  0  0  0  0
 15 13  1  0  0  0  0
 16 15  1  0  0  0  0
 17 16  1  0  0  0  0
 17 18  2  0  0  0  0
 18 32  1  0  0  0  0
 19 18  1  0  0  0  0
 19 33  1  0  0  0  0
 20 19  2  0  0  0  0
 21 22  2  0  0  0  0
 21 20  1  0  0  0  0
 22 17  1  0  0  0  0
 27 10  1  0  0  0  0
 28 11  1  0  0  0  0
 30 16  1  0  0  0  0
 31 16  1  0  0  0  0
 34 20  1  0  0  0  0
 35 21  1  0  0  0  0
 36 22  1  0  0  0  0
M  RAD  1   5   2
M  END
$$$$
