36
rmsd141.gzmat
O          0.00000        0.00000        0.00000
C          1.38460        0.00000        0.00000
N          1.91420        0.00000        1.22390
C          0.81790       -0.00240        2.09760
C         -0.34420       -0.00240        1.35810
C         -1.75570       -0.00340        1.62560
C         -2.21390       -0.13070        2.94280
C         -3.58130       -0.13030        3.20300
C         -4.49430       -0.01340        2.15610
C         -4.03900        0.11100        0.84390
C         -2.67360        0.11880        0.57490
N          2.03970       -0.00190       -1.21300
C          1.33980        0.00430       -2.42230
O          0.14350        0.00190       -2.55440
O          2.25910        0.04170       -3.42690
C          1.72370       -0.09930       -4.75310
C          1.58540       -1.55430       -5.07190
C          0.43830       -2.24650       -4.68050
C          0.31350       -3.60330       -4.96970
C          1.33090       -4.26750       -5.65320
C          2.47730       -3.57630       -6.04260
C          2.60790       -2.22070       -5.74890
H          0.97650       -0.00370        3.16010
H         -1.50330       -0.23270        3.76100
H         -3.93750       -0.22330        4.22690
H         -5.56210       -0.01960        2.36340
H         -4.75200        0.20220        0.02600
H         -2.31870        0.21900       -0.45320
H          3.06200       -0.01120       -1.19840
H          2.50700        0.41350       -5.34760
H          0.76960        0.45660       -4.84500
H         -0.35920       -1.72680       -4.14270
H         -0.57900       -4.14410       -4.66000
H          1.23150       -5.32720       -5.88210
H          3.27170       -4.09650       -6.57370
H          3.50900       -1.68650       -6.04540
