36
rmsd125.gzmat
O          0.00000        0.00000        0.00000
C          1.38480        0.00000        0.00000
N          1.91440        0.00000        1.22380
C          0.81850       -0.00120        2.09770
C         -0.34390       -0.00070        1.35860
C         -1.75490       -0.00840        1.62930
C         -2.67610       -0.10780        0.57910
C         -4.04040       -0.12230        0.85330
C         -4.49220       -0.03320        2.16910
C         -3.57650        0.06790        3.21550
C         -2.21010        0.07920        2.95110
N          2.03980       -0.01330       -1.21290
C          1.34650        0.10230       -2.42040
O          0.15580        0.21690       -2.55190
O          2.26290        0.02890       -3.42670
C          1.76230        0.36700       -4.73090
C          1.77630        1.85500       -4.88170
C          2.89860        2.49110       -5.41380
C          2.91800        3.87890       -5.53550
C          1.82000        4.63090       -5.12100
C          0.69980        3.99500       -4.58770
C          0.67600        2.60740       -4.46760
H          0.97760       -0.00160        3.16000
H         -2.32520       -0.17350       -0.45300
H         -4.75570       -0.20290        0.03640
H         -5.55940       -0.04300        2.37980
H         -3.93040        0.13880        4.24180
H         -1.49740        0.15640        3.76980
H          3.06060       -0.07340       -1.19870
H          0.75960       -0.07810       -4.88480
H          2.49790       -0.15310       -5.37710
H          3.76200        1.90710       -5.72830
H          3.79230        4.37570       -5.95040
H          1.83870        5.71540       -5.21220
H         -0.15640        4.58220       -4.26040
H         -0.19880        2.11010       -4.04050
