
     RDKit          3D

 36 38  0  0  0  0  0  0  0  0999 V2000
   -0.0704    0.0461    0.0288 O   0  0  0  0  0  0  0  0  0  0  0  0
    1.2610    0.1819   -0.0128 C   0  0  0  0  0  0  0  0  0  0  0  0
    1.8278    0.3987    1.1369 N   0  0  0  0  0  0  0  0  0  0  0  0
    0.7701    0.4078    2.0311 C   0  0  0  0  0  0  0  0  0  0  0  0
   -0.4069    0.1918    1.3647 C   0  0  0  0  0  0  0  0  0  0  0  0
   -1.8125    0.0897    1.7182 C   0  0  0  0  0  0  0  0  0  0  0  0
   -2.7823   -0.1478    0.7254 C   0  0  0  0  0  0  0  0  0  0  0  0
   -4.1305   -0.2453    1.0692 C   0  0  0  0  0  0  0  0  0  0  0  0
   -4.5345   -0.1088    2.4004 C   0  0  0  0  0  0  0  0  0  0  0  0
   -3.5755    0.1274    3.3918 C   0  0  0  0  0  0  0  0  0  0  0  0
   -2.2268    0.2263    3.0572 C   0  0  0  0  0  0  0  0  0  0  0  0
    1.9202    0.0865   -1.2166 N   0  0  0  0  0  0  0  0  0  0  0  0
    1.3688   -0.1451   -2.4632 C   0  0  0  0  0  0  0  0  0  0  0  0
    0.1981   -0.3049   -2.7034 O   0  0  0  0  0  0  0  0  0  0  0  0
    2.3680   -0.1533   -3.3687 O   0  0  0  0  0  0  0  0  0  0  0  0
    1.9997   -0.4679   -4.7299 C   0  0  0  0  0  0  0  0  0  0  0  0
    2.0049   -1.9540   -4.9788 C   0  0  0  0  0  0  0  0  0  0  0  0
    0.8606   -2.7259   -4.7245 C   0  0  0  0  0  0  0  0  0  0  0  0
    0.8832   -4.1071   -4.9281 C   0  0  0  0  0  0  0  0  0  0  0  0
    2.0467   -4.7316   -5.3875 C   0  0  0  0  0  0  0  0  0  0  0  0
    3.1904   -3.9698   -5.6431 C   0  0  0  0  0  0  0  0  0  0  0  0
    3.1675   -2.5886   -5.4382 C   0  0  0  0  0  0  0  0  0  0  0  0
    0.9237    0.5689    3.0957 H   0  0  0  0  0  0  0  0  0  0  0  0
   -2.4646   -0.2539   -0.3131 H   0  0  0  0  0  0  0  0  0  0  0  0
   -4.8727   -0.4297    0.2888 H   0  0  0  0  0  0  0  0  0  0  0  0
   -5.5913   -0.1858    2.6659 H   0  0  0  0  0  0  0  0  0  0  0  0
   -3.8819    0.2355    4.4350 H   0  0  0  0  0  0  0  0  0  0  0  0
   -1.4867    0.4107    3.8389 H   0  0  0  0  0  0  0  0  0  0  0  0
    2.9271    0.1953   -1.1594 H   0  0  0  0  0  0  0  0  0  0  0  0
    2.7588    0.0361   -5.3419 H   0  0  0  0  0  0  0  0  0  0  0  0
    1.0125   -0.0328   -4.9351 H   0  0  0  0  0  0  0  0  0  0  0  0
   -0.0401   -2.2346   -4.3517 H   0  0  0  0  0  0  0  0  0  0  0  0
   -0.0128   -4.6995   -4.7279 H   0  0  0  0  0  0  0  0  0  0  0  0
    2.0617   -5.8123   -5.5482 H   0  0  0  0  0  0  0  0  0  0  0  0
    4.1015   -4.4526   -6.0045 H   0  0  0  0  0  0  0  0  0  0  0  0
    4.0625   -1.9932   -5.6393 H   0  0  0  0  0  0  0  0  0  0  0  0
  1  2  1  0
  1  5  1  0
  2  3  2  0
  2 12  1  0
  3  4  1  0
  4  5  2  0
  4 23  1  0
  5  6  1  0
  6  7  2  0
  6 11  1  0
  7  8  1  0
  7 24  1  0
  8  9  2  0
  8 25  1  0
  9 10  1  0
  9 26  1  0
 10 11  2  0
 10 27  1  0
 11 28  1  0
 12 13  1  0
 12 29  1  0
 13 14  2  0
 13 15  1  0
 15 16  1  0
 16 17  1  0
 16 30  1  0
 16 31  1  0
 17 18  2  0
 17 22  1  0
 18 19  1  0
 18 32  1  0
 19 20  2  0
 19 33  1  0
 20 21  1  0
 20 34  1  0
 21 22  2  0
 21 35  1  0
 22 36  1  0
M  END

