rmsd183.gzmat
 OpenBabel08211713403D

 36 38  0  0  1  0  0  0  0  0999 V2000
    0.0000    0.0000    0.0000 O   0  0  0  0  0  0  0  0  0  0  0  0
    1.3848    0.0000    0.0000 C   0  0  0  0  0  0  0  0  0  0  0  0
    1.9140    0.0000    1.2240 N   0  0  0  0  0  0  0  0  0  0  0  0
    0.8171    0.0002    2.0975 C   0  0  0  0  0  0  0  0  0  0  0  0
   -0.3448   -0.0005    1.3576 C   0  0  1  0  0  0  0  0  0  0  0  0
   -1.7575   -0.0009    1.6196 C   0  0  0  0  0  0  0  0  0  0  0  0
   -2.6690   -0.1776    0.5706 C   0  0  0  0  0  0  0  0  0  0  0  0
   -4.0358   -0.1683    0.8317 C   0  0  0  0  0  0  0  0  0  0  0  0
   -4.4992    0.0140    2.1341 C   0  0  0  0  0  0  0  0  0  0  0  0
   -3.5929    0.1856    3.1796 C   0  0  0  0  0  0  0  0  0  0  0  0
   -2.2239    0.1794    2.9276 C   0  0  0  0  0  0  0  0  0  0  0  0
    2.0349    0.0036   -1.2160 N   0  0  0  0  0  0  0  0  0  0  0  0
    1.3257   -0.0691   -2.4179 C   0  0  0  0  0  0  0  0  0  0  0  0
    0.1295   -0.1357   -2.5359 O   0  0  0  0  0  0  0  0  0  0  0  0
    2.2303   -0.0251   -3.4360 O   0  0  0  0  0  0  0  0  0  0  0  0
    1.6935   -0.3218   -4.7367 C   0  0  0  0  0  0  0  0  0  0  0  0
    1.6122   -1.8066   -4.8982 C   0  0  0  0  0  0  0  0  0  0  0  0
    0.4879   -2.4965   -4.4411 C   0  0  0  0  0  0  0  0  0  0  0  0
    0.4275   -3.8828   -4.5609 C   0  0  0  0  0  0  0  0  0  0  0  0
    1.4854   -4.5799   -5.1431 C   0  0  0  0  0  0  0  0  0  0  0  0
    2.6056   -3.8903   -5.6046 C   0  0  0  0  0  0  0  0  0  0  0  0
    2.6718   -2.5041   -5.4801 C   0  0  0  0  0  0  0  0  0  0  0  0
    0.9755   -0.0031    3.1600 H   0  0  0  0  0  0  0  0  0  0  0  0
   -2.3079   -0.3209   -0.4504 H   0  0  0  0  0  0  0  0  0  0  0  0
   -4.7432   -0.3034    0.0152 H   0  0  0  0  0  0  0  0  0  0  0  0
   -5.5684    0.0237    2.3345 H   0  0  0  0  0  0  0  0  0  0  0  0
   -3.9558    0.3263    4.1958 H   0  0  0  0  0  0  0  0  0  0  0  0
   -1.5188    0.3172    3.7449 H   0  0  0  0  0  0  0  0  0  0  0  0
    3.0566    0.0360   -1.2089 H   0  0  0  0  0  0  0  0  0  0  0  0
    2.4521    0.1576   -5.3882 H   0  0  0  0  0  0  0  0  0  0  0  0
    0.7182    0.1858   -4.8736 H   0  0  0  0  0  0  0  0  0  0  0  0
   -0.3410   -1.9520   -3.9805 H   0  0  0  0  0  0  0  0  0  0  0  0
   -0.4449   -4.4220   -4.1953 H   0  0  0  0  0  0  0  0  0  0  0  0
    1.4380   -5.6635   -5.2354 H   0  0  0  0  0  0  0  0  0  0  0  0
    3.4311   -4.4346   -6.0584 H   0  0  0  0  0  0  0  0  0  0  0  0
    3.5525   -1.9703   -5.8318 H   0  0  0  0  0  0  0  0  0  0  0  0
  1  2  1  0  0  0  0
  1  5  1  0  0  0  0
  2  3  2  0  0  0  0
  3  4  2  0  0  0  0
  4 23  1  0  0  0  0
  5  6  1  1  0  0  0
  5  4  1  0  0  0  0
  6 11  2  0  0  0  0
  7  8  2  0  0  0  0
  7  6  1  0  0  0  0
  8  9  1  0  0  0  0
  9 26  1  0  0  0  0
  9 10  2  0  0  0  0
 10 27  1  0  0  0  0
 11 10  1  0  0  0  0
 11 28  1  0  0  0  0
 12 29  1  0  0  0  0
 12  2  1  0  0  0  0
 13 12  1  0  0  0  0
 14 13  2  0  0  0  0
 15 13  1  0  0  0  0
 16 15  1  0  0  0  0
 17 16  1  0  0  0  0
 17 18  2  0  0  0  0
 18 32  1  0  0  0  0
 19 18  1  0  0  0  0
 19 33  1  0  0  0  0
 20 19  2  0  0  0  0
 21 22  2  0  0  0  0
 21 20  1  0  0  0  0
 22 17  1  0  0  0  0
 24  7  1  0  0  0  0
 25  8  1  0  0  0  0
 30 16  1  0  0  0  0
 31 16  1  0  0  0  0
 34 20  1  0  0  0  0
 35 21  1  0  0  0  0
 36 22  1  0  0  0  0
M  RAD  1   5   2
M  END
$$$$
