rmsd247.gzmat
 OpenBabel08211713383D

 43 45  0  0  1  0  0  0  0  0999 V2000
    0.0000    0.0000    0.0000 O   0  0  0  0  0  0  0  0  0  0  0  0
    1.1998    0.0000    0.0000 C   0  0  0  0  0  0  0  0  0  0  0  0
    1.9117    0.0000    1.1788 O   0  0  0  0  0  0  0  0  0  0  0  0
    3.3242    0.0686    0.9350 C   0  0  2  0  0  0  0  0  0  0  0  0
    3.7418   -0.8132    1.4601 H   0  0  0  0  0  0  0  0  0  0  0  0
    3.8151    1.4020    1.5312 C   0  0  0  0  0  0  0  0  0  0  0  0
    3.4400    1.5998    2.9380 N   0  0  0  0  0  0  0  0  0  0  0  0
    4.1934    0.7327    3.8644 C   0  0  0  0  0  0  0  0  0  0  0  0
    3.4859   -0.0081   -0.6024 C   0  0  0  0  0  0  0  0  0  0  0  0
    2.0906   -0.0524   -1.0755 N   0  0  0  0  0  0  0  0  0  0  0  0
    1.7603    0.1516   -2.4320 C   0  0  0  0  0  0  0  0  0  0  0  0
    0.4184    0.2483   -2.8321 C   0  0  0  0  0  0  0  0  0  0  0  0
    0.0991    0.4267   -4.1731 C   0  0  0  0  0  0  0  0  0  0  0  0
    1.1254    0.5091   -5.1120 C   0  0  0  0  0  0  0  0  0  0  0  0
    2.4694    0.4011   -4.7331 C   0  0  0  0  0  0  0  0  0  0  0  0
    2.7840    0.2210   -3.3943 C   0  0  0  0  0  0  0  0  0  0  0  0
    0.9704    0.6876   -6.4568 O   0  0  0  0  0  0  0  0  0  0  0  0
   -0.3461    0.8721   -6.9543 C   0  0  0  0  0  0  0  0  0  0  0  0
   -1.1358   -0.4011   -6.9638 C   0  0  0  0  0  0  0  0  0  0  0  0
   -0.4896   -1.6360   -6.8899 C   0  0  0  0  0  0  0  0  0  0  0  0
   -1.2279   -2.8182   -6.9059 C   0  0  0  0  0  0  0  0  0  0  0  0
   -2.6183   -2.7778   -7.0072 C   0  0  0  0  0  0  0  0  0  0  0  0
   -3.2331   -1.5356   -7.0896 C   0  0  0  0  0  0  0  0  0  0  0  0
   -2.5275   -0.3410   -7.0689 C   0  0  0  0  0  0  0  0  0  0  0  0
   -4.9396   -1.4725   -7.2219 Cl  0  0  0  0  0  0  0  0  0  0  0  0
    3.3761    2.2572    0.9622 H   0  0  0  0  0  0  0  0  0  0  0  0
    4.9180    1.4832    1.4235 H   0  0  0  0  0  0  0  0  0  0  0  0
    2.4325    1.4635    3.0542 H   0  0  0  0  0  0  0  0  0  0  0  0
    5.2719    0.9389    3.7730 H   0  0  0  0  0  0  0  0  0  0  0  0
    4.0278   -0.3452    3.7237 H   0  0  0  0  0  0  0  0  0  0  0  0
    3.8996    0.9939    4.8964 H   0  0  0  0  0  0  0  0  0  0  0  0
    4.0324    0.8661   -1.0136 H   0  0  0  0  0  0  0  0  0  0  0  0
    4.0234   -0.9280   -0.9185 H   0  0  0  0  0  0  0  0  0  0  0  0
   -0.3930    0.1802   -2.1002 H   0  0  0  0  0  0  0  0  0  0  0  0
   -0.9461    0.4861   -4.4708 H   0  0  0  0  0  0  0  0  0  0  0  0
    3.2498    0.4588   -5.4889 H   0  0  0  0  0  0  0  0  0  0  0  0
    3.8287    0.1292   -3.1098 H   0  0  0  0  0  0  0  0  0  0  0  0
   -0.1304    1.2153   -7.9919 H   0  0  0  0  0  0  0  0  0  0  0  0
   -0.8490    1.6923   -6.4082 H   0  0  0  0  0  0  0  0  0  0  0  0
    0.5993   -1.6734   -6.8142 H   0  0  0  0  0  0  0  0  0  0  0  0
   -0.7172   -3.7787   -6.8384 H   0  0  0  0  0  0  0  0  0  0  0  0
   -3.1996   -3.6989   -7.0204 H   0  0  0  0  0  0  0  0  0  0  0  0
   -3.0418    0.6167   -7.1327 H   0  0  0  0  0  0  0  0  0  0  0  0
  2  1  2  0  0  0  0
  2  3  1  0  0  0  0
  4  3  1  0  0  0  0
  4  5  1  1  0  0  0
  4  6  1  0  0  0  0
  6  7  1  0  0  0  0
  7 28  1  0  0  0  0
  7  8  1  0  0  0  0
  8 31  1  0  0  0  0
  9  4  1  0  0  0  0
 10  9  1  0  0  0  0
 10  2  1  0  0  0  0
 11 10  1  0  0  0  0
 12 11  1  0  0  0  0
 12 34  1  0  0  0  0
 13 12  2  0  0  0  0
 14 15  2  0  0  0  0
 14 13  1  0  0  0  0
 15 16  1  0  0  0  0
 16 37  1  0  0  0  0
 16 11  2  0  0  0  0
 17 14  1  0  0  0  0
 18 17  1  0  0  0  0
 18 39  1  0  0  0  0
 19 18  1  0  0  0  0
 19 20  2  0  0  0  0
 20 40  1  0  0  0  0
 21 20  1  0  0  0  0
 21 41  1  0  0  0  0
 22 21  2  0  0  0  0
 23 24  2  0  0  0  0
 23 22  1  0  0  0  0
 24 19  1  0  0  0  0
 25 23  1  0  0  0  0
 26  6  1  0  0  0  0
 27  6  1  0  0  0  0
 29  8  1  0  0  0  0
 30  8  1  0  0  0  0
 32  9  1  0  0  0  0
 33  9  1  0  0  0  0
 35 13  1  0  0  0  0
 36 15  1  0  0  0  0
 38 18  1  0  0  0  0
 42 22  1  0  0  0  0
 43 24  1  0  0  0  0
M  END
$$$$
