rmsd236.gzmat
 OpenBabel08211713383D

 43 45  0  0  1  0  0  0  0  0999 V2000
    0.0000    0.0000    0.0000 O   0  0  0  0  0  0  0  0  0  0  0  0
    1.1995    0.0000    0.0000 C   0  0  0  0  0  0  0  0  0  0  0  0
    1.9161    0.0000    1.1753 O   0  0  0  0  0  0  0  0  0  0  0  0
    3.3278    0.0761    0.9241 C   0  0  2  0  0  0  0  0  0  0  0  0
    3.7542   -0.7882    1.4703 H   0  0  0  0  0  0  0  0  0  0  0  0
    3.8056    1.4269    1.4881 C   0  0  0  0  0  0  0  0  0  0  0  0
    3.4705    1.6250    2.9048 N   0  0  0  0  0  0  0  0  0  0  0  0
    4.2706    0.7805    3.8128 C   0  0  0  0  0  0  0  0  0  0  0  0
    3.4823   -0.0373   -0.6110 C   0  0  0  0  0  0  0  0  0  0  0  0
    2.0871    0.0427   -1.0813 N   0  0  0  0  0  0  0  0  0  0  0  0
    1.7374   -0.2459   -2.4188 C   0  0  0  0  0  0  0  0  0  0  0  0
    0.4071   -0.0572   -2.8451 C   0  0  0  0  0  0  0  0  0  0  0  0
    0.0578   -0.3189   -4.1574 C   0  0  0  0  0  0  0  0  0  0  0  0
    1.0440   -0.7614   -5.0540 C   0  0  0  0  0  0  0  0  0  0  0  0
    2.3638   -0.9348   -4.6539 C   0  0  0  0  0  0  0  0  0  0  0  0
    2.7104   -0.6752   -3.3291 C   0  0  0  0  0  0  0  0  0  0  0  0
    0.5539   -0.9685   -6.3114 O   0  0  0  0  0  0  0  0  0  0  0  0
    1.4176   -1.5527   -7.2733 C   0  0  0  0  0  0  0  0  0  0  0  0
    2.4586   -0.5948   -7.7674 C   0  0  0  0  0  0  0  0  0  0  0  0
    3.5892   -1.0866   -8.4239 C   0  0  0  0  0  0  0  0  0  0  0  0
    4.5611   -0.2089   -8.9002 C   0  0  0  0  0  0  0  0  0  0  0  0
    4.4184    1.1662   -8.7178 C   0  0  0  0  0  0  0  0  0  0  0  0
    3.2867    1.6257   -8.0572 C   0  0  0  0  0  0  0  0  0  0  0  0
    2.2955    0.7781   -7.5830 C   0  0  0  0  0  0  0  0  0  0  0  0
    3.1070    3.3086   -7.8126 Cl  0  0  0  0  0  0  0  0  0  0  0  0
    3.3214    2.2622    0.9249 H   0  0  0  0  0  0  0  0  0  0  0  0
    4.9008    1.5392    1.3409 H   0  0  0  0  0  0  0  0  0  0  0  0
    2.4703    1.4661    3.0521 H   0  0  0  0  0  0  0  0  0  0  0  0
    5.3403    1.0145    3.6915 H   0  0  0  0  0  0  0  0  0  0  0  0
    4.1287   -0.3019    3.6812 H   0  0  0  0  0  0  0  0  0  0  0  0
    3.9970    1.0380    4.8513 H   0  0  0  0  0  0  0  0  0  0  0  0
    4.0751    0.7950   -1.0465 H   0  0  0  0  0  0  0  0  0  0  0  0
    3.9667   -0.9922   -0.9035 H   0  0  0  0  0  0  0  0  0  0  0  0
   -0.3563    0.2943   -2.1440 H   0  0  0  0  0  0  0  0  0  0  0  0
   -0.9669   -0.1885   -4.5041 H   0  0  0  0  0  0  0  0  0  0  0  0
    3.1304   -1.2565   -5.3534 H   0  0  0  0  0  0  0  0  0  0  0  0
    3.7453   -0.8110   -3.0275 H   0  0  0  0  0  0  0  0  0  0  0  0
    0.6907   -1.8058   -8.0789 H   0  0  0  0  0  0  0  0  0  0  0  0
    1.8498   -2.4909   -6.8765 H   0  0  0  0  0  0  0  0  0  0  0  0
    3.7152   -2.1584   -8.5665 H   0  0  0  0  0  0  0  0  0  0  0  0
    5.4382   -0.5981   -9.4157 H   0  0  0  0  0  0  0  0  0  0  0  0
    5.1770    1.8550   -9.0871 H   0  0  0  0  0  0  0  0  0  0  0  0
    1.4101    1.1645   -7.0709 H   0  0  0  0  0  0  0  0  0  0  0  0
  2  1  2  0  0  0  0
  2  3  1  0  0  0  0
  4  3  1  0  0  0  0
  4  5  1  1  0  0  0
  4  6  1  0  0  0  0
  6  7  1  0  0  0  0
  7 28  1  0  0  0  0
  7  8  1  0  0  0  0
  8 31  1  0  0  0  0
  9  4  1  0  0  0  0
 10  9  1  0  0  0  0
 10  2  1  0  0  0  0
 11 10  1  0  0  0  0
 12 11  1  0  0  0  0
 12 34  1  0  0  0  0
 13 12  2  0  0  0  0
 14 15  2  0  0  0  0
 14 13  1  0  0  0  0
 15 16  1  0  0  0  0
 16 37  1  0  0  0  0
 16 11  2  0  0  0  0
 17 14  1  0  0  0  0
 18 39  1  0  0  0  0
 18 17  1  0  0  0  0
 19 24  1  0  0  0  0
 19 18  1  0  0  0  0
 20 19  2  0  0  0  0
 21 22  2  0  0  0  0
 21 20  1  0  0  0  0
 22 23  1  0  0  0  0
 23 25  1  0  0  0  0
 23 24  2  0  0  0  0
 24 43  1  0  0  0  0
 26  6  1  0  0  0  0
 27  6  1  0  0  0  0
 29  8  1  0  0  0  0
 30  8  1  0  0  0  0
 32  9  1  0  0  0  0
 33  9  1  0  0  0  0
 35 13  1  0  0  0  0
 36 15  1  0  0  0  0
 38 18  1  0  0  0  0
 40 20  1  0  0  0  0
 41 21  1  0  0  0  0
 42 22  1  0  0  0  0
M  END
$$$$
