43

O          0.10110       -0.29530       -0.04620
C          1.29730       -0.18680       -0.00900
O          2.01230       -0.30810        1.14510
C          3.38780        0.04370        0.93160
H          3.99920       -0.72340        1.42730
C          3.64400        1.42870        1.54220
N          3.28570        1.57640        2.93250
C          4.08520        0.81780        3.87600
C          3.55680        0.01240       -0.59460
N          2.17910        0.06930       -1.04740
C          1.83720        0.20410       -2.41210
C          0.50510        0.31600       -2.84290
C          0.20450        0.45720       -4.19860
C          1.22710        0.49760       -5.15520
C          2.55590        0.38330       -4.73060
C          2.85840        0.23710       -3.38010
O          1.03500        0.64220       -6.49900
C         -0.27390        0.82720       -6.99330
C         -1.12390       -0.42710       -6.96700
C         -0.53080       -1.69400       -7.02190
C         -1.32760       -2.84040       -7.03030
C         -2.72020       -2.74220       -6.99000
C         -3.30340       -1.47410       -6.93650
C         -2.51840       -0.31940       -6.91930
Cl        -5.04440       -1.32670       -6.87630
H          3.07670        2.16550        0.94500
H          4.71460        1.67090        1.41130
H          2.29560        1.36710        3.05000
H          5.14120        1.12960        3.80260
H          4.05690       -0.28630        3.74970
H          3.75190        1.03760        4.90200
H          4.13400        0.87970       -0.95510
H          4.06040       -0.90360       -0.95120
H         -0.29800        0.27560       -2.11160
H         -0.84240        0.51810       -4.49230
H          3.34820        0.41330       -5.48060
H          3.90510        0.14820       -3.09040
H         -0.13630        1.15670       -8.03590
H         -0.78500        1.64760       -6.45740
H          0.55700       -1.77320       -7.04700
H         -0.86070       -3.82740       -7.06680
H         -3.35190       -3.63130       -6.99390
H         -3.00220        0.65810       -6.86280
