
     RDKit          3D

 43 45  0  0  0  0  0  0  0  0999 V2000
    0.2072   -0.5999   -0.0881 O   0  0  0  0  0  0  0  0  0  0  0  0
    1.3738   -0.3131   -0.0609 C   0  0  0  0  0  0  0  0  0  0  0  0
    2.1338   -0.4268    1.0646 O   0  0  0  0  0  0  0  0  0  0  0  0
    3.4347    0.1455    0.8623 C   0  0  2  0  0  0  0  0  0  0  0  0
    4.1681   -0.5639    1.2710 H   0  0  0  0  0  0  0  0  0  0  0  0
    3.5028    1.4903    1.5993 C   0  0  0  0  0  0  0  0  0  0  0  0
    3.1711    1.4526    3.0035 N   0  0  0  0  0  0  0  0  0  0  0  0
    4.1031    0.7373    3.8548 C   0  0  0  0  0  0  0  0  0  0  0  0
    3.5586    0.2816   -0.6625 C   0  0  0  0  0  0  0  0  0  0  0  0
    2.1750    0.1679   -1.0851 N   0  0  0  0  0  0  0  0  0  0  0  0
    1.7786    0.3666   -2.4267 C   0  0  0  0  0  0  0  0  0  0  0  0
    0.4276    0.3017   -2.8257 C   0  0  0  0  0  0  0  0  0  0  0  0
    0.0813    0.5124   -4.1537 C   0  0  0  0  0  0  0  0  0  0  0  0
    1.0548    0.7951   -5.1232 C   0  0  0  0  0  0  0  0  0  0  0  0
    2.3964    0.8584   -4.7369 C   0  0  0  0  0  0  0  0  0  0  0  0
    2.7487    0.6460   -3.3997 C   0  0  0  0  0  0  0  0  0  0  0  0
    0.5984    0.9879   -6.3956 O   0  0  0  0  0  0  0  0  0  0  0  0
    1.5130    1.3372   -7.4104 C   0  0  0  0  0  0  0  0  0  0  0  0
    2.4080    0.1977   -7.8546 C   0  0  0  0  0  0  0  0  0  0  0  0
    3.6459    0.4634   -8.4532 C   0  0  0  0  0  0  0  0  0  0  0  0
    4.4529   -0.5861   -8.8984 C   0  0  0  0  0  0  0  0  0  0  0  0
    4.0417   -1.9114   -8.7431 C   0  0  0  0  0  0  0  0  0  0  0  0
    2.8080   -2.1668   -8.1383 C   0  0  0  0  0  0  0  0  0  0  0  0
    1.9878   -1.1273   -7.6969 C   0  0  0  0  0  0  0  0  0  0  0  0
    2.2816   -3.8200   -7.9278 Cl  0  0  0  0  0  0  0  0  0  0  0  0
    2.8142    2.1861    1.0864 H   0  0  0  0  0  0  0  0  0  0  0  0
    4.5213    1.9015    1.4737 H   0  0  0  0  0  0  0  0  0  0  0  0
    2.2269    1.0872    3.1173 H   0  0  0  0  0  0  0  0  0  0  0  0
    5.0990    1.2085    3.7929 H   0  0  0  0  0  0  0  0  0  0  0  0
    4.2331   -0.3421    3.6227 H   0  0  0  0  0  0  0  0  0  0  0  0
    3.7743    0.8085    4.9031 H   0  0  0  0  0  0  0  0  0  0  0  0
    3.9860    1.2568   -0.9482 H   0  0  0  0  0  0  0  0  0  0  0  0
    4.1832   -0.5092   -1.1145 H   0  0  0  0  0  0  0  0  0  0  0  0
   -0.3378    0.0770   -2.0875 H   0  0  0  0  0  0  0  0  0  0  0  0
   -0.9632    0.4642   -4.4672 H   0  0  0  0  0  0  0  0  0  0  0  0
    3.1859    1.0498   -5.4619 H   0  0  0  0  0  0  0  0  0  0  0  0
    3.8049    0.6935   -3.1363 H   0  0  0  0  0  0  0  0  0  0  0  0
    2.1259    2.2057   -7.1068 H   0  0  0  0  0  0  0  0  0  0  0  0
    0.8854    1.6626   -8.2559 H   0  0  0  0  0  0  0  0  0  0  0  0
    3.9829    1.4972   -8.5688 H   0  0  0  0  0  0  0  0  0  0  0  0
    5.4176   -0.3734   -9.3650 H   0  0  0  0  0  0  0  0  0  0  0  0
    4.6650   -2.7411   -9.0786 H   0  0  0  0  0  0  0  0  0  0  0  0
    1.0313   -1.3460   -7.2222 H   0  0  0  0  0  0  0  0  0  0  0  0
  1  2  2  0
  2  3  1  0
  2 10  1  0
  3  4  1  0
  4  5  1  1
  4  6  1  0
  4  9  1  0
  6  7  1  0
  6 26  1  0
  6 27  1  0
  7  8  1  0
  7 28  1  0
  8 29  1  0
  8 30  1  0
  8 31  1  0
  9 10  1  0
  9 32  1  0
  9 33  1  0
 10 11  1  0
 11 12  2  0
 11 16  1  0
 12 13  1  0
 12 34  1  0
 13 14  2  0
 13 35  1  0
 14 15  1  0
 14 17  1  0
 15 16  2  0
 15 36  1  0
 16 37  1  0
 17 18  1  0
 18 19  1  0
 18 38  1  0
 18 39  1  0
 19 20  2  0
 19 24  1  0
 20 21  1  0
 20 40  1  0
 21 22  2  0
 21 41  1  0
 22 23  1  0
 22 42  1  0
 23 24  2  0
 23 25  1  0
 24 43  1  0
M  END

