rmsd160.gzmat
 OpenBabel08211713383D

 43 45  0  0  1  0  0  0  0  0999 V2000
    0.0000    0.0000    0.0000 O   0  0  0  0  0  0  0  0  0  0  0  0
    1.2011    0.0000    0.0000 C   0  0  0  0  0  0  0  0  0  0  0  0
    1.9143    0.0000    1.1781 O   0  0  0  0  0  0  0  0  0  0  0  0
    3.3285    0.0476    0.9315 C   0  0  2  0  0  0  0  0  0  0  0  0
    3.7400   -0.8566    1.4215 H   0  0  0  0  0  0  0  0  0  0  0  0
    3.8343    1.3477    1.5840 C   0  0  0  0  0  0  0  0  0  0  0  0
    5.2922    1.4216    1.3584 N   0  0  0  0  0  0  0  0  0  0  0  0
    6.0601    0.6953    2.3896 C   0  0  0  0  0  0  0  0  0  0  0  0
    3.4872    0.0237   -0.6076 C   0  0  0  0  0  0  0  0  0  0  0  0
    2.0894   -0.0131   -1.0748 N   0  0  0  0  0  0  0  0  0  0  0  0
    1.7523    0.0017   -2.4415 C   0  0  0  0  0  0  0  0  0  0  0  0
    0.4056   -0.0992   -2.8440 C   0  0  0  0  0  0  0  0  0  0  0  0
    0.0808   -0.0857   -4.1888 C   0  0  0  0  0  0  0  0  0  0  0  0
    1.1049    0.0278   -5.1417 C   0  0  0  0  0  0  0  0  0  0  0  0
    2.4392    0.1202   -4.7631 C   0  0  0  0  0  0  0  0  0  0  0  0
    2.7629    0.1066   -3.4078 C   0  0  0  0  0  0  0  0  0  0  0  0
    0.6332    0.0152   -6.4238 O   0  0  0  0  0  0  0  0  0  0  0  0
    1.5446    0.3194   -7.4678 C   0  0  0  0  0  0  0  0  0  0  0  0
    2.4728   -0.8196   -7.7617 C   0  0  0  0  0  0  0  0  0  0  0  0
    2.1285   -2.1220   -7.3963 C   0  0  0  0  0  0  0  0  0  0  0  0
    2.9879   -3.1820   -7.6797 C   0  0  0  0  0  0  0  0  0  0  0  0
    4.1972   -2.9516   -8.3349 C   0  0  0  0  0  0  0  0  0  0  0  0
    4.5099   -1.6465   -8.6911 C   0  0  0  0  0  0  0  0  0  0  0  0
    3.6779   -0.5695   -8.4207 C   0  0  0  0  0  0  0  0  0  0  0  0
    5.9896   -1.3489   -9.5004 Cl  0  0  0  0  0  0  0  0  0  0  0  0
    3.5389    1.3630    2.6558 H   0  0  0  0  0  0  0  0  0  0  0  0
    3.3347    2.2232    1.1137 H   0  0  0  0  0  0  0  0  0  0  0  0
    5.5996    2.3918    1.3068 H   0  0  0  0  0  0  0  0  0  0  0  0
    5.7636   -0.3664    2.3988 H   0  0  0  0  0  0  0  0  0  0  0  0
    5.9446    1.0943    3.4084 H   0  0  0  0  0  0  0  0  0  0  0  0
    7.1296    0.7320    2.1194 H   0  0  0  0  0  0  0  0  0  0  0  0
    4.0222    0.9230   -0.9827 H   0  0  0  0  0  0  0  0  0  0  0  0
    4.0458   -0.8699   -0.9539 H   0  0  0  0  0  0  0  0  0  0  0  0
   -0.3940   -0.1863   -2.1021 H   0  0  0  0  0  0  0  0  0  0  0  0
   -0.9554   -0.1595   -4.5168 H   0  0  0  0  0  0  0  0  0  0  0  0
    3.2331    0.1911   -5.5020 H   0  0  0  0  0  0  0  0  0  0  0  0
    3.8094    0.1783   -3.1216 H   0  0  0  0  0  0  0  0  0  0  0  0
    2.0743    1.2653   -7.2485 H   0  0  0  0  0  0  0  0  0  0  0  0
    0.8427    0.4894   -8.3161 H   0  0  0  0  0  0  0  0  0  0  0  0
    1.1838   -2.3066   -6.8795 H   0  0  0  0  0  0  0  0  0  0  0  0
    2.7140   -4.1961   -7.3885 H   0  0  0  0  0  0  0  0  0  0  0  0
    4.8721   -3.7771   -8.5573 H   0  0  0  0  0  0  0  0  0  0  0  0
    3.9541    0.4426   -8.7129 H   0  0  0  0  0  0  0  0  0  0  0  0
  1  2  2  0  0  0  0
  2  3  1  0  0  0  0
  4  3  1  0  0  0  0
  4  5  1  1  0  0  0
  4  6  1  0  0  0  0
  6 26  1  0  0  0  0
  7  6  1  0  0  0  0
  7  8  1  0  0  0  0
  8 29  1  0  0  0  0
  8 30  1  0  0  0  0
  9  4  1  0  0  0  0
 10  9  1  0  0  0  0
 10  2  1  0  0  0  0
 11 10  1  0  0  0  0
 12 11  1  0  0  0  0
 12 34  1  0  0  0  0
 13 12  2  0  0  0  0
 14 15  2  0  0  0  0
 14 13  1  0  0  0  0
 15 16  1  0  0  0  0
 16 37  1  0  0  0  0
 16 11  2  0  0  0  0
 17 14  1  0  0  0  0
 18 38  1  0  0  0  0
 18 17  1  0  0  0  0
 19 18  1  0  0  0  0
 19 20  2  0  0  0  0
 20 40  1  0  0  0  0
 21 20  1  0  0  0  0
 21 41  1  0  0  0  0
 22 21  2  0  0  0  0
 23 24  2  0  0  0  0
 23 22  1  0  0  0  0
 24 19  1  0  0  0  0
 25 23  1  0  0  0  0
 27  6  1  0  0  0  0
 28  7  1  0  0  0  0
 31  8  1  0  0  0  0
 32  9  1  0  0  0  0
 33  9  1  0  0  0  0
 35 13  1  0  0  0  0
 36 15  1  0  0  0  0
 39 18  1  0  0  0  0
 42 22  1  0  0  0  0
 43 24  1  0  0  0  0
M  END
$$$$
