43

O         -0.00790       -0.35050        0.11910
C          1.15750       -0.05960        0.14810
O          1.86990        0.01220        1.30630
C          3.26030        0.25200        1.04480
H          3.79050       -0.70360        1.19480
C          3.77170        1.31000        2.02180
N          3.61960        0.99400        3.42270
C          4.44440       -0.08870        3.92420
C          3.30720        0.66800       -0.43210
N          2.00160        0.25050       -0.90790
C          1.62820        0.34820       -2.26690
C          2.51740        0.91740       -3.18950
C          2.18990        1.02050       -4.54580
C          0.95640        0.54890       -5.00340
C          0.06240       -0.01860       -4.08320
C          0.38470       -0.12290       -2.73660
O          0.53570        0.59350       -6.30140
C          1.40390        1.10160       -7.29010
C          1.57940        2.60620       -7.23970
C          0.57380        3.42550       -6.71290
C          0.73460        4.81220       -6.70190
C          1.89180        5.40120       -7.21690
C          2.88970        4.57610       -7.74060
C          2.74510        3.18710       -7.75180
Cl         4.35190        5.28980       -8.38140
H          3.23150        2.24890        1.80520
H          4.83890        1.49690        1.80240
H          2.63580        0.82460        3.62630
H          5.51030        0.16560        3.79430
H          4.28050       -1.07840        3.44470
H          4.26960       -0.21570        5.00370
H          3.44460        1.76010       -0.54760
H          4.11810        0.16480       -0.98040
H          3.48400        1.30310       -2.86670
H          2.90290        1.48990       -5.22150
H         -0.89810       -0.38340       -4.45190
H         -0.32180       -0.55880       -2.03510
H          0.93750        0.81750       -8.24730
H          2.38800        0.60000       -7.24600
H         -0.32780        2.96740       -6.30370
H         -0.05060        5.44760       -6.28540
H          2.02800        6.48330       -7.21190
H          3.54770        2.56680       -8.15650
