
     RDKit          3D

 43 45  0  0  0  0  0  0  0  0999 V2000
    0.1011   -0.2953   -0.0462 O   0  0  0  0  0  0  0  0  0  0  0  0
    1.2973   -0.1868   -0.0090 C   0  0  0  0  0  0  0  0  0  0  0  0
    2.0123   -0.3081    1.1451 O   0  0  0  0  0  0  0  0  0  0  0  0
    3.3878    0.0437    0.9316 C   0  0  2  0  0  0  0  0  0  0  0  0
    3.9992   -0.7234    1.4273 H   0  0  0  0  0  0  0  0  0  0  0  0
    3.6440    1.4287    1.5422 C   0  0  0  0  0  0  0  0  0  0  0  0
    3.2857    1.5764    2.9325 N   0  0  0  0  0  0  0  0  0  0  0  0
    4.0852    0.8178    3.8760 C   0  0  0  0  0  0  0  0  0  0  0  0
    3.5568    0.0124   -0.5946 C   0  0  0  0  0  0  0  0  0  0  0  0
    2.1791    0.0693   -1.0474 N   0  0  0  0  0  0  0  0  0  0  0  0
    1.8372    0.2041   -2.4121 C   0  0  0  0  0  0  0  0  0  0  0  0
    0.5051    0.3160   -2.8429 C   0  0  0  0  0  0  0  0  0  0  0  0
    0.2045    0.4572   -4.1986 C   0  0  0  0  0  0  0  0  0  0  0  0
    1.2271    0.4976   -5.1552 C   0  0  0  0  0  0  0  0  0  0  0  0
    2.5559    0.3833   -4.7306 C   0  0  0  0  0  0  0  0  0  0  0  0
    2.8584    0.2371   -3.3801 C   0  0  0  0  0  0  0  0  0  0  0  0
    1.0350    0.6422   -6.4990 O   0  0  0  0  0  0  0  0  0  0  0  0
   -0.2739    0.8272   -6.9933 C   0  0  0  0  0  0  0  0  0  0  0  0
   -1.1239   -0.4271   -6.9670 C   0  0  0  0  0  0  0  0  0  0  0  0
   -0.5308   -1.6940   -7.0219 C   0  0  0  0  0  0  0  0  0  0  0  0
   -1.3276   -2.8404   -7.0303 C   0  0  0  0  0  0  0  0  0  0  0  0
   -2.7202   -2.7422   -6.9900 C   0  0  0  0  0  0  0  0  0  0  0  0
   -3.3034   -1.4741   -6.9365 C   0  0  0  0  0  0  0  0  0  0  0  0
   -2.5184   -0.3194   -6.9193 C   0  0  0  0  0  0  0  0  0  0  0  0
   -5.0444   -1.3267   -6.8763 Cl  0  0  0  0  0  0  0  0  0  0  0  0
    3.0767    2.1655    0.9450 H   0  0  0  0  0  0  0  0  0  0  0  0
    4.7146    1.6709    1.4113 H   0  0  0  0  0  0  0  0  0  0  0  0
    2.2956    1.3671    3.0500 H   0  0  0  0  0  0  0  0  0  0  0  0
    5.1412    1.1296    3.8026 H   0  0  0  0  0  0  0  0  0  0  0  0
    4.0569   -0.2863    3.7497 H   0  0  0  0  0  0  0  0  0  0  0  0
    3.7519    1.0376    4.9020 H   0  0  0  0  0  0  0  0  0  0  0  0
    4.1340    0.8797   -0.9551 H   0  0  0  0  0  0  0  0  0  0  0  0
    4.0604   -0.9036   -0.9512 H   0  0  0  0  0  0  0  0  0  0  0  0
   -0.2980    0.2756   -2.1116 H   0  0  0  0  0  0  0  0  0  0  0  0
   -0.8424    0.5181   -4.4923 H   0  0  0  0  0  0  0  0  0  0  0  0
    3.3482    0.4133   -5.4806 H   0  0  0  0  0  0  0  0  0  0  0  0
    3.9051    0.1482   -3.0904 H   0  0  0  0  0  0  0  0  0  0  0  0
   -0.1363    1.1567   -8.0359 H   0  0  0  0  0  0  0  0  0  0  0  0
   -0.7850    1.6476   -6.4574 H   0  0  0  0  0  0  0  0  0  0  0  0
    0.5570   -1.7732   -7.0470 H   0  0  0  0  0  0  0  0  0  0  0  0
   -0.8607   -3.8274   -7.0668 H   0  0  0  0  0  0  0  0  0  0  0  0
   -3.3519   -3.6313   -6.9939 H   0  0  0  0  0  0  0  0  0  0  0  0
   -3.0022    0.6581   -6.8628 H   0  0  0  0  0  0  0  0  0  0  0  0
  1  2  2  0
  2  3  1  0
  2 10  1  0
  3  4  1  0
  4  5  1  1
  4  6  1  0
  4  9  1  0
  6  7  1  0
  6 26  1  0
  6 27  1  0
  7  8  1  0
  7 28  1  0
  8 29  1  0
  8 30  1  0
  8 31  1  0
  9 10  1  0
  9 32  1  0
  9 33  1  0
 10 11  1  0
 11 12  2  0
 11 16  1  0
 12 13  1  0
 12 34  1  0
 13 14  2  0
 13 35  1  0
 14 15  1  0
 14 17  1  0
 15 16  2  0
 15 36  1  0
 16 37  1  0
 17 18  1  0
 18 19  1  0
 18 38  1  0
 18 39  1  0
 19 20  2  0
 19 24  1  0
 20 21  1  0
 20 40  1  0
 21 22  2  0
 21 41  1  0
 22 23  1  0
 22 42  1  0
 23 24  2  0
 23 25  1  0
 24 43  1  0
M  END

