43
rmsd236.gzmat
O          0.00000        0.00000        0.00000
C          1.19950        0.00000        0.00000
O          1.91610        0.00000        1.17530
C          3.32780        0.07610        0.92410
H          3.75420       -0.78820        1.47030
C          3.80560        1.42690        1.48810
N          3.47050        1.62500        2.90480
C          4.27060        0.78050        3.81280
C          3.48230       -0.03730       -0.61100
N          2.08710        0.04270       -1.08130
C          1.73740       -0.24590       -2.41880
C          0.40710       -0.05720       -2.84510
C          0.05780       -0.31890       -4.15740
C          1.04400       -0.76140       -5.05400
C          2.36380       -0.93480       -4.65390
C          2.71040       -0.67520       -3.32910
O          0.55390       -0.96850       -6.31140
C          1.41760       -1.55270       -7.27330
C          2.45860       -0.59480       -7.76740
C          3.58920       -1.08660       -8.42390
C          4.56110       -0.20890       -8.90020
C          4.41840        1.16620       -8.71780
C          3.28670        1.62570       -8.05720
C          2.29550        0.77810       -7.58300
Cl         3.10700        3.30860       -7.81260
H          3.32140        2.26220        0.92490
H          4.90080        1.53920        1.34090
H          2.47030        1.46610        3.05210
H          5.34030        1.01450        3.69150
H          4.12870       -0.30190        3.68120
H          3.99700        1.03800        4.85130
H          4.07510        0.79500       -1.04650
H          3.96670       -0.99220       -0.90350
H         -0.35630        0.29430       -2.14400
H         -0.96690       -0.18850       -4.50410
H          3.13040       -1.25650       -5.35340
H          3.74530       -0.81100       -3.02750
H          0.69070       -1.80580       -8.07890
H          1.84980       -2.49090       -6.87650
H          3.71520       -2.15840       -8.56650
H          5.43820       -0.59810       -9.41570
H          5.17700        1.85500       -9.08710
H          1.41010        1.16450       -7.07090
