43

O          0.21530       -0.80370        0.06080
C          1.39450       -0.57110        0.04650
O          2.19390       -0.75290        1.13690
C          3.50040       -0.22340        0.89320
H          4.23090       -0.94770        1.28020
C          3.64190        1.12080        1.61460
N          4.95690        1.69610        1.40480
C          6.00030        1.18750        2.27800
C          3.58200       -0.08810       -0.63120
N          2.17560       -0.09690       -0.99640
C          1.73480        0.16590       -2.31150
C          0.36710        0.17800       -2.65590
C         -0.02210        0.45480       -3.96000
C          0.92390        0.72860       -4.95870
C          2.28110        0.72320       -4.62490
C          2.67690        0.44020       -3.31330
O          0.42670        0.98360       -6.20530
C          1.32270        1.20940       -7.27030
C          2.01070        2.55900       -7.21820
C          1.40030        3.64720       -6.58290
C          2.02890        4.89360       -6.57050
C          3.26700        5.07530       -7.19110
C          3.86860        3.98420       -7.82230
C          3.25420        2.73030       -7.83700
Cl         5.42380        4.18500       -8.59690
H          3.38530        0.96600        2.68390
H          2.88330        1.80190        1.19580
H          4.91040        2.70940        1.46480
H          6.18860        0.12050        2.07590
H          5.76830        1.27890        3.36140
H          6.94280        1.72100        2.08250
H          4.08660        0.84940       -0.90620
H          4.12320       -0.92470       -1.10800
H         -0.37720       -0.04210       -1.89500
H         -1.07920        0.46040       -4.23230
H          3.04720        0.95200       -5.36400
H          3.74260        0.44610       -3.08700
H          0.70200        1.14860       -8.17890
H          2.07270        0.39990       -7.33380
H          0.43660        3.50540       -6.09160
H          1.55100        5.73900       -6.06970
H          3.76740        6.04440       -7.18620
H          3.75450        1.89260       -8.32770
