43
rmsd7.gzmat
O          0.00000        0.00000        0.00000
C          1.19980        0.00000        0.00000
O          1.91750        0.00000        1.17440
C          3.33020        0.04650        0.92210
H          3.73250       -0.86270        1.41130
C          3.85430        1.34460        1.56470
N          3.46850        1.51150        2.97260
C          4.16890        0.58220        3.87980
C          3.48230        0.02610       -0.61860
N          2.08560       -0.05390       -1.07940
C          1.72560        0.14870       -2.42940
C          2.66560        0.61360       -3.35660
C          2.30650        0.78040       -4.69310
C          1.00740        0.47960       -5.08750
C          0.05290        0.01050       -4.17070
C          0.41490       -0.15850       -2.84650
O          0.51090        0.57700       -6.35530
C          1.32350        1.19250       -7.34360
C          1.54340        2.64850       -7.06820
C          0.61270        3.36370       -6.31200
C          0.81730        4.71440       -6.03740
C          1.94920        5.36590       -6.52640
C          2.85040        4.63240       -7.28650
C          2.67870        3.28510       -7.57180
Cl         4.24400        5.42220       -7.89250
H          3.45010        2.23040        1.01740
H          4.96060        1.39290        1.47130
H          2.45460        1.41440        3.07090
H          5.25590        0.75290        3.82180
H          3.96990       -0.48290        3.69250
H          3.85750        0.81360        4.91390
H          3.99640        0.93270       -1.00120
H          4.04830       -0.86080       -0.97450
H          3.68220        0.85360       -3.05630
H          3.04070        1.15350       -5.40140
H         -0.95700       -0.21550       -4.51110
H         -0.32190       -0.53010       -2.12790
H          0.69540        1.04430       -8.25170
H          2.26360        0.62320       -7.46440
H         -0.27520        2.85620       -5.92730
H          0.09180        5.26280       -5.43620
H          2.11660        6.42090       -6.31360
H          3.40690        2.73860       -8.16930
