rmsd151.gzmat
 OpenBabel08211713383D

 43 45  0  0  1  0  0  0  0  0999 V2000
    0.0000    0.0000    0.0000 O   0  0  0  0  0  0  0  0  0  0  0  0
    1.2006    0.0000    0.0000 C   0  0  0  0  0  0  0  0  0  0  0  0
    1.9143    0.0000    1.1784 O   0  0  0  0  0  0  0  0  0  0  0  0
    3.3280    0.0481    0.9297 C   0  0  2  0  0  0  0  0  0  0  0  0
    3.7409   -0.8478    1.4325 H   0  0  0  0  0  0  0  0  0  0  0  0
    3.8301    1.3623    1.5594 C   0  0  0  0  0  0  0  0  0  0  0  0
    5.2335    1.5618    1.1437 N   0  0  0  0  0  0  0  0  0  0  0  0
    6.1853    0.8166    1.9910 C   0  0  0  0  0  0  0  0  0  0  0  0
    3.4846    0.0052   -0.6087 C   0  0  0  0  0  0  0  0  0  0  0  0
    2.0875   -0.0525   -1.0773 N   0  0  0  0  0  0  0  0  0  0  0  0
    1.7488    0.1563   -2.4298 C   0  0  0  0  0  0  0  0  0  0  0  0
    2.7495    0.4476   -3.3667 C   0  0  0  0  0  0  0  0  0  0  0  0
    2.4246    0.6179   -4.7107 C   0  0  0  0  0  0  0  0  0  0  0  0
    1.0978    0.4938   -5.1072 C   0  0  0  0  0  0  0  0  0  0  0  0
    0.0823    0.2013   -4.1833 C   0  0  0  0  0  0  0  0  0  0  0  0
    0.4097    0.0311   -2.8497 C   0  0  0  0  0  0  0  0  0  0  0  0
    0.6277    0.6163   -6.3839 O   0  0  0  0  0  0  0  0  0  0  0  0
    1.5407    1.0284   -7.3891 C   0  0  0  0  0  0  0  0  0  0  0  0
    2.5118   -0.0536   -7.7520 C   0  0  0  0  0  0  0  0  0  0  0  0
    2.1727   -1.3939   -7.5587 C   0  0  0  0  0  0  0  0  0  0  0  0
    3.0691   -2.4031   -7.9048 C   0  0  0  0  0  0  0  0  0  0  0  0
    4.3104   -2.0826   -8.4539 C   0  0  0  0  0  0  0  0  0  0  0  0
    4.6195   -0.7416   -8.6358 C   0  0  0  0  0  0  0  0  0  0  0  0
    3.7513    0.2868   -8.2977 C   0  0  0  0  0  0  0  0  0  0  0  0
    6.1423   -0.3342   -9.3059 Cl  0  0  0  0  0  0  0  0  0  0  0  0
    3.6836    1.3283    2.6600 H   0  0  0  0  0  0  0  0  0  0  0  0
    3.2094    2.2094    1.1891 H   0  0  0  0  0  0  0  0  0  0  0  0
    5.4675    2.5537    1.1345 H   0  0  0  0  0  0  0  0  0  0  0  0
    5.9651   -0.2622    1.9406 H   0  0  0  0  0  0  0  0  0  0  0  0
    6.1885    1.1194    3.0485 H   0  0  0  0  0  0  0  0  0  0  0  0
    7.2012    0.9586    1.5842 H   0  0  0  0  0  0  0  0  0  0  0  0
    4.0246    0.9000   -0.9906 H   0  0  0  0  0  0  0  0  0  0  0  0
    4.0401   -0.8928   -0.9487 H   0  0  0  0  0  0  0  0  0  0  0  0
    3.7910    0.5442   -3.0671 H   0  0  0  0  0  0  0  0  0  0  0  0
    3.2125    0.8330   -5.4274 H   0  0  0  0  0  0  0  0  0  0  0  0
   -0.9480    0.1108   -4.5252 H   0  0  0  0  0  0  0  0  0  0  0  0
   -0.3795   -0.2027   -2.1286 H   0  0  0  0  0  0  0  0  0  0  0  0
    2.0324    1.9731   -7.0910 H   0  0  0  0  0  0  0  0  0  0  0  0
    0.8437    1.2375   -8.2327 H   0  0  0  0  0  0  0  0  0  0  0  0
    1.2015   -1.6473   -7.1271 H   0  0  0  0  0  0  0  0  0  0  0  0
    2.7992   -3.4473   -7.7484 H   0  0  0  0  0  0  0  0  0  0  0  0
    5.0133   -2.8681   -8.7286 H   0  0  0  0  0  0  0  0  0  0  0  0
    4.0262    1.3291   -8.4530 H   0  0  0  0  0  0  0  0  0  0  0  0
  1  2  2  0  0  0  0
  2  3  1  0  0  0  0
  4  3  1  0  0  0  0
  4  5  1  1  0  0  0
  4  6  1  0  0  0  0
  6 26  1  0  0  0  0
  7  6  1  0  0  0  0
  7  8  1  0  0  0  0
  8 30  1  0  0  0  0
  9  4  1  0  0  0  0
 10  9  1  0  0  0  0
 10  2  1  0  0  0  0
 11 10  1  0  0  0  0
 12 34  1  0  0  0  0
 12 11  2  0  0  0  0
 13 12  1  0  0  0  0
 14 13  2  0  0  0  0
 14 15  1  0  0  0  0
 15 16  2  0  0  0  0
 16 11  1  0  0  0  0
 16 37  1  0  0  0  0
 17 14  1  0  0  0  0
 18 38  1  0  0  0  0
 18 17  1  0  0  0  0
 19 20  1  0  0  0  0
 19 18  1  0  0  0  0
 20 40  1  0  0  0  0
 21 41  1  0  0  0  0
 21 20  2  0  0  0  0
 22 21  1  0  0  0  0
 23 22  2  0  0  0  0
 23 24  1  0  0  0  0
 24 19  2  0  0  0  0
 25 23  1  0  0  0  0
 27  6  1  0  0  0  0
 28  7  1  0  0  0  0
 29  8  1  0  0  0  0
 31  8  1  0  0  0  0
 32  9  1  0  0  0  0
 33  9  1  0  0  0  0
 35 13  1  0  0  0  0
 36 15  1  0  0  0  0
 39 18  1  0  0  0  0
 42 22  1  0  0  0  0
 43 24  1  0  0  0  0
M  END
$$$$
