15
rmsd235.gzmat
C          0.00000        0.00000        0.00000
O          1.19720        0.00000        0.00000
C         -0.87680        0.00000       -1.26290
O         -2.08790       -0.02310       -1.16370
N         -0.20300       -0.02530       -2.44820
C         -0.94010        0.03300       -3.70400
C         -0.60840        1.31800       -4.43200
O          0.30520        2.06880       -4.22860
O         -1.50740        1.52050       -5.42300
O         -0.69930       -0.00040        1.14700
H          0.80660        0.09600       -2.49010
H         -2.04940       -0.04120       -3.52640
H         -0.67420       -0.84300       -4.34890
H         -1.35290        2.35060       -5.94360
H         -1.69190       -0.00290        1.00630
