15
rmsd152.gzmat
C          0.00000        0.00000        0.00000
O          1.19710        0.00000        0.00000
C         -0.87660        0.00000       -1.26310
O         -2.08770        0.01740       -1.16470
N         -0.20190        0.03480       -2.44780
C         -0.93600       -0.03010       -3.70510
C         -0.59170       -1.31100       -4.43330
O          0.24600       -2.12260       -4.15220
O         -1.37550       -1.43100       -5.53010
O         -0.69900        0.00040        1.14700
H          0.80810       -0.08220       -2.48760
H         -0.68230        0.85230       -4.34580
H         -2.04650        0.02920       -3.52990
H         -1.20260       -2.25300       -6.05770
H         -1.69170       -0.00130        1.00620
