
     RDKit          3D

 15 14  0  0  0  0  0  0  0  0999 V2000
    0.0354   -0.0544    0.0269 C   0  0  0  0  0  0  0  0  0  0  0  0
    1.0726   -0.6601   -0.0315 O   0  0  0  0  0  0  0  0  0  0  0  0
   -0.9269    0.1052   -1.1681 C   0  0  0  0  0  0  0  0  0  0  0  0
   -1.9675    0.7393   -1.0253 O   0  0  0  0  0  0  0  0  0  0  0  0
   -0.5088   -0.4916   -2.2897 N   0  0  0  0  0  0  0  0  0  0  0  0
   -1.2637   -0.4582   -3.5131 C   0  0  0  0  0  0  0  0  0  0  0  0
   -0.5164   -1.2237   -4.5831 C   0  0  0  0  0  0  0  0  0  0  0  0
    0.5443   -1.7694   -4.4122 O   0  0  0  0  0  0  0  0  0  0  0  0
   -1.1832   -1.2214   -5.7432 O   0  0  0  0  0  0  0  0  0  0  0  0
   -0.4406    0.5615    1.0996 O   0  0  0  0  0  0  0  0  0  0  0  0
    0.3808   -0.9906   -2.2785 H   0  0  0  0  0  0  0  0  0  0  0  0
   -1.4344    0.5760   -3.8609 H   0  0  0  0  0  0  0  0  0  0  0  0
   -2.2679   -0.9000   -3.3869 H   0  0  0  0  0  0  0  0  0  0  0  0
   -0.6551   -1.7271   -6.3852 H   0  0  0  0  0  0  0  0  0  0  0  0
   -1.2964    0.9541    0.8148 H   0  0  0  0  0  0  0  0  0  0  0  0
  1  2  2  0
  1  3  1  0
  1 10  1  0
  3  4  2  0
  3  5  1  0
  5  6  1  0
  5 11  1  0
  6  7  1  0
  6 12  1  0
  6 13  1  0
  7  8  2  0
  7  9  1  0
  9 14  1  0
 10 15  1  0
M  END

