rmsd128.gzmat
 OpenBabel08211713423D

 15 14  0  0  0  0  0  0  0  0999 V2000
    0.0000    0.0000    0.0000 C   0  0  0  0  0  0  0  0  0  0  0  0
    1.1973    0.0000    0.0000 O   0  0  0  0  0  0  0  0  0  0  0  0
   -0.8757    0.0000   -1.2637 C   0  0  0  0  0  0  0  0  0  0  0  0
   -2.0864   -0.0282   -1.1664 O   0  0  0  0  0  0  0  0  0  0  0  0
   -0.1986   -0.0204   -2.4480 N   0  0  0  0  0  0  0  0  0  0  0  0
   -0.9305    0.0501   -3.7060 C   0  0  0  0  0  0  0  0  0  0  0  0
   -0.6405    1.3688   -4.3914 C   0  0  0  0  0  0  0  0  0  0  0  0
    0.2467    2.1430   -4.1604 O   0  0  0  0  0  0  0  0  0  0  0  0
   -1.5416    1.5735   -5.3793 O   0  0  0  0  0  0  0  0  0  0  0  0
   -0.6980    0.0006    1.1476 O   0  0  0  0  0  0  0  0  0  0  0  0
    0.8107    0.1071   -2.4861 H   0  0  0  0  0  0  0  0  0  0  0  0
   -2.0372   -0.0696   -3.5390 H   0  0  0  0  0  0  0  0  0  0  0  0
   -0.6294   -0.7958   -4.3753 H   0  0  0  0  0  0  0  0  0  0  0  0
   -1.4050    2.4203   -5.8777 H   0  0  0  0  0  0  0  0  0  0  0  0
   -1.6906   -0.0128    1.0101 H   0  0  0  0  0  0  0  0  0  0  0  0
  1  2  2  0  0  0  0
  1 10  1  0  0  0  0
  3  4  2  0  0  0  0
  3  1  1  0  0  0  0
  5  3  1  0  0  0  0
  6 12  1  0  0  0  0
  6  5  1  0  0  0  0
  7  8  2  0  0  0  0
  7  6  1  0  0  0  0
  9  7  1  0  0  0  0
 11  5  1  0  0  0  0
 13  6  1  0  0  0  0
 14  9  1  0  0  0  0
 15 10  1  0  0  0  0
M  END
$$$$
