rmsd172.gzmat
 OpenBabel08211713423D

 15 14  0  0  0  0  0  0  0  0999 V2000
    0.0000    0.0000    0.0000 C   0  0  0  0  0  0  0  0  0  0  0  0
    1.1973    0.0000    0.0000 O   0  0  0  0  0  0  0  0  0  0  0  0
   -0.8748    0.0000   -1.2644 C   0  0  0  0  0  0  0  0  0  0  0  0
   -2.0861    0.0169   -1.1689 O   0  0  0  0  0  0  0  0  0  0  0  0
   -0.1978    0.0367   -2.4479 N   0  0  0  0  0  0  0  0  0  0  0  0
   -0.9307   -0.0225   -3.7058 C   0  0  0  0  0  0  0  0  0  0  0  0
   -0.6258   -1.3219   -4.4188 C   0  0  0  0  0  0  0  0  0  0  0  0
    0.2023   -2.1450   -4.1428 O   0  0  0  0  0  0  0  0  0  0  0  0
   -1.4351   -1.4440   -5.4967 O   0  0  0  0  0  0  0  0  0  0  0  0
   -0.7004    0.0024    1.1465 O   0  0  0  0  0  0  0  0  0  0  0  0
    0.8119   -0.0817   -2.4863 H   0  0  0  0  0  0  0  0  0  0  0  0
   -0.6493    0.8437   -4.3568 H   0  0  0  0  0  0  0  0  0  0  0  0
   -2.0393    0.0736   -3.5341 H   0  0  0  0  0  0  0  0  0  0  0  0
   -1.2940   -2.2812   -6.0103 H   0  0  0  0  0  0  0  0  0  0  0  0
   -1.6929    0.0076    1.0040 H   0  0  0  0  0  0  0  0  0  0  0  0
  1  2  2  0  0  0  0
  1 10  1  0  0  0  0
  3  4  2  0  0  0  0
  3  1  1  0  0  0  0
  5  3  1  0  0  0  0
  6 13  1  0  0  0  0
  6  5  1  0  0  0  0
  7  8  2  0  0  0  0
  7  6  1  0  0  0  0
  9  7  1  0  0  0  0
 11  5  1  0  0  0  0
 12  6  1  0  0  0  0
 14  9  1  0  0  0  0
 15 10  1  0  0  0  0
M  END
$$$$
