15
rmsd17.gzmat
C          0.00000        0.00000        0.00000
O          1.19710        0.00000        0.00000
C         -0.87760        0.00000       -1.26220
O         -2.08850        0.00770       -1.16070
N         -0.20800       -0.06110       -2.44850
C         -0.94700        0.00970       -3.70300
C         -0.55510        1.26650       -4.44980
O          0.40290        1.96520       -4.26630
O         -1.45640        1.51480       -5.42720
O         -0.69880       -0.00160        1.14710
H          0.80500        0.02720       -2.49540
H         -2.05780       -0.00900       -3.52080
H         -0.72600       -0.88850       -4.33360
H         -1.26010        2.33070       -5.95610
H         -1.69140        0.00020        1.00640
