rmsd152.gzmat
 OpenBabel08211713423D

 15 14  0  0  0  0  0  0  0  0999 V2000
    0.0000    0.0000    0.0000 C   0  0  0  0  0  0  0  0  0  0  0  0
    1.1971    0.0000    0.0000 O   0  0  0  0  0  0  0  0  0  0  0  0
   -0.8766    0.0000   -1.2631 C   0  0  0  0  0  0  0  0  0  0  0  0
   -2.0877    0.0174   -1.1647 O   0  0  0  0  0  0  0  0  0  0  0  0
   -0.2019    0.0348   -2.4478 N   0  0  0  0  0  0  0  0  0  0  0  0
   -0.9360   -0.0301   -3.7051 C   0  0  0  0  0  0  0  0  0  0  0  0
   -0.5917   -1.3110   -4.4333 C   0  0  0  0  0  0  0  0  0  0  0  0
    0.2460   -2.1226   -4.1522 O   0  0  0  0  0  0  0  0  0  0  0  0
   -1.3755   -1.4310   -5.5301 O   0  0  0  0  0  0  0  0  0  0  0  0
   -0.6990    0.0004    1.1470 O   0  0  0  0  0  0  0  0  0  0  0  0
    0.8081   -0.0822   -2.4876 H   0  0  0  0  0  0  0  0  0  0  0  0
   -0.6823    0.8523   -4.3458 H   0  0  0  0  0  0  0  0  0  0  0  0
   -2.0465    0.0292   -3.5299 H   0  0  0  0  0  0  0  0  0  0  0  0
   -1.2026   -2.2530   -6.0577 H   0  0  0  0  0  0  0  0  0  0  0  0
   -1.6917   -0.0013    1.0062 H   0  0  0  0  0  0  0  0  0  0  0  0
  1  2  2  0  0  0  0
  1 10  1  0  0  0  0
  3  4  2  0  0  0  0
  3  1  1  0  0  0  0
  5  3  1  0  0  0  0
  6 13  1  0  0  0  0
  6  5  1  0  0  0  0
  7  8  2  0  0  0  0
  7  6  1  0  0  0  0
  9  7  1  0  0  0  0
 11  5  1  0  0  0  0
 12  6  1  0  0  0  0
 14  9  1  0  0  0  0
 15 10  1  0  0  0  0
M  END
$$$$
