15
rmsd182.gzmat
C          0.00000        0.00000        0.00000
O          1.19710        0.00000        0.00000
C         -0.87810        0.00000       -1.26200
O         -2.08610       -0.08930       -1.16240
N         -0.20980        0.05930       -2.44820
C         -0.95560        0.12190       -3.69930
C         -0.59770        1.38990       -4.44280
O          0.28240        2.16870       -4.20020
O         -1.42640        1.54050       -5.50190
O         -0.69990       -0.00020        1.14700
H          0.79350        0.22100       -2.49000
H         -2.06520        0.07880       -3.51280
H         -0.72140       -0.76970       -4.33540
H         -1.24880        2.35580       -6.03780
H         -1.69220       -0.01670        1.00620
