rmsd182.gzmat
 OpenBabel08211713423D

 15 14  0  0  0  0  0  0  0  0999 V2000
    0.0000    0.0000    0.0000 C   0  0  0  0  0  0  0  0  0  0  0  0
    1.1971    0.0000    0.0000 O   0  0  0  0  0  0  0  0  0  0  0  0
   -0.8781    0.0000   -1.2620 C   0  0  0  0  0  0  0  0  0  0  0  0
   -2.0861   -0.0893   -1.1624 O   0  0  0  0  0  0  0  0  0  0  0  0
   -0.2098    0.0593   -2.4482 N   0  0  0  0  0  0  0  0  0  0  0  0
   -0.9556    0.1219   -3.6993 C   0  0  0  0  0  0  0  0  0  0  0  0
   -0.5977    1.3899   -4.4428 C   0  0  0  0  0  0  0  0  0  0  0  0
    0.2824    2.1687   -4.2002 O   0  0  0  0  0  0  0  0  0  0  0  0
   -1.4264    1.5405   -5.5019 O   0  0  0  0  0  0  0  0  0  0  0  0
   -0.6999   -0.0002    1.1470 O   0  0  0  0  0  0  0  0  0  0  0  0
    0.7935    0.2210   -2.4900 H   0  0  0  0  0  0  0  0  0  0  0  0
   -2.0652    0.0788   -3.5128 H   0  0  0  0  0  0  0  0  0  0  0  0
   -0.7214   -0.7697   -4.3354 H   0  0  0  0  0  0  0  0  0  0  0  0
   -1.2488    2.3558   -6.0378 H   0  0  0  0  0  0  0  0  0  0  0  0
   -1.6922   -0.0167    1.0062 H   0  0  0  0  0  0  0  0  0  0  0  0
  1  2  2  0  0  0  0
  1 10  1  0  0  0  0
  3  4  2  0  0  0  0
  3  1  1  0  0  0  0
  5  3  1  0  0  0  0
  6 12  1  0  0  0  0
  6  5  1  0  0  0  0
  7  8  2  0  0  0  0
  7  6  1  0  0  0  0
  9  7  1  0  0  0  0
 11  5  1  0  0  0  0
 13  6  1  0  0  0  0
 14  9  1  0  0  0  0
 15 10  1  0  0  0  0
M  END
$$$$
