rmsd58.gzmat
 OpenBabel08211713393D

 50 52  0  0  1  0  0  0  0  0999 V2000
    0.0000    0.0000    0.0000 C   0  0  0  0  0  0  0  0  0  0  0  0
    1.3564    0.0000    0.0000 N   0  0  0  0  0  0  0  0  0  0  0  0
    1.9763    0.0000    1.2140 C   0  0  0  0  0  0  0  0  0  0  0  0
    1.2654    0.0200    2.4534 C   0  0  2  0  0  0  0  0  0  0  0  0
   -0.1652   -0.1573    2.3204 C   0  0  0  0  0  0  0  0  0  0  0  0
   -0.7897   -0.1368    1.1217 N   0  0  0  0  0  0  0  0  0  0  0  0
   -1.0148   -0.3975    3.3665 N   0  0  0  0  0  0  0  0  0  0  0  0
    1.9997    0.2051    3.6566 C   0  0  0  0  0  0  0  0  0  0  0  0
    3.3811    0.1468    3.6314 C   0  0  0  0  0  0  0  0  0  0  0  0
    4.0744    0.0146    2.4014 C   0  0  0  0  0  0  0  0  0  0  0  0
    3.4031   -0.0229    1.2132 C   0  0  0  0  0  0  0  0  0  0  0  0
    4.2392    0.2521    4.8673 C   0  0  0  0  0  0  0  0  0  0  0  0
    4.7520    1.6253    5.0447 N   0  0  0  0  0  0  0  0  0  0  0  0
    4.0806    2.4964    5.9104 C   0  0  0  0  0  0  0  0  0  0  0  0
    4.0110    3.8629    5.5602 C   0  0  0  0  0  0  0  0  0  0  0  0
    3.4270    4.7595    6.4459 C   0  0  0  0  0  0  0  0  0  0  0  0
    2.8997    4.3358    7.6845 C   0  0  0  0  0  0  0  0  0  0  0  0
    2.9642    2.9766    8.0049 C   0  0  0  0  0  0  0  0  0  0  0  0
    3.5623    2.0542    7.1329 C   0  0  0  0  0  0  0  0  0  0  0  0
    2.4843    2.3771    9.1182 O   0  0  0  0  0  0  0  0  0  0  0  0
    1.7063    3.1538   10.0211 C   0  0  0  0  0  0  0  0  0  0  0  0
    2.2376    5.2107    8.5069 O   0  0  0  0  0  0  0  0  0  0  0  0
    3.1127    6.1536    9.1280 C   0  0  0  0  0  0  0  0  0  0  0  0
    3.3037    6.0916    6.2326 O   0  0  0  0  0  0  0  0  0  0  0  0
    3.7506    6.5894    4.9762 C   0  0  0  0  0  0  0  0  0  0  0  0
    1.2915    0.5191    4.9312 C   0  0  0  0  0  0  0  0  0  0  0  0
   -0.6516    0.1233   -1.1968 N   0  0  0  0  0  0  0  0  0  0  0  0
   -1.9908   -0.5467    3.1789 H   0  0  0  0  0  0  0  0  0  0  0  0
   -0.6781   -0.5995    4.2818 H   0  0  0  0  0  0  0  0  0  0  0  0
    5.1653   -0.0344    2.4165 H   0  0  0  0  0  0  0  0  0  0  0  0
    3.9137   -0.0750    0.2523 H   0  0  0  0  0  0  0  0  0  0  0  0
    5.1310   -0.4172    4.7807 H   0  0  0  0  0  0  0  0  0  0  0  0
    3.7036   -0.0991    5.7759 H   0  0  0  0  0  0  0  0  0  0  0  0
    5.0438    2.0402    4.1615 H   0  0  0  0  0  0  0  0  0  0  0  0
    4.4038    4.1922    4.6080 H   0  0  0  0  0  0  0  0  0  0  0  0
    3.6422    1.0182    7.4440 H   0  0  0  0  0  0  0  0  0  0  0  0
    1.3653    2.3973   10.7386 H   0  0  0  0  0  0  0  0  0  0  0  0
    0.8571    3.6194    9.5083 H   0  0  0  0  0  0  0  0  0  0  0  0
    2.3267    3.9089   10.5123 H   0  0  0  0  0  0  0  0  0  0  0  0
    3.9183    5.6531    9.6710 H   0  0  0  0  0  0  0  0  0  0  0  0
    2.4431    6.6855    9.8122 H   0  0  0  0  0  0  0  0  0  0  0  0
    3.5224    6.8420    8.3812 H   0  0  0  0  0  0  0  0  0  0  0  0
    3.1826    6.1404    4.1547 H   0  0  0  0  0  0  0  0  0  0  0  0
    4.8264    6.4347    4.8527 H   0  0  0  0  0  0  0  0  0  0  0  0
    3.5207    7.6598    5.0597 H   0  0  0  0  0  0  0  0  0  0  0  0
    1.9134    1.1211    5.6197 H   0  0  0  0  0  0  0  0  0  0  0  0
    1.0132   -0.3873    5.4849 H   0  0  0  0  0  0  0  0  0  0  0  0
    0.4012    1.1472    4.7724 H   0  0  0  0  0  0  0  0  0  0  0  0
   -1.6457    0.0302   -1.2342 H   0  0  0  0  0  0  0  0  0  0  0  0
   -0.1267    0.1325   -2.0480 H   0  0  0  0  0  0  0  0  0  0  0  0
  1  2  2  0  0  0  0
  1  6  2  0  0  0  0
  2  3  2  0  0  0  0
  4  3  1  6  0  0  0
  4  8  1  0  0  0  0
  5  4  1  0  0  0  0
  5  7  1  0  0  0  0
  6  5  2  0  0  0  0
  7 29  1  0  0  0  0
  8 26  1  0  0  0  0
  9  8  2  0  0  0  0
  9 12  1  0  0  0  0
 10 30  1  0  0  0  0
 10  9  1  0  0  0  0
 11  3  1  0  0  0  0
 11 10  2  0  0  0  0
 12 13  1  0  0  0  0
 12 33  1  0  0  0  0
 13 14  1  0  0  0  0
 14 19  1  0  0  0  0
 15 14  2  0  0  0  0
 15 16  1  0  0  0  0
 16 17  2  0  0  0  0
 17 18  1  0  0  0  0
 17 22  1  0  0  0  0
 18 20  1  0  0  0  0
 19 36  1  0  0  0  0
 19 18  2  0  0  0  0
 20 21  1  0  0  0  0
 21 39  1  0  0  0  0
 21 37  1  0  0  0  0
 22 23  1  0  0  0  0
 23 40  1  0  0  0  0
 23 41  1  0  0  0  0
 24 16  1  0  0  0  0
 25 45  1  0  0  0  0
 25 24  1  0  0  0  0
 26 47  1  0  0  0  0
 26 46  1  0  0  0  0
 27  1  1  0  0  0  0
 28  7  1  0  0  0  0
 31 11  1  0  0  0  0
 32 12  1  0  0  0  0
 34 13  1  0  0  0  0
 35 15  1  0  0  0  0
 38 21  1  0  0  0  0
 42 23  1  0  0  0  0
 43 25  1  0  0  0  0
 44 25  1  0  0  0  0
 48 26  1  0  0  0  0
 49 27  1  0  0  0  0
 50 27  1  0  0  0  0
M  RAD  1   4   2
M  END
$$$$
