50

C          1.20770        0.27750       -1.24220
N          2.36270        0.37040       -0.60730
C          2.31550        0.31970        0.74630
C          1.09320        0.17580        1.48860
C         -0.07600       -0.01230        0.64220
N         -0.00200        0.05640       -0.67540
N         -1.32240       -0.26980        1.13270
C          1.11470        0.20500        2.92110
C          2.34590        0.30200        3.58190
C          3.54360        0.39310        2.83280
C          3.53790        0.41730        1.45900
C          2.44670        0.28470        5.09040
N          2.03870       -1.00130        5.62160
C          2.01750       -1.27440        6.97960
C          2.15060       -0.26230        7.94220
C          2.07190       -0.57230        9.30710
C          1.89340       -1.89180        9.73910
C          1.76850       -2.91220        8.76850
C          1.83400       -2.60940        7.40770
O          1.56780       -4.16020        9.26380
C          1.43790       -5.23530        8.36600
O          1.83010       -2.19570       11.07500
C          0.51390       -2.27840       11.59580
O          2.14510        0.46090       10.19800
C          3.22920        0.43850       11.11610
C         -0.15590        0.17600        3.74300
N          1.20790        0.40690       -2.59790
H         -2.01410       -0.50860        0.43240
H         -1.45710       -0.60740        2.07130
H          4.49230        0.46220        3.37210
H          4.45400        0.51280        0.87480
H          1.80430        1.06770        5.52940
H          3.48160        0.54350        5.38990
H          2.25290       -1.78810        5.02030
H          2.30930        0.78010        7.67320
H          1.72640       -3.39200        6.65700
H          1.29180       -6.13750        8.97480
H          2.34380       -5.36390        7.74660
H          0.56780       -5.10980        7.69580
H         -0.02610       -1.32330       11.46890
H          0.60310       -2.50250       12.66860
H         -0.05760       -3.08630       11.10720
H          4.19610        0.45230       10.58080
H          3.19080       -0.44610       11.76930
H          3.14620        1.35120       11.72280
H          0.02800        0.47530        4.77970
H         -0.58500       -0.84020        3.80440
H         -0.91720        0.85070        3.32790
H          0.36650        0.17290       -3.10480
H          2.09920        0.42330       -3.07330
