rmsd138.gzmat
 OpenBabel08211713393D

 50 52  0  0  1  0  0  0  0  0999 V2000
    0.0000    0.0000    0.0000 C   0  0  0  0  0  0  0  0  0  0  0  0
    1.3569    0.0000    0.0000 N   0  0  0  0  0  0  0  0  0  0  0  0
    1.9754    0.0000    1.2145 C   0  0  0  0  0  0  0  0  0  0  0  0
    1.2569    0.0220    2.4487 C   0  0  2  0  0  0  0  0  0  0  0  0
   -0.1674   -0.1930    2.3150 C   0  0  0  0  0  0  0  0  0  0  0  0
   -0.7913   -0.1686    1.1172 N   0  0  0  0  0  0  0  0  0  0  0  0
   -0.9978   -0.4675    3.3704 N   0  0  0  0  0  0  0  0  0  0  0  0
    1.9751    0.2476    3.6525 C   0  0  0  0  0  0  0  0  0  0  0  0
    3.3578    0.1966    3.6421 C   0  0  0  0  0  0  0  0  0  0  0  0
    4.0620    0.0365    2.4223 C   0  0  0  0  0  0  0  0  0  0  0  0
    3.4018   -0.0226    1.2277 C   0  0  0  0  0  0  0  0  0  0  0  0
    4.1840    0.3038    4.8975 C   0  0  0  0  0  0  0  0  0  0  0  0
    4.1439   -0.9516    5.6709 N   0  0  0  0  0  0  0  0  0  0  0  0
    3.3016   -1.0695    6.7761 C   0  0  0  0  0  0  0  0  0  0  0  0
    3.0377    0.0283    7.6219 C   0  0  0  0  0  0  0  0  0  0  0  0
    2.2591   -0.1656    8.7566 C   0  0  0  0  0  0  0  0  0  0  0  0
    1.7503   -1.4345    9.1010 C   0  0  0  0  0  0  0  0  0  0  0  0
    2.0264   -2.5129    8.2526 C   0  0  0  0  0  0  0  0  0  0  0  0
    2.7853   -2.3373    7.0875 C   0  0  0  0  0  0  0  0  0  0  0  0
    1.6073   -3.7894    8.3916 O   0  0  0  0  0  0  0  0  0  0  0  0
    0.8043   -4.1249    9.5166 C   0  0  0  0  0  0  0  0  0  0  0  0
    0.9181   -1.5905   10.1796 O   0  0  0  0  0  0  0  0  0  0  0  0
    1.6082   -1.4652   11.4244 C   0  0  0  0  0  0  0  0  0  0  0  0
    1.9112    0.8085    9.6329 O   0  0  0  0  0  0  0  0  0  0  0  0
    2.3703    2.1253    9.3525 C   0  0  0  0  0  0  0  0  0  0  0  0
    1.2503    0.5985    4.9069 C   0  0  0  0  0  0  0  0  0  0  0  0
   -0.6480    0.1538   -1.1955 N   0  0  0  0  0  0  0  0  0  0  0  0
   -1.9680   -0.6590    3.1874 H   0  0  0  0  0  0  0  0  0  0  0  0
   -0.6240   -0.7611    4.2500 H   0  0  0  0  0  0  0  0  0  0  0  0
    5.1525   -0.0147    2.4472 H   0  0  0  0  0  0  0  0  0  0  0  0
    3.9223   -0.0885    0.2730 H   0  0  0  0  0  0  0  0  0  0  0  0
    3.8658    1.1723    5.5159 H   0  0  0  0  0  0  0  0  0  0  0  0
    5.2586    0.4963    4.6564 H   0  0  0  0  0  0  0  0  0  0  0  0
    4.2063   -1.7762    5.0765 H   0  0  0  0  0  0  0  0  0  0  0  0
    3.4712    0.9938    7.4024 H   0  0  0  0  0  0  0  0  0  0  0  0
    2.9686   -3.1940    6.4477 H   0  0  0  0  0  0  0  0  0  0  0  0
    0.5974   -5.1878    9.3384 H   0  0  0  0  0  0  0  0  0  0  0  0
   -0.1217   -3.5389    9.5242 H   0  0  0  0  0  0  0  0  0  0  0  0
    1.3621   -3.9864   10.4469 H   0  0  0  0  0  0  0  0  0  0  0  0
    2.4635   -2.1432   11.4757 H   0  0  0  0  0  0  0  0  0  0  0  0
    0.8405   -1.7392   12.1560 H   0  0  0  0  0  0  0  0  0  0  0  0
    1.9312   -0.4304   11.5771 H   0  0  0  0  0  0  0  0  0  0  0  0
    1.9765    2.4807    8.3954 H   0  0  0  0  0  0  0  0  0  0  0  0
    3.4630    2.1728    9.3809 H   0  0  0  0  0  0  0  0  0  0  0  0
    1.9368    2.7008   10.1813 H   0  0  0  0  0  0  0  0  0  0  0  0
    1.8469    1.2547    5.5621 H   0  0  0  0  0  0  0  0  0  0  0  0
    1.0240   -0.2923    5.5163 H   0  0  0  0  0  0  0  0  0  0  0  0
    0.3203    1.1556    4.7189 H   0  0  0  0  0  0  0  0  0  0  0  0
   -1.6398    0.0408   -1.2415 H   0  0  0  0  0  0  0  0  0  0  0  0
   -0.1177    0.1655   -2.0444 H   0  0  0  0  0  0  0  0  0  0  0  0
  1  2  2  0  0  0  0
  1  6  2  0  0  0  0
  2  3  2  0  0  0  0
  3 11  1  0  0  0  0
  4  3  1  6  0  0  0
  4  8  1  0  0  0  0
  5  4  1  0  0  0  0
  5  7  1  0  0  0  0
  6  5  2  0  0  0  0
  7 29  1  0  0  0  0
  8 26  1  0  0  0  0
  9  8  2  0  0  0  0
  9 12  1  0  0  0  0
 10 30  1  0  0  0  0
 10  9  1  0  0  0  0
 11 10  2  0  0  0  0
 12 32  1  0  0  0  0
 12 13  1  0  0  0  0
 13 14  1  0  0  0  0
 14 19  2  0  0  0  0
 14 15  1  0  0  0  0
 15 16  2  0  0  0  0
 16 17  1  0  0  0  0
 16 24  1  0  0  0  0
 17 22  1  0  0  0  0
 18 20  1  0  0  0  0
 18 17  2  0  0  0  0
 19 18  1  0  0  0  0
 20 21  1  0  0  0  0
 21 38  1  0  0  0  0
 21 39  1  0  0  0  0
 22 23  1  0  0  0  0
 23 40  1  0  0  0  0
 23 42  1  0  0  0  0
 23 41  1  0  0  0  0
 25 44  1  0  0  0  0
 25 24  1  0  0  0  0
 25 45  1  0  0  0  0
 26 47  1  0  0  0  0
 26 46  1  0  0  0  0
 27  1  1  0  0  0  0
 28  7  1  0  0  0  0
 31 11  1  0  0  0  0
 33 12  1  0  0  0  0
 34 13  1  0  0  0  0
 35 15  1  0  0  0  0
 36 19  1  0  0  0  0
 37 21  1  0  0  0  0
 43 25  1  0  0  0  0
 48 26  1  0  0  0  0
 49 27  1  0  0  0  0
 50 27  1  0  0  0  0
M  RAD  1   4   2
M  END
$$$$
