
     RDKit          3D

 50 52  0  0  0  0  0  0  0  0999 V2000
    0.8244   -1.1797   -0.7830 C   0  0  0  0  0  0  0  0  0  0  0  0
    2.0546   -1.0472   -0.3196 N   0  0  0  0  0  0  0  0  0  0  0  0
    2.1772   -0.6054    0.9560 C   0  0  0  0  0  0  0  0  0  0  0  0
    1.0514   -0.2828    1.7889 C   0  0  0  0  0  0  0  0  0  0  0  0
   -0.2292   -0.5937    1.1729 C   0  0  0  0  0  0  0  0  0  0  0  0
   -0.3195   -1.0070   -0.0786 N   0  0  0  0  0  0  0  0  0  0  0  0
   -1.4198   -0.4875    1.8321 N   0  0  0  0  0  0  0  0  0  0  0  0
    1.2579    0.2670    3.0951 C   0  0  0  0  0  0  0  0  0  0  0  0
    2.5642    0.3871    3.5836 C   0  0  0  0  0  0  0  0  0  0  0  0
    3.6602    0.0183    2.7667 C   0  0  0  0  0  0  0  0  0  0  0  0
    3.4835   -0.4506    1.4869 C   0  0  0  0  0  0  0  0  0  0  0  0
    2.8593    0.9375    4.9615 C   0  0  0  0  0  0  0  0  0  0  0  0
    2.6953    2.3800    4.9985 N   0  0  0  0  0  0  0  0  0  0  0  0
    3.0005    3.1285    6.1256 C   0  0  0  0  0  0  0  0  0  0  0  0
    3.0761    4.5356    6.0155 C   0  0  0  0  0  0  0  0  0  0  0  0
    3.3494    5.3178    7.1387 C   0  0  0  0  0  0  0  0  0  0  0  0
    3.5418    4.7164    8.4037 C   0  0  0  0  0  0  0  0  0  0  0  0
    3.4748    3.3217    8.5018 C   0  0  0  0  0  0  0  0  0  0  0  0
    3.2030    2.5294    7.3778 C   0  0  0  0  0  0  0  0  0  0  0  0
    3.7199    2.6836    9.6851 O   0  0  0  0  0  0  0  0  0  0  0  0
    2.8301    2.9625   10.7569 C   0  0  0  0  0  0  0  0  0  0  0  0
    3.8066    5.4901    9.5047 O   0  0  0  0  0  0  0  0  0  0  0  0
    5.1734    5.8328    9.6649 C   0  0  0  0  0  0  0  0  0  0  0  0
    3.4674    6.6699    7.1166 O   0  0  0  0  0  0  0  0  0  0  0  0
    3.2892    7.3479    5.8968 C   0  0  0  0  0  0  0  0  0  0  0  0
    0.1144    0.7611    3.9568 C   0  0  0  0  0  0  0  0  0  0  0  0
    0.6641   -1.5313   -2.0894 N   0  0  0  0  0  0  0  0  0  0  0  0
   -2.2138   -0.8710    1.3330 H   0  0  0  0  0  0  0  0  0  0  0  0
   -1.4557   -0.4796    2.8386 H   0  0  0  0  0  0  0  0  0  0  0  0
    4.6710    0.1242    3.1707 H   0  0  0  0  0  0  0  0  0  0  0  0
    4.3229   -0.7140    0.8422 H   0  0  0  0  0  0  0  0  0  0  0  0
    3.8853    0.6408    5.2555 H   0  0  0  0  0  0  0  0  0  0  0  0
    2.1877    0.4840    5.7103 H   0  0  0  0  0  0  0  0  0  0  0  0
    2.8601    2.8416    4.1116 H   0  0  0  0  0  0  0  0  0  0  0  0
    2.9152    4.9962    5.0412 H   0  0  0  0  0  0  0  0  0  0  0  0
    3.1660    1.4513    7.5203 H   0  0  0  0  0  0  0  0  0  0  0  0
    3.1572    2.3455   11.6058 H   0  0  0  0  0  0  0  0  0  0  0  0
    1.7947    2.6823   10.4899 H   0  0  0  0  0  0  0  0  0  0  0  0
    2.8547    4.0256   11.0397 H   0  0  0  0  0  0  0  0  0  0  0  0
    5.8020    4.9299    9.7619 H   0  0  0  0  0  0  0  0  0  0  0  0
    5.2525    6.4282   10.5860 H   0  0  0  0  0  0  0  0  0  0  0  0
    5.5343    6.4372    8.8151 H   0  0  0  0  0  0  0  0  0  0  0  0
    2.2765    7.1897    5.4840 H   0  0  0  0  0  0  0  0  0  0  0  0
    4.0313    7.0355    5.1396 H   0  0  0  0  0  0  0  0  0  0  0  0
    3.4242    8.4169    6.1089 H   0  0  0  0  0  0  0  0  0  0  0  0
    0.4745    1.4733    4.7078 H   0  0  0  0  0  0  0  0  0  0  0  0
   -0.3862   -0.0640    4.4973 H   0  0  0  0  0  0  0  0  0  0  0  0
   -0.6427    1.2842    3.3580 H   0  0  0  0  0  0  0  0  0  0  0  0
   -0.2544   -1.8141   -2.4002 H   0  0  0  0  0  0  0  0  0  0  0  0
    1.4829   -1.8288   -2.6015 H   0  0  0  0  0  0  0  0  0  0  0  0
  1  2  2  0
  1  6  1  0
  1 27  1  0
  2  3  1  0
  3  4  2  0
  3 11  1  0
  4  5  1  0
  4  8  1  0
  5  6  2  0
  5  7  1  0
  7 28  1  0
  7 29  1  0
  8  9  2  0
  8 26  1  0
  9 10  1  0
  9 12  1  0
 10 11  2  0
 10 30  1  0
 11 31  1  0
 12 13  1  0
 12 32  1  0
 12 33  1  0
 13 14  1  0
 13 34  1  0
 14 15  2  0
 14 19  1  0
 15 16  1  0
 15 35  1  0
 16 17  2  0
 16 24  1  0
 17 18  1  0
 17 22  1  0
 18 19  2  0
 18 20  1  0
 19 36  1  0
 20 21  1  0
 21 37  1  0
 21 38  1  0
 21 39  1  0
 22 23  1  0
 23 40  1  0
 23 41  1  0
 23 42  1  0
 24 25  1  0
 25 43  1  0
 25 44  1  0
 25 45  1  0
 26 46  1  0
 26 47  1  0
 26 48  1  0
 27 49  1  0
 27 50  1  0
M  END

