rmsd140.gzmat
 OpenBabel08211713393D

 50 52  0  0  1  0  0  0  0  0999 V2000
    0.0000    0.0000    0.0000 C   0  0  0  0  0  0  0  0  0  0  0  0
    1.3566    0.0000    0.0000 N   0  0  0  0  0  0  0  0  0  0  0  0
    1.9770    0.0000    1.2134 C   0  0  0  0  0  0  0  0  0  0  0  0
    1.2615    0.0132    2.4507 C   0  0  2  0  0  0  0  0  0  0  0  0
   -0.1646   -0.1886    2.3164 C   0  0  0  0  0  0  0  0  0  0  0  0
   -0.7903   -0.1600    1.1197 N   0  0  0  0  0  0  0  0  0  0  0  0
   -1.0012   -0.4618    3.3672 N   0  0  0  0  0  0  0  0  0  0  0  0
    1.9884    0.2164    3.6531 C   0  0  0  0  0  0  0  0  0  0  0  0
    3.3718    0.1687    3.6316 C   0  0  0  0  0  0  0  0  0  0  0  0
    4.0722    0.0318    2.4074 C   0  0  0  0  0  0  0  0  0  0  0  0
    3.4037   -0.0157    1.2171 C   0  0  0  0  0  0  0  0  0  0  0  0
    4.1896    0.2651    4.8899 C   0  0  0  0  0  0  0  0  0  0  0  0
    3.9063   -0.9087    5.7384 N   0  0  0  0  0  0  0  0  0  0  0  0
    4.6130   -1.1098    6.9114 C   0  0  0  0  0  0  0  0  0  0  0  0
    4.4845   -2.3681    7.5486 C   0  0  0  0  0  0  0  0  0  0  0  0
    5.1081   -2.5675    8.7722 C   0  0  0  0  0  0  0  0  0  0  0  0
    5.8841   -1.5589    9.3834 C   0  0  0  0  0  0  0  0  0  0  0  0
    5.9930   -0.3229    8.7390 C   0  0  0  0  0  0  0  0  0  0  0  0
    5.3697   -0.0903    7.5033 C   0  0  0  0  0  0  0  0  0  0  0  0
    6.6671    0.7659    9.1720 O   0  0  0  0  0  0  0  0  0  0  0  0
    7.2426    0.7367   10.4723 C   0  0  0  0  0  0  0  0  0  0  0  0
    6.4236   -1.7450   10.6304 O   0  0  0  0  0  0  0  0  0  0  0  0
    7.5258   -2.6530   10.6227 C   0  0  0  0  0  0  0  0  0  0  0  0
    5.0639   -3.7168    9.4891 O   0  0  0  0  0  0  0  0  0  0  0  0
    4.3110   -4.7940    8.9449 C   0  0  0  0  0  0  0  0  0  0  0  0
    1.2841    0.5331    4.9296 C   0  0  0  0  0  0  0  0  0  0  0  0
   -0.6474    0.1449   -1.1960 N   0  0  0  0  0  0  0  0  0  0  0  0
   -1.9715   -0.6482    3.1819 H   0  0  0  0  0  0  0  0  0  0  0  0
   -0.6392   -0.7183    4.2603 H   0  0  0  0  0  0  0  0  0  0  0  0
    5.1632   -0.0125    2.4238 H   0  0  0  0  0  0  0  0  0  0  0  0
    3.9177   -0.0683    0.2576 H   0  0  0  0  0  0  0  0  0  0  0  0
    3.9345    1.1928    5.4604 H   0  0  0  0  0  0  0  0  0  0  0  0
    5.2802    0.3333    4.6630 H   0  0  0  0  0  0  0  0  0  0  0  0
    3.5601   -1.7167    5.2411 H   0  0  0  0  0  0  0  0  0  0  0  0
    3.8968   -3.1457    7.0839 H   0  0  0  0  0  0  0  0  0  0  0  0
    5.4809    0.8843    7.0448 H   0  0  0  0  0  0  0  0  0  0  0  0
    7.5773    1.7742   10.5964 H   0  0  0  0  0  0  0  0  0  0  0  0
    8.0884    0.0441   10.4989 H   0  0  0  0  0  0  0  0  0  0  0  0
    6.4972    0.4724   11.2306 H   0  0  0  0  0  0  0  0  0  0  0  0
    7.1883   -3.6621   10.3663 H   0  0  0  0  0  0  0  0  0  0  0  0
    7.8722   -2.6181   11.6610 H   0  0  0  0  0  0  0  0  0  0  0  0
    8.3052   -2.3230    9.9322 H   0  0  0  0  0  0  0  0  0  0  0  0
    4.7291   -5.1222    7.9886 H   0  0  0  0  0  0  0  0  0  0  0  0
    3.2548   -4.5236    8.8489 H   0  0  0  0  0  0  0  0  0  0  0  0
    4.4393   -5.5706    9.7107 H   0  0  0  0  0  0  0  0  0  0  0  0
    1.9056    1.1538    5.6006 H   0  0  0  0  0  0  0  0  0  0  0  0
    1.0599   -0.3734    5.5117 H   0  0  0  0  0  0  0  0  0  0  0  0
    0.3635    1.1126    4.7725 H   0  0  0  0  0  0  0  0  0  0  0  0
   -1.6416    0.0570   -1.2398 H   0  0  0  0  0  0  0  0  0  0  0  0
   -0.1179    0.1575   -2.0451 H   0  0  0  0  0  0  0  0  0  0  0  0
  1  2  2  0  0  0  0
  1  6  2  0  0  0  0
  2  3  2  0  0  0  0
  3 11  1  0  0  0  0
  4  3  1  6  0  0  0
  4  8  1  0  0  0  0
  5  4  1  0  0  0  0
  5  7  1  0  0  0  0
  6  5  2  0  0  0  0
  7 29  1  0  0  0  0
  8 26  1  0  0  0  0
  9  8  2  0  0  0  0
  9 12  1  0  0  0  0
 10 30  1  0  0  0  0
 10  9  1  0  0  0  0
 11 10  2  0  0  0  0
 12 32  1  0  0  0  0
 12 13  1  0  0  0  0
 13 14  1  0  0  0  0
 14 19  2  0  0  0  0
 14 15  1  0  0  0  0
 15 16  2  0  0  0  0
 16 17  1  0  0  0  0
 16 24  1  0  0  0  0
 17 22  1  0  0  0  0
 18 20  1  0  0  0  0
 18 17  2  0  0  0  0
 19 18  1  0  0  0  0
 20 21  1  0  0  0  0
 21 38  1  0  0  0  0
 21 37  1  0  0  0  0
 21 39  1  0  0  0  0
 23 22  1  0  0  0  0
 23 41  1  0  0  0  0
 25 24  1  0  0  0  0
 25 45  1  0  0  0  0
 26 47  1  0  0  0  0
 26 46  1  0  0  0  0
 27  1  1  0  0  0  0
 28  7  1  0  0  0  0
 31 11  1  0  0  0  0
 33 12  1  0  0  0  0
 34 13  1  0  0  0  0
 35 15  1  0  0  0  0
 36 19  1  0  0  0  0
 40 23  1  0  0  0  0
 42 23  1  0  0  0  0
 43 25  1  0  0  0  0
 44 25  1  0  0  0  0
 48 26  1  0  0  0  0
 49 27  1  0  0  0  0
 50 27  1  0  0  0  0
M  RAD  1   4   2
M  END
$$$$
