50
rmsd138.gzmat
C          0.00000        0.00000        0.00000
N          1.35690        0.00000        0.00000
C          1.97540        0.00000        1.21450
C          1.25690        0.02200        2.44870
C         -0.16740       -0.19300        2.31500
N         -0.79130       -0.16860        1.11720
N         -0.99780       -0.46750        3.37040
C          1.97510        0.24760        3.65250
C          3.35780        0.19660        3.64210
C          4.06200        0.03650        2.42230
C          3.40180       -0.02260        1.22770
C          4.18400        0.30380        4.89750
N          4.14390       -0.95160        5.67090
C          3.30160       -1.06950        6.77610
C          3.03770        0.02830        7.62190
C          2.25910       -0.16560        8.75660
C          1.75030       -1.43450        9.10100
C          2.02640       -2.51290        8.25260
C          2.78530       -2.33730        7.08750
O          1.60730       -3.78940        8.39160
C          0.80430       -4.12490        9.51660
O          0.91810       -1.59050       10.17960
C          1.60820       -1.46520       11.42440
O          1.91120        0.80850        9.63290
C          2.37030        2.12530        9.35250
C          1.25030        0.59850        4.90690
N         -0.64800        0.15380       -1.19550
H         -1.96800       -0.65900        3.18740
H         -0.62400       -0.76110        4.25000
H          5.15250       -0.01470        2.44720
H          3.92230       -0.08850        0.27300
H          3.86580        1.17230        5.51590
H          5.25860        0.49630        4.65640
H          4.20630       -1.77620        5.07650
H          3.47120        0.99380        7.40240
H          2.96860       -3.19400        6.44770
H          0.59740       -5.18780        9.33840
H         -0.12170       -3.53890        9.52420
H          1.36210       -3.98640       10.44690
H          2.46350       -2.14320       11.47570
H          0.84050       -1.73920       12.15600
H          1.93120       -0.43040       11.57710
H          1.97650        2.48070        8.39540
H          3.46300        2.17280        9.38090
H          1.93680        2.70080       10.18130
H          1.84690        1.25470        5.56210
H          1.02400       -0.29230        5.51630
H          0.32030        1.15560        4.71890
H         -1.63980        0.04080       -1.24150
H         -0.11770        0.16550       -2.04440
