50
rmsd56.gzmat
C          0.00000        0.00000        0.00000
N          1.35670        0.00000        0.00000
C          1.97670        0.00000        1.21320
C          1.26400        0.02070        2.45200
C         -0.16390       -0.17320        2.31890
N         -0.78920       -0.15090        1.12090
N         -1.00590       -0.43280        3.36700
C          1.99470        0.21860        3.65400
C          3.37630        0.16280        3.62940
C          4.07320        0.02120        2.40290
C          3.40350       -0.02460        1.21390
C          4.21890        0.27080        4.87310
N          4.60510        1.67010        5.12660
C          4.14560        2.35700        6.24310
C          3.71540        1.69940        7.40310
C          3.38070        2.44880        8.54060
C          3.47480        3.84340        8.54270
C          3.88020        4.48780        7.35400
C          4.20590        3.77090        6.21080
O          3.91830        5.83740        7.46410
C          4.32340        6.57200        6.31490
O          3.07690        4.56640        9.63800
C          4.16670        5.22020       10.29060
O          2.97440        1.65920        9.56050
C          2.48290        2.27960       10.74270
C          1.28980        0.54530        4.92750
N         -0.64970        0.13670       -1.19630
H         -1.97850       -0.60490        3.17970
H         -0.65750       -0.66330        4.27160
H          5.16410       -0.02890        2.42050
H          3.91560       -0.08500        0.25420
H          5.16580       -0.31440        4.75940
H          3.70470       -0.18090        5.75110
H          4.72480        2.21250        4.27700
H          3.66120        0.61850        7.46330
H          4.51010        4.27260        5.30330
H          4.26710        7.60780        6.67520
H          3.62440        6.41680        5.48700
H          5.34820        6.31830        6.02750
H          4.97110        4.51910       10.52500
H          3.70320        5.61190       11.20230
H          4.54100        6.04060        9.66930
H          1.65710        2.96320       10.51550
H          3.28900        2.80260       11.26530
H          2.13070        1.41800       11.32290
H          1.90660        1.17210        5.59940
H          1.03350       -0.35430        5.50280
H          0.38210        1.14580        4.76160
H         -1.64360        0.04030       -1.23650
H         -0.12270        0.13030       -2.04710
