50
rmsd149.gzmat
C          0.00000        0.00000        0.00000
N          1.35660        0.00000        0.00000
C          1.97510        0.00000        1.21490
C          1.25580        0.01680        2.44850
C         -0.16670       -0.20870        2.31360
N         -0.79150       -0.17820        1.11670
N         -0.99090       -0.50920        3.36690
C          1.97130        0.23990        3.65430
C          3.35400        0.18570        3.64590
C          4.05950        0.03560        2.42610
C          3.40070       -0.01880        1.23020
C          4.17430        0.25710        4.90780
N          4.14360       -1.03380        5.62390
C          3.23440       -1.21950        6.66830
C          2.94080       -0.19210        7.57340
C          2.07240       -0.43950        8.64620
C          1.50030       -1.70160        8.83640
C          1.83950       -2.73290        7.93560
C          2.67880       -2.50670        6.85200
O          1.23270       -3.91210        8.21320
C          1.61610       -5.03770        7.43120
O          0.73850       -1.95710        9.94740
C         -0.63310       -2.19890        9.63320
O          1.87980        0.66430        9.40260
C          1.18450        0.52910       10.63620
C          1.24130        0.58770        4.90620
N         -0.64880        0.16100       -1.19420
H         -1.95760       -0.71490        3.18590
H         -0.61270       -0.78590        4.24920
H          5.15020       -0.01210        2.45100
H          3.92290       -0.07820        0.27620
H          3.84100        1.09090        5.56600
H          5.24660        0.47440        4.68170
H          4.24990       -1.82530        4.99350
H          3.40410        0.78540        7.49200
H          2.91700       -3.29710        6.15390
H          1.06810       -5.85350        7.92120
H          2.69500       -5.21260        7.49470
H          1.28870       -4.92000        6.39390
H         -1.05930       -1.37900        9.05100
H         -1.09760       -2.26560       10.62300
H         -0.73910       -3.14860        9.09890
H          1.65040       -0.23330       11.27050
H          0.13020        0.29670       10.46080
H          1.30100        1.52920       11.07240
H          1.84070        1.22870        5.57630
H          0.99710       -0.30420        5.50470
H          0.32120        1.15970        4.71450
H         -1.64160        0.05430       -1.23920
H         -0.12020        0.17560       -2.04390
