rmsd56.gzmat
 OpenBabel08211713393D

 50 52  0  0  1  0  0  0  0  0999 V2000
    0.0000    0.0000    0.0000 C   0  0  0  0  0  0  0  0  0  0  0  0
    1.3567    0.0000    0.0000 N   0  0  0  0  0  0  0  0  0  0  0  0
    1.9767    0.0000    1.2132 C   0  0  0  0  0  0  0  0  0  0  0  0
    1.2640    0.0207    2.4520 C   0  0  1  0  0  0  0  0  0  0  0  0
   -0.1639   -0.1732    2.3189 C   0  0  0  0  0  0  0  0  0  0  0  0
   -0.7892   -0.1509    1.1209 N   0  0  0  0  0  0  0  0  0  0  0  0
   -1.0059   -0.4328    3.3670 N   0  0  0  0  0  0  0  0  0  0  0  0
    1.9947    0.2186    3.6540 C   0  0  0  0  0  0  0  0  0  0  0  0
    3.3763    0.1628    3.6294 C   0  0  0  0  0  0  0  0  0  0  0  0
    4.0732    0.0212    2.4029 C   0  0  0  0  0  0  0  0  0  0  0  0
    3.4035   -0.0246    1.2139 C   0  0  0  0  0  0  0  0  0  0  0  0
    4.2189    0.2708    4.8731 C   0  0  0  0  0  0  0  0  0  0  0  0
    4.6051    1.6701    5.1266 N   0  0  0  0  0  0  0  0  0  0  0  0
    4.1456    2.3570    6.2431 C   0  0  0  0  0  0  0  0  0  0  0  0
    3.7154    1.6994    7.4031 C   0  0  0  0  0  0  0  0  0  0  0  0
    3.3807    2.4488    8.5406 C   0  0  0  0  0  0  0  0  0  0  0  0
    3.4748    3.8434    8.5427 C   0  0  0  0  0  0  0  0  0  0  0  0
    3.8802    4.4878    7.3540 C   0  0  0  0  0  0  0  0  0  0  0  0
    4.2059    3.7709    6.2108 C   0  0  0  0  0  0  0  0  0  0  0  0
    3.9183    5.8374    7.4641 O   0  0  0  0  0  0  0  0  0  0  0  0
    4.3234    6.5720    6.3149 C   0  0  0  0  0  0  0  0  0  0  0  0
    3.0769    4.5664    9.6380 O   0  0  0  0  0  0  0  0  0  0  0  0
    4.1667    5.2202   10.2906 C   0  0  0  0  0  0  0  0  0  0  0  0
    2.9744    1.6592    9.5605 O   0  0  0  0  0  0  0  0  0  0  0  0
    2.4829    2.2796   10.7427 C   0  0  0  0  0  0  0  0  0  0  0  0
    1.2898    0.5453    4.9275 C   0  0  0  0  0  0  0  0  0  0  0  0
   -0.6497    0.1367   -1.1963 N   0  0  0  0  0  0  0  0  0  0  0  0
   -1.9785   -0.6049    3.1797 H   0  0  0  0  0  0  0  0  0  0  0  0
   -0.6575   -0.6633    4.2716 H   0  0  0  0  0  0  0  0  0  0  0  0
    5.1641   -0.0289    2.4205 H   0  0  0  0  0  0  0  0  0  0  0  0
    3.9156   -0.0850    0.2542 H   0  0  0  0  0  0  0  0  0  0  0  0
    5.1658   -0.3144    4.7594 H   0  0  0  0  0  0  0  0  0  0  0  0
    3.7047   -0.1809    5.7511 H   0  0  0  0  0  0  0  0  0  0  0  0
    4.7248    2.2125    4.2770 H   0  0  0  0  0  0  0  0  0  0  0  0
    3.6612    0.6185    7.4633 H   0  0  0  0  0  0  0  0  0  0  0  0
    4.5101    4.2726    5.3033 H   0  0  0  0  0  0  0  0  0  0  0  0
    4.2671    7.6078    6.6752 H   0  0  0  0  0  0  0  0  0  0  0  0
    3.6244    6.4168    5.4870 H   0  0  0  0  0  0  0  0  0  0  0  0
    5.3482    6.3183    6.0275 H   0  0  0  0  0  0  0  0  0  0  0  0
    4.9711    4.5191   10.5250 H   0  0  0  0  0  0  0  0  0  0  0  0
    3.7032    5.6119   11.2023 H   0  0  0  0  0  0  0  0  0  0  0  0
    4.5410    6.0406    9.6693 H   0  0  0  0  0  0  0  0  0  0  0  0
    1.6571    2.9632   10.5155 H   0  0  0  0  0  0  0  0  0  0  0  0
    3.2890    2.8026   11.2653 H   0  0  0  0  0  0  0  0  0  0  0  0
    2.1307    1.4180   11.3229 H   0  0  0  0  0  0  0  0  0  0  0  0
    1.9066    1.1721    5.5994 H   0  0  0  0  0  0  0  0  0  0  0  0
    1.0335   -0.3543    5.5028 H   0  0  0  0  0  0  0  0  0  0  0  0
    0.3821    1.1458    4.7616 H   0  0  0  0  0  0  0  0  0  0  0  0
   -1.6436    0.0403   -1.2365 H   0  0  0  0  0  0  0  0  0  0  0  0
   -0.1227    0.1303   -2.0471 H   0  0  0  0  0  0  0  0  0  0  0  0
  1  2  2  0  0  0  0
  1  6  2  0  0  0  0
  2  3  2  0  0  0  0
  3 11  1  0  0  0  0
  4  3  1  1  0  0  0
  4  8  1  0  0  0  0
  5  4  1  0  0  0  0
  5  7  1  0  0  0  0
  6  5  2  0  0  0  0
  7 29  1  0  0  0  0
  8 26  1  0  0  0  0
  9  8  2  0  0  0  0
  9 12  1  0  0  0  0
 10 30  1  0  0  0  0
 10  9  1  0  0  0  0
 11 10  2  0  0  0  0
 12 13  1  0  0  0  0
 12 33  1  0  0  0  0
 13 14  1  0  0  0  0
 14 15  1  0  0  0  0
 15 35  1  0  0  0  0
 15 16  2  0  0  0  0
 16 17  1  0  0  0  0
 16 24  1  0  0  0  0
 17 22  1  0  0  0  0
 18 20  1  0  0  0  0
 18 17  2  0  0  0  0
 19 14  2  0  0  0  0
 19 18  1  0  0  0  0
 21 37  1  0  0  0  0
 21 20  1  0  0  0  0
 22 23  1  0  0  0  0
 23 40  1  0  0  0  0
 23 41  1  0  0  0  0
 24 25  1  0  0  0  0
 25 44  1  0  0  0  0
 25 45  1  0  0  0  0
 26 47  1  0  0  0  0
 26 46  1  0  0  0  0
 27  1  1  0  0  0  0
 28  7  1  0  0  0  0
 31 11  1  0  0  0  0
 32 12  1  0  0  0  0
 34 13  1  0  0  0  0
 36 19  1  0  0  0  0
 38 21  1  0  0  0  0
 39 21  1  0  0  0  0
 42 23  1  0  0  0  0
 43 25  1  0  0  0  0
 48 26  1  0  0  0  0
 49 27  1  0  0  0  0
 50 27  1  0  0  0  0
M  RAD  1   4   2
M  END
$$$$
