
     RDKit          3D

 50 52  0  0  0  0  0  0  0  0999 V2000
   -0.0550    0.0581    0.0896 C   0  0  0  0  0  0  0  0  0  0  0  0
    1.2580   -0.0745    0.0244 N   0  0  0  0  0  0  0  0  0  0  0  0
    1.9281   -0.0529    1.2023 C   0  0  0  0  0  0  0  0  0  0  0  0
    1.2808    0.1062    2.4756 C   0  0  0  0  0  0  0  0  0  0  0  0
   -0.1715    0.1383    2.3836 C   0  0  0  0  0  0  0  0  0  0  0  0
   -0.7973    0.1304    1.2197 N   0  0  0  0  0  0  0  0  0  0  0  0
   -0.9906    0.1792    3.4736 N   0  0  0  0  0  0  0  0  0  0  0  0
    2.0627    0.1949    3.6732 C   0  0  0  0  0  0  0  0  0  0  0  0
    3.4535    0.0513    3.5907 C   0  0  0  0  0  0  0  0  0  0  0  0
    4.0683   -0.1545    2.3323 C   0  0  0  0  0  0  0  0  0  0  0  0
    3.3393   -0.1918    1.1682 C   0  0  0  0  0  0  0  0  0  0  0  0
    4.3339    0.0813    4.8195 C   0  0  0  0  0  0  0  0  0  0  0  0
    4.0663   -1.0579    5.6755 N   0  0  0  0  0  0  0  0  0  0  0  0
    4.7187   -1.2556    6.8813 C   0  0  0  0  0  0  0  0  0  0  0  0
    4.5781   -2.4982    7.5414 C   0  0  0  0  0  0  0  0  0  0  0  0
    5.1924   -2.7164    8.7754 C   0  0  0  0  0  0  0  0  0  0  0  0
    5.9523   -1.6953    9.3905 C   0  0  0  0  0  0  0  0  0  0  0  0
    6.0969   -0.4724    8.7248 C   0  0  0  0  0  0  0  0  0  0  0  0
    5.4864   -0.2471    7.4834 C   0  0  0  0  0  0  0  0  0  0  0  0
    6.8787    0.5233    9.2393 O   0  0  0  0  0  0  0  0  0  0  0  0
    6.4745    1.0712   10.4862 C   0  0  0  0  0  0  0  0  0  0  0  0
    6.5492   -1.9130   10.6059 O   0  0  0  0  0  0  0  0  0  0  0  0
    7.8149   -2.5486   10.5316 C   0  0  0  0  0  0  0  0  0  0  0  0
    5.1317   -3.8860    9.4619 O   0  0  0  0  0  0  0  0  0  0  0  0
    4.3980   -4.9560    8.9185 C   0  0  0  0  0  0  0  0  0  0  0  0
    1.4359    0.4808    5.0209 C   0  0  0  0  0  0  0  0  0  0  0  0
   -0.7525    0.1243   -1.0782 N   0  0  0  0  0  0  0  0  0  0  0  0
   -1.9760    0.0644    3.2695 H   0  0  0  0  0  0  0  0  0  0  0  0
   -0.6594   -0.0805    4.3879 H   0  0  0  0  0  0  0  0  0  0  0  0
    5.1551   -0.2692    2.2951 H   0  0  0  0  0  0  0  0  0  0  0  0
    3.8076   -0.3244    0.1921 H   0  0  0  0  0  0  0  0  0  0  0  0
    4.1585    1.0055    5.3972 H   0  0  0  0  0  0  0  0  0  0  0  0
    5.3962    0.1206    4.5071 H   0  0  0  0  0  0  0  0  0  0  0  0
    3.7963   -1.8992    5.1799 H   0  0  0  0  0  0  0  0  0  0  0  0
    3.9800   -3.2783    7.0711 H   0  0  0  0  0  0  0  0  0  0  0  0
    5.6443    0.7225    7.0154 H   0  0  0  0  0  0  0  0  0  0  0  0
    7.1925    1.8676   10.7275 H   0  0  0  0  0  0  0  0  0  0  0  0
    6.4795    0.3132   11.2839 H   0  0  0  0  0  0  0  0  0  0  0  0
    5.4637    1.5123   10.4113 H   0  0  0  0  0  0  0  0  0  0  0  0
    7.7292   -3.5549   10.0868 H   0  0  0  0  0  0  0  0  0  0  0  0
    8.1909   -2.6436   11.5605 H   0  0  0  0  0  0  0  0  0  0  0  0
    8.5280   -1.9487    9.9390 H   0  0  0  0  0  0  0  0  0  0  0  0
    4.8000   -5.2763    7.9400 H   0  0  0  0  0  0  0  0  0  0  0  0
    3.3303   -4.6997    8.7938 H   0  0  0  0  0  0  0  0  0  0  0  0
    4.4833   -5.7888    9.6292 H   0  0  0  0  0  0  0  0  0  0  0  0
    2.1868    0.7816    5.7584 H   0  0  0  0  0  0  0  0  0  0  0  0
    0.9493   -0.4141    5.4484 H   0  0  0  0  0  0  0  0  0  0  0  0
    0.6894    1.2841    4.9535 H   0  0  0  0  0  0  0  0  0  0  0  0
   -1.7593    0.0558   -1.0431 H   0  0  0  0  0  0  0  0  0  0  0  0
   -0.2598   -0.0750   -1.9375 H   0  0  0  0  0  0  0  0  0  0  0  0
  1  2  2  0
  1  6  1  0
  1 27  1  0
  2  3  1  0
  3  4  2  0
  3 11  1  0
  4  5  1  0
  4  8  1  0
  5  6  2  0
  5  7  1  0
  7 28  1  0
  7 29  1  0
  8  9  2  0
  8 26  1  0
  9 10  1  0
  9 12  1  0
 10 11  2  0
 10 30  1  0
 11 31  1  0
 12 13  1  0
 12 32  1  0
 12 33  1  0
 13 14  1  0
 13 34  1  0
 14 15  2  0
 14 19  1  0
 15 16  1  0
 15 35  1  0
 16 17  2  0
 16 24  1  0
 17 18  1  0
 17 22  1  0
 18 19  2  0
 18 20  1  0
 19 36  1  0
 20 21  1  0
 21 37  1  0
 21 38  1  0
 21 39  1  0
 22 23  1  0
 23 40  1  0
 23 41  1  0
 23 42  1  0
 24 25  1  0
 25 43  1  0
 25 44  1  0
 25 45  1  0
 26 46  1  0
 26 47  1  0
 26 48  1  0
 27 49  1  0
 27 50  1  0
M  END

