rmsd142.gzmat
 OpenBabel08211713393D

 50 52  0  0  1  0  0  0  0  0999 V2000
    0.0000    0.0000    0.0000 C   0  0  0  0  0  0  0  0  0  0  0  0
    1.3564    0.0000    0.0000 N   0  0  0  0  0  0  0  0  0  0  0  0
    1.9780    0.0000    1.2126 C   0  0  0  0  0  0  0  0  0  0  0  0
    1.2664    0.0157    2.4526 C   0  0  1  0  0  0  0  0  0  0  0  0
   -0.1640   -0.1570    2.3203 C   0  0  0  0  0  0  0  0  0  0  0  0
   -0.7894   -0.1324    1.1230 N   0  0  0  0  0  0  0  0  0  0  0  0
   -1.0145   -0.3856    3.3713 N   0  0  0  0  0  0  0  0  0  0  0  0
    2.0022    0.1917    3.6548 C   0  0  0  0  0  0  0  0  0  0  0  0
    3.3847    0.1462    3.6235 C   0  0  0  0  0  0  0  0  0  0  0  0
    4.0796    0.0263    2.3944 C   0  0  0  0  0  0  0  0  0  0  0  0
    3.4048   -0.0183    1.2082 C   0  0  0  0  0  0  0  0  0  0  0  0
    4.2183    0.2312    4.8721 C   0  0  0  0  0  0  0  0  0  0  0  0
    4.3532    1.6437    5.2794 N   0  0  0  0  0  0  0  0  0  0  0  0
    5.2573    1.9875    6.2729 C   0  0  0  0  0  0  0  0  0  0  0  0
    5.7777    1.0316    7.1550 C   0  0  0  0  0  0  0  0  0  0  0  0
    6.6281    1.4408    8.1928 C   0  0  0  0  0  0  0  0  0  0  0  0
    6.9755    2.7849    8.3558 C   0  0  0  0  0  0  0  0  0  0  0  0
    6.4240    3.7328    7.4663 C   0  0  0  0  0  0  0  0  0  0  0  0
    5.5842    3.3565    6.4270 C   0  0  0  0  0  0  0  0  0  0  0  0
    6.8178    5.0025    7.7295 O   0  0  0  0  0  0  0  0  0  0  0  0
    6.2934    6.0319    6.8998 C   0  0  0  0  0  0  0  0  0  0  0  0
    7.7402    3.1843    9.4219 O   0  0  0  0  0  0  0  0  0  0  0  0
    9.0391    3.6295    9.0287 C   0  0  0  0  0  0  0  0  0  0  0  0
    7.0298    0.3973    8.9533 O   0  0  0  0  0  0  0  0  0  0  0  0
    7.7691    0.6670   10.1383 C   0  0  0  0  0  0  0  0  0  0  0  0
    1.3087    0.4780    4.9450 C   0  0  0  0  0  0  0  0  0  0  0  0
   -0.6488    0.1158   -1.1983 N   0  0  0  0  0  0  0  0  0  0  0  0
   -1.9896   -0.5420    3.1797 H   0  0  0  0  0  0  0  0  0  0  0  0
   -0.6708   -0.6523    4.2682 H   0  0  0  0  0  0  0  0  0  0  0  0
    5.1714   -0.0088    2.4077 H   0  0  0  0  0  0  0  0  0  0  0  0
    3.9132   -0.0715    0.2456 H   0  0  0  0  0  0  0  0  0  0  0  0
    5.2202   -0.2358    4.7122 H   0  0  0  0  0  0  0  0  0  0  0  0
    3.7470   -0.3380    5.7101 H   0  0  0  0  0  0  0  0  0  0  0  0
    4.1749    2.3148    4.5441 H   0  0  0  0  0  0  0  0  0  0  0  0
    5.5301   -0.0194    7.0741 H   0  0  0  0  0  0  0  0  0  0  0  0
    5.1686    4.0858    5.7466 H   0  0  0  0  0  0  0  0  0  0  0  0
    6.7478    6.9301    7.3384 H   0  0  0  0  0  0  0  0  0  0  0  0
    5.2026    6.0799    6.9782 H   0  0  0  0  0  0  0  0  0  0  0  0
    6.6162    5.9035    5.8628 H   0  0  0  0  0  0  0  0  0  0  0  0
    9.5689    2.8563    8.4675 H   0  0  0  0  0  0  0  0  0  0  0  0
    9.5259    3.8274    9.9893 H   0  0  0  0  0  0  0  0  0  0  0  0
    8.9665    4.5493    8.4395 H   0  0  0  0  0  0  0  0  0  0  0  0
    7.2384    1.3757   10.7840 H   0  0  0  0  0  0  0  0  0  0  0  0
    8.7671    1.0384    9.8894 H   0  0  0  0  0  0  0  0  0  0  0  0
    7.8226   -0.3243   10.6053 H   0  0  0  0  0  0  0  0  0  0  0  0
    1.9436    1.0649    5.6368 H   0  0  0  0  0  0  0  0  0  0  0  0
    1.0461   -0.4430    5.4828 H   0  0  0  0  0  0  0  0  0  0  0  0
    0.4096    1.0971    4.8096 H   0  0  0  0  0  0  0  0  0  0  0  0
   -1.6429    0.0259   -1.2392 H   0  0  0  0  0  0  0  0  0  0  0  0
   -0.1200    0.1171   -2.0479 H   0  0  0  0  0  0  0  0  0  0  0  0
  1  2  2  0  0  0  0
  1  6  2  0  0  0  0
  2  3  2  0  0  0  0
  4  3  1  1  0  0  0
  4  8  1  0  0  0  0
  5  4  1  0  0  0  0
  5  7  1  0  0  0  0
  6  5  2  0  0  0  0
  7 29  1  0  0  0  0
  8 26  1  0  0  0  0
  9  8  2  0  0  0  0
  9 12  1  0  0  0  0
 10 30  1  0  0  0  0
 10  9  1  0  0  0  0
 11  3  1  0  0  0  0
 11 10  2  0  0  0  0
 12 13  1  0  0  0  0
 12 33  1  0  0  0  0
 13 14  1  0  0  0  0
 14 19  2  0  0  0  0
 14 15  1  0  0  0  0
 15 16  2  0  0  0  0
 16 17  1  0  0  0  0
 16 24  1  0  0  0  0
 17 22  1  0  0  0  0
 18 20  1  0  0  0  0
 18 17  2  0  0  0  0
 19 18  1  0  0  0  0
 21 38  1  0  0  0  0
 21 37  1  0  0  0  0
 21 20  1  0  0  0  0
 23 22  1  0  0  0  0
 23 41  1  0  0  0  0
 24 25  1  0  0  0  0
 25 45  1  0  0  0  0
 25 43  1  0  0  0  0
 26 47  1  0  0  0  0
 26 46  1  0  0  0  0
 27  1  1  0  0  0  0
 28  7  1  0  0  0  0
 31 11  1  0  0  0  0
 32 12  1  0  0  0  0
 34 13  1  0  0  0  0
 35 15  1  0  0  0  0
 36 19  1  0  0  0  0
 39 21  1  0  0  0  0
 40 23  1  0  0  0  0
 42 23  1  0  0  0  0
 44 25  1  0  0  0  0
 48 26  1  0  0  0  0
 49 27  1  0  0  0  0
 50 27  1  0  0  0  0
M  RAD  1   4   2
M  END
$$$$
