50

C          0.82440       -1.17970       -0.78300
N          2.05460       -1.04720       -0.31960
C          2.17720       -0.60540        0.95600
C          1.05140       -0.28280        1.78890
C         -0.22920       -0.59370        1.17290
N         -0.31950       -1.00700       -0.07860
N         -1.41980       -0.48750        1.83210
C          1.25790        0.26700        3.09510
C          2.56420        0.38710        3.58360
C          3.66020        0.01830        2.76670
C          3.48350       -0.45060        1.48690
C          2.85930        0.93750        4.96150
N          2.69530        2.38000        4.99850
C          3.00050        3.12850        6.12560
C          3.07610        4.53560        6.01550
C          3.34940        5.31780        7.13870
C          3.54180        4.71640        8.40370
C          3.47480        3.32170        8.50180
C          3.20300        2.52940        7.37780
O          3.71990        2.68360        9.68510
C          2.83010        2.96250       10.75690
O          3.80660        5.49010        9.50470
C          5.17340        5.83280        9.66490
O          3.46740        6.66990        7.11660
C          3.28920        7.34790        5.89680
C          0.11440        0.76110        3.95680
N          0.66410       -1.53130       -2.08940
H         -2.21380       -0.87100        1.33300
H         -1.45570       -0.47960        2.83860
H          4.67100        0.12420        3.17070
H          4.32290       -0.71400        0.84220
H          3.88530        0.64080        5.25550
H          2.18770        0.48400        5.71030
H          2.86010        2.84160        4.11160
H          2.91520        4.99620        5.04120
H          3.16600        1.45130        7.52030
H          3.15720        2.34550       11.60580
H          1.79470        2.68230       10.48990
H          2.85470        4.02560       11.03970
H          5.80200        4.92990        9.76190
H          5.25250        6.42820       10.58600
H          5.53430        6.43720        8.81510
H          2.27650        7.18970        5.48400
H          4.03130        7.03550        5.13960
H          3.42420        8.41690        6.10890
H          0.47450        1.47330        4.70780
H         -0.38620       -0.06400        4.49730
H         -0.64270        1.28420        3.35800
H         -0.25440       -1.81410       -2.40020
H          1.48290       -1.82880       -2.60150
