
     RDKit          3D

 50 52  0  0  0  0  0  0  0  0999 V2000
    0.8884    0.0450   -1.0077 C   0  0  0  0  0  0  0  0  0  0  0  0
    2.0994    0.0887   -0.4809 N   0  0  0  0  0  0  0  0  0  0  0  0
    2.1703    0.1253    0.8720 C   0  0  0  0  0  0  0  0  0  0  0  0
    1.0121    0.1216    1.7230 C   0  0  0  0  0  0  0  0  0  0  0  0
   -0.2378   -0.0351    0.9941 C   0  0  0  0  0  0  0  0  0  0  0  0
   -0.2778   -0.0524   -0.3265 N   0  0  0  0  0  0  0  0  0  0  0  0
   -1.4493   -0.1745    1.6063 N   0  0  0  0  0  0  0  0  0  0  0  0
    1.1629    0.2428    3.1427 C   0  0  0  0  0  0  0  0  0  0  0  0
    2.4518    0.2852    3.6890 C   0  0  0  0  0  0  0  0  0  0  0  0
    3.5816    0.2339    2.8376 C   0  0  0  0  0  0  0  0  0  0  0  0
    3.4554    0.1722    1.4708 C   0  0  0  0  0  0  0  0  0  0  0  0
    2.6843    0.3602    5.1812 C   0  0  0  0  0  0  0  0  0  0  0  0
    2.2194   -0.8430    5.8403 N   0  0  0  0  0  0  0  0  0  0  0  0
    2.2922   -1.0305    7.2107 C   0  0  0  0  0  0  0  0  0  0  0  0
    2.5897    0.0370    8.0836 C   0  0  0  0  0  0  0  0  0  0  0  0
    2.6150   -0.1751    9.4686 C   0  0  0  0  0  0  0  0  0  0  0  0
    2.3463   -1.4477   10.0094 C   0  0  0  0  0  0  0  0  0  0  0  0
    2.0703   -2.5086    9.1309 C   0  0  0  0  0  0  0  0  0  0  0  0
    2.0328   -2.3028    7.7508 C   0  0  0  0  0  0  0  0  0  0  0  0
    1.8716   -3.7768    9.5992 O   0  0  0  0  0  0  0  0  0  0  0  0
    0.7460   -3.9746   10.4433 C   0  0  0  0  0  0  0  0  0  0  0  0
    2.3761   -1.6479   11.3661 O   0  0  0  0  0  0  0  0  0  0  0  0
    3.6676   -1.9080   11.8913 C   0  0  0  0  0  0  0  0  0  0  0  0
    2.9169    0.7897   10.3751 O   0  0  0  0  0  0  0  0  0  0  0  0
    3.1997    2.0904    9.9195 C   0  0  0  0  0  0  0  0  0  0  0  0
   -0.0286    0.3700    4.0674 C   0  0  0  0  0  0  0  0  0  0  0  0
    0.7759    0.0938   -2.3641 N   0  0  0  0  0  0  0  0  0  0  0  0
   -2.2127   -0.4123    0.9844 H   0  0  0  0  0  0  0  0  0  0  0  0
   -1.5172   -0.4579    2.5700 H   0  0  0  0  0  0  0  0  0  0  0  0
    4.5772    0.2612    3.2890 H   0  0  0  0  0  0  0  0  0  0  0  0
    4.3202    0.1587    0.8063 H   0  0  0  0  0  0  0  0  0  0  0  0
    2.1502    1.2279    5.6081 H   0  0  0  0  0  0  0  0  0  0  0  0
    3.7602    0.5459    5.3721 H   0  0  0  0  0  0  0  0  0  0  0  0
    2.2896   -1.6846    5.2809 H   0  0  0  0  0  0  0  0  0  0  0  0
    2.8096    1.0216    7.6814 H   0  0  0  0  0  0  0  0  0  0  0  0
    1.8003   -3.1531    7.1072 H   0  0  0  0  0  0  0  0  0  0  0  0
    0.7289   -5.0433   10.6994 H   0  0  0  0  0  0  0  0  0  0  0  0
   -0.1904   -3.7191    9.9143 H   0  0  0  0  0  0  0  0  0  0  0  0
    0.8171   -3.3742   11.3627 H   0  0  0  0  0  0  0  0  0  0  0  0
    4.1089   -2.8119   11.4352 H   0  0  0  0  0  0  0  0  0  0  0  0
    3.5514   -2.0695   12.9728 H   0  0  0  0  0  0  0  0  0  0  0  0
    4.3436   -1.0512   11.7272 H   0  0  0  0  0  0  0  0  0  0  0  0
    2.3441    2.5301    9.3760 H   0  0  0  0  0  0  0  0  0  0  0  0
    4.0859    2.1129    9.2594 H   0  0  0  0  0  0  0  0  0  0  0  0
    3.4045    2.6976   10.8114 H   0  0  0  0  0  0  0  0  0  0  0  0
    0.2666    0.7368    5.0559 H   0  0  0  0  0  0  0  0  0  0  0  0
   -0.5148   -0.6047    4.2520 H   0  0  0  0  0  0  0  0  0  0  0  0
   -0.7792    1.0616    3.6611 H   0  0  0  0  0  0  0  0  0  0  0  0
   -0.1208   -0.1123   -2.7803 H   0  0  0  0  0  0  0  0  0  0  0  0
    1.6202    0.0108   -2.9129 H   0  0  0  0  0  0  0  0  0  0  0  0
  1  2  2  0
  1  6  1  0
  1 27  1  0
  2  3  1  0
  3  4  2  0
  3 11  1  0
  4  5  1  0
  4  8  1  0
  5  6  2  0
  5  7  1  0
  7 28  1  0
  7 29  1  0
  8  9  2  0
  8 26  1  0
  9 10  1  0
  9 12  1  0
 10 11  2  0
 10 30  1  0
 11 31  1  0
 12 13  1  0
 12 32  1  0
 12 33  1  0
 13 14  1  0
 13 34  1  0
 14 15  2  0
 14 19  1  0
 15 16  1  0
 15 35  1  0
 16 17  2  0
 16 24  1  0
 17 18  1  0
 17 22  1  0
 18 19  2  0
 18 20  1  0
 19 36  1  0
 20 21  1  0
 21 37  1  0
 21 38  1  0
 21 39  1  0
 22 23  1  0
 23 40  1  0
 23 41  1  0
 23 42  1  0
 24 25  1  0
 25 43  1  0
 25 44  1  0
 25 45  1  0
 26 46  1  0
 26 47  1  0
 26 48  1  0
 27 49  1  0
 27 50  1  0
M  END

