rmsd27.gzmat
 OpenBabel08211713423D

 66 71  0  0  1  0  0  0  0  0999 V2000
    0.0000    0.0000    0.0000 O   0  0  0  0  0  0  0  0  0  0  0  0
    1.3594    0.0000    0.0000 C   0  0  0  0  0  0  0  0  0  0  0  0
    2.1054    0.0000    1.1791 C   0  0  0  0  0  0  0  0  0  0  0  0
    3.4968   -0.0049    1.0826 C   0  0  0  0  0  0  0  0  0  0  0  0
    4.1068   -0.0221   -0.1664 C   0  0  0  0  0  0  0  0  0  0  0  0
    3.3351   -0.0021   -1.3381 C   0  0  0  0  0  0  0  0  0  0  0  0
    1.9493    0.0041   -1.2697 C   0  0  0  0  0  0  0  0  0  0  0  0
    4.0835    0.0243   -2.6278 C   0  0  0  0  0  0  0  0  0  0  0  0
    5.2213    1.0612   -2.5354 C   0  0  0  0  0  0  0  0  0  0  0  0
    6.0160    0.9627   -1.2914 N   0  0  0  0  0  0  0  0  0  0  0  0
    5.6109   -0.0645   -0.3141 C   0  0  2  0  0  0  0  0  0  0  0  0
    6.0876    0.2293    0.6696 H   0  0  0  0  0  0  0  0  0  0  0  0
    6.0420   -1.4853   -0.6396 C   0  0  0  0  0  0  0  0  0  0  0  0
    6.8589   -1.7941   -1.7226 C   0  0  0  0  0  0  0  0  0  0  0  0
    7.2522   -3.1055   -1.9707 C   0  0  0  0  0  0  0  0  0  0  0  0
    6.8286   -4.1457   -1.1288 C   0  0  0  0  0  0  0  0  0  0  0  0
    6.0010   -3.8290   -0.0313 C   0  0  0  0  0  0  0  0  0  0  0  0
    5.6207   -2.5177    0.2050 C   0  0  0  0  0  0  0  0  0  0  0  0
    7.2949   -5.4762   -1.2584 N   0  0  0  0  0  0  0  0  0  0  0  0
    8.2043   -5.7789   -2.3782 C   0  0  0  0  0  0  0  0  0  0  0  0
    7.4577   -5.9293   -3.7248 C   0  0  0  0  0  0  0  0  0  0  0  0
    6.4358   -6.9992   -3.5960 N   0  0  1  0  0  0  0  0  0  0  0  0
    5.4745   -6.6802   -2.5053 C   0  0  2  0  0  0  0  0  0  0  0  0
    4.9219   -5.7283   -2.7091 H   0  0  0  0  0  0  0  0  0  0  0  0
    6.2677   -6.5332   -1.1751 C   0  0  0  0  0  0  0  0  0  0  0  0
    4.4687   -7.8378   -2.3512 C   0  0  0  0  0  0  0  0  0  0  0  0
    3.7198   -8.0710   -3.6672 C   0  0  0  0  0  0  0  0  0  0  0  0
    4.7352   -8.3425   -4.7816 C   0  0  0  0  0  0  0  0  0  0  0  0
    5.7256   -7.1700   -4.8900 C   0  0  0  0  0  0  0  0  0  0  0  0
    7.3638    1.3377   -1.3614 C   0  0  0  0  0  0  0  0  0  0  0  0
    8.3312    0.8030   -0.4855 C   0  0  0  0  0  0  0  0  0  0  0  0
    9.6369    1.2749   -0.5134 C   0  0  0  0  0  0  0  0  0  0  0  0
   10.0173    2.2691   -1.4126 C   0  0  0  0  0  0  0  0  0  0  0  0
    9.0686    2.7976   -2.2851 C   0  0  0  0  0  0  0  0  0  0  0  0
    7.7550    2.3465   -2.2680 C   0  0  0  0  0  0  0  0  0  0  0  0
   -0.3741    0.0099    0.9126 H   0  0  0  0  0  0  0  0  0  0  0  0
    1.6202    0.0089    2.1473 H   0  0  0  0  0  0  0  0  0  0  0  0
    4.0995    0.0087    1.9909 H   0  0  0  0  0  0  0  0  0  0  0  0
    1.3259    0.0138   -2.1582 H   0  0  0  0  0  0  0  0  0  0  0  0
    4.4999   -0.9887   -2.8337 H   0  0  0  0  0  0  0  0  0  0  0  0
    3.4314    0.2637   -3.4888 H   0  0  0  0  0  0  0  0  0  0  0  0
    5.8741    0.9627   -3.4324 H   0  0  0  0  0  0  0  0  0  0  0  0
    4.7810    2.0882   -2.5496 H   0  0  0  0  0  0  0  0  0  0  0  0
    7.2129   -1.0082   -2.3917 H   0  0  0  0  0  0  0  0  0  0  0  0
    7.8962   -3.3015   -2.8225 H   0  0  0  0  0  0  0  0  0  0  0  0
    5.6779   -4.6123    0.6497 H   0  0  0  0  0  0  0  0  0  0  0  0
    4.9809   -2.2915    1.0589 H   0  0  0  0  0  0  0  0  0  0  0  0
    8.7196   -6.7380   -2.1299 H   0  0  0  0  0  0  0  0  0  0  0  0
    8.9982   -5.0071   -2.4475 H   0  0  0  0  0  0  0  0  0  0  0  0
    8.1805   -6.2375   -4.5108 H   0  0  0  0  0  0  0  0  0  0  0  0
    7.0239   -4.9555   -4.0354 H   0  0  0  0  0  0  0  0  0  0  0  0
    5.5706   -6.3354   -0.3367 H   0  0  0  0  0  0  0  0  0  0  0  0
    6.7914   -7.4894   -0.9413 H   0  0  0  0  0  0  0  0  0  0  0  0
    3.7596   -7.6144   -1.5351 H   0  0  0  0  0  0  0  0  0  0  0  0
    5.0082   -8.7609   -2.0611 H   0  0  0  0  0  0  0  0  0  0  0  0
    3.0963   -7.1930   -3.9177 H   0  0  0  0  0  0  0  0  0  0  0  0
    3.0231   -8.9227   -3.5656 H   0  0  0  0  0  0  0  0  0  0  0  0
    4.2277   -8.4980   -5.7490 H   0  0  0  0  0  0  0  0  0  0  0  0
    5.2929   -9.2750   -4.5646 H   0  0  0  0  0  0  0  0  0  0  0  0
    5.1908   -6.2498   -5.2088 H   0  0  0  0  0  0  0  0  0  0  0  0
    6.4869   -7.3969   -5.6680 H   0  0  0  0  0  0  0  0  0  0  0  0
    8.0762    0.0040    0.2054 H   0  0  0  0  0  0  0  0  0  0  0  0
   10.3729    0.8558    0.1724 H   0  0  0  0  0  0  0  0  0  0  0  0
   11.0404    2.6279   -1.4324 H   0  0  0  0  0  0  0  0  0  0  0  0
    9.3577    3.5771   -2.9891 H   0  0  0  0  0  0  0  0  0  0  0  0
    7.0327    2.7963   -2.9404 H   0  0  0  0  0  0  0  0  0  0  0  0
  1 36  1  0  0  0  0
  2  1  1  0  0  0  0
  2  3  2  0  0  0  0
  3 37  1  0  0  0  0
  4  3  1  0  0  0  0
  4 38  1  0  0  0  0
  5  4  2  0  0  0  0
  6  7  2  0  0  0  0
  6  5  1  0  0  0  0
  7  2  1  0  0  0  0
  8  9  1  0  0  0  0
  8  6  1  0  0  0  0
  9 10  1  0  0  0  0
 10 11  1  0  0  0  0
 11  5  1  0  0  0  0
 11 12  1  1  0  0  0
 13 11  1  0  0  0  0
 13 18  2  0  0  0  0
 14 13  1  0  0  0  0
 15 14  2  0  0  0  0
 15 16  1  0  0  0  0
 16 17  2  0  0  0  0
 17 18  1  0  0  0  0
 17 46  1  0  0  0  0
 18 47  1  0  0  0  0
 19 25  1  0  0  0  0
 19 16  1  0  0  0  0
 20 48  1  0  0  0  0
 20 19  1  0  0  0  0
 21 20  1  0  0  0  0
 22 21  1  6  0  0  0
 22 23  1  0  0  0  0
 23 24  1  6  0  0  0
 23 26  1  0  0  0  0
 23 25  1  0  0  0  0
 25 53  1  0  0  0  0
 25 52  1  0  0  0  0
 26 55  1  0  0  0  0
 26 54  1  0  0  0  0
 27 57  1  0  0  0  0
 27 26  1  0  0  0  0
 28 59  1  0  0  0  0
 28 27  1  0  0  0  0
 29 28  1  0  0  0  0
 29 22  1  0  0  0  0
 30 10  1  0  0  0  0
 30 31  2  0  0  0  0
 31 62  1  0  0  0  0
 32 31  1  0  0  0  0
 32 63  1  0  0  0  0
 33 32  2  0  0  0  0
 34 35  2  0  0  0  0
 34 33  1  0  0  0  0
 35 30  1  0  0  0  0
 39  7  1  0  0  0  0
 40  8  1  0  0  0  0
 41  8  1  0  0  0  0
 42  9  1  0  0  0  0
 43  9  1  0  0  0  0
 44 14  1  0  0  0  0
 45 15  1  0  0  0  0
 49 20  1  0  0  0  0
 50 21  1  0  0  0  0
 51 21  1  0  0  0  0
 56 27  1  0  0  0  0
 58 28  1  0  0  0  0
 60 29  1  0  0  0  0
 61 29  1  0  0  0  0
 64 33  1  0  0  0  0
 65 34  1  0  0  0  0
 66 35  1  0  0  0  0
M  END
$$$$
