rmsd33.gzmat
 OpenBabel08211713423D

 66 71  0  0  1  0  0  0  0  0999 V2000
    0.0000    0.0000    0.0000 O   0  0  0  0  0  0  0  0  0  0  0  0
    1.3590    0.0000    0.0000 C   0  0  0  0  0  0  0  0  0  0  0  0
    2.1072    0.0000    1.1780 C   0  0  0  0  0  0  0  0  0  0  0  0
    3.4970   -0.0079    1.0784 C   0  0  0  0  0  0  0  0  0  0  0  0
    4.1160   -0.0198   -0.1698 C   0  0  0  0  0  0  0  0  0  0  0  0
    3.3393    0.0107   -1.3362 C   0  0  0  0  0  0  0  0  0  0  0  0
    1.9522    0.0133   -1.2663 C   0  0  0  0  0  0  0  0  0  0  0  0
    4.0637    0.0824   -2.6374 C   0  0  0  0  0  0  0  0  0  0  0  0
    5.2497    1.0505   -2.4675 C   0  0  0  0  0  0  0  0  0  0  0  0
    6.1939    0.5190   -1.4724 N   0  0  0  0  0  0  0  0  0  0  0  0
    5.6229   -0.1146   -0.2601 C   0  0  2  0  0  0  0  0  0  0  0  0
    6.0664    0.3953    0.6468 H   0  0  0  0  0  0  0  0  0  0  0  0
    5.9993   -1.5876   -0.2203 C   0  0  0  0  0  0  0  0  0  0  0  0
    6.4455   -2.2698   -1.3485 C   0  0  0  0  0  0  0  0  0  0  0  0
    6.7855   -3.6168   -1.2777 C   0  0  0  0  0  0  0  0  0  0  0  0
    6.6867   -4.3129   -0.0615 C   0  0  0  0  0  0  0  0  0  0  0  0
    6.2326   -3.6165    1.0775 C   0  0  0  0  0  0  0  0  0  0  0  0
    5.9000   -2.2733    0.9932 C   0  0  0  0  0  0  0  0  0  0  0  0
    7.1490   -5.6417    0.0949 N   0  0  0  0  0  0  0  0  0  0  0  0
    7.5860   -6.3640   -1.1142 C   0  0  0  0  0  0  0  0  0  0  0  0
    6.3913   -6.8830   -1.9488 C   0  0  0  0  0  0  0  0  0  0  0  0
    5.5722   -7.7856   -1.1000 N   0  0  1  0  0  0  0  0  0  0  0  0
    5.0739   -7.0613    0.1013 C   0  0  2  0  0  0  0  0  0  0  0  0
    4.4253   -6.1938   -0.1815 H   0  0  0  0  0  0  0  0  0  0  0  0
    6.3014   -6.5408    0.9030 C   0  0  0  0  0  0  0  0  0  0  0  0
    4.2766   -8.0301    0.9963 C   0  0  0  0  0  0  0  0  0  0  0  0
    3.1065   -8.6345    0.2136 C   0  0  0  0  0  0  0  0  0  0  0  0
    3.6467   -9.3321   -1.0385 C   0  0  0  0  0  0  0  0  0  0  0  0
    4.4435   -8.3337   -1.8953 C   0  0  0  0  0  0  0  0  0  0  0  0
    7.4371    1.1521   -1.3358 C   0  0  0  0  0  0  0  0  0  0  0  0
    7.7819    2.2848   -2.0975 C   0  0  0  0  0  0  0  0  0  0  0  0
    9.0674    2.8113   -2.0184 C   0  0  0  0  0  0  0  0  0  0  0  0
   10.0237    2.2397   -1.1848 C   0  0  0  0  0  0  0  0  0  0  0  0
    9.6833    1.1239   -0.4191 C   0  0  0  0  0  0  0  0  0  0  0  0
    8.4090    0.5810   -0.4848 C   0  0  0  0  0  0  0  0  0  0  0  0
   -0.3745   -0.0034    0.9130 H   0  0  0  0  0  0  0  0  0  0  0  0
    1.6233    0.0045    2.1473 H   0  0  0  0  0  0  0  0  0  0  0  0
    4.0965   -0.0075    1.9890 H   0  0  0  0  0  0  0  0  0  0  0  0
    1.3309    0.0286   -2.1565 H   0  0  0  0  0  0  0  0  0  0  0  0
    4.4312   -0.9293   -2.9224 H   0  0  0  0  0  0  0  0  0  0  0  0
    3.4139    0.4178   -3.4665 H   0  0  0  0  0  0  0  0  0  0  0  0
    5.7886    1.1499   -3.4386 H   0  0  0  0  0  0  0  0  0  0  0  0
    4.8759    2.0599   -2.1803 H   0  0  0  0  0  0  0  0  0  0  0  0
    6.5453   -1.7418   -2.2999 H   0  0  0  0  0  0  0  0  0  0  0  0
    7.1343   -4.1111   -2.1786 H   0  0  0  0  0  0  0  0  0  0  0  0
    6.1641   -4.1241    2.0358 H   0  0  0  0  0  0  0  0  0  0  0  0
    5.5583   -1.7528    1.8868 H   0  0  0  0  0  0  0  0  0  0  0  0
    8.2061   -7.2284   -0.7749 H   0  0  0  0  0  0  0  0  0  0  0  0
    8.2525   -5.7233   -1.7263 H   0  0  0  0  0  0  0  0  0  0  0  0
    6.7706   -7.4715   -2.8110 H   0  0  0  0  0  0  0  0  0  0  0  0
    5.8097   -6.0295   -2.3572 H   0  0  0  0  0  0  0  0  0  0  0  0
    5.9639   -6.0357    1.8293 H   0  0  0  0  0  0  0  0  0  0  0  0
    6.9367   -7.4007    1.2198 H   0  0  0  0  0  0  0  0  0  0  0  0
    3.9118   -7.4998    1.8934 H   0  0  0  0  0  0  0  0  0  0  0  0
    4.9435   -8.8398    1.3523 H   0  0  0  0  0  0  0  0  0  0  0  0
    2.3816   -7.8475   -0.0655 H   0  0  0  0  0  0  0  0  0  0  0  0
    2.5533   -9.3530    0.8448 H   0  0  0  0  0  0  0  0  0  0  0  0
    2.8252   -9.7672   -1.6331 H   0  0  0  0  0  0  0  0  0  0  0  0
    4.3049  -10.1743   -0.7475 H   0  0  0  0  0  0  0  0  0  0  0  0
    3.7682   -7.5408   -2.2821 H   0  0  0  0  0  0  0  0  0  0  0  0
    4.8724   -8.8606   -2.7756 H   0  0  0  0  0  0  0  0  0  0  0  0
    7.0582    2.7674   -2.7438 H   0  0  0  0  0  0  0  0  0  0  0  0
    9.3234    3.6857   -2.6153 H   0  0  0  0  0  0  0  0  0  0  0  0
   11.0242    2.6548   -1.1306 H   0  0  0  0  0  0  0  0  0  0  0  0
   10.4287    0.6693    0.2331 H   0  0  0  0  0  0  0  0  0  0  0  0
    8.1758   -0.3098    0.0951 H   0  0  0  0  0  0  0  0  0  0  0  0
  1  2  1  0  0  0  0
  1 36  1  0  0  0  0
  2  3  2  0  0  0  0
  3 37  1  0  0  0  0
  4  3  1  0  0  0  0
  4 38  1  0  0  0  0
  5  4  2  0  0  0  0
  6  7  2  0  0  0  0
  6  5  1  0  0  0  0
  7  2  1  0  0  0  0
  8  9  1  0  0  0  0
  8  6  1  0  0  0  0
  9 43  1  0  0  0  0
  9 10  1  0  0  0  0
 10 30  1  0  0  0  0
 10 11  1  0  0  0  0
 11 13  1  0  0  0  0
 11  5  1  0  0  0  0
 11 12  1  1  0  0  0
 13 18  2  0  0  0  0
 14 15  2  0  0  0  0
 14 13  1  0  0  0  0
 15 16  1  0  0  0  0
 16 19  1  0  0  0  0
 16 17  2  0  0  0  0
 17 46  1  0  0  0  0
 18 17  1  0  0  0  0
 18 47  1  0  0  0  0
 19 25  1  0  0  0  0
 20 48  1  0  0  0  0
 20 19  1  0  0  0  0
 21 20  1  0  0  0  0
 22 21  1  6  0  0  0
 22 23  1  0  0  0  0
 23 24  1  6  0  0  0
 23 25  1  0  0  0  0
 23 26  1  0  0  0  0
 25 53  1  0  0  0  0
 25 52  1  0  0  0  0
 26 55  1  0  0  0  0
 26 54  1  0  0  0  0
 27 57  1  0  0  0  0
 27 26  1  0  0  0  0
 28 59  1  0  0  0  0
 28 27  1  0  0  0  0
 29 22  1  0  0  0  0
 29 28  1  0  0  0  0
 30 35  2  0  0  0  0
 31 32  2  0  0  0  0
 31 30  1  0  0  0  0
 32 33  1  0  0  0  0
 33 64  1  0  0  0  0
 33 34  2  0  0  0  0
 34 65  1  0  0  0  0
 35 34  1  0  0  0  0
 35 66  1  0  0  0  0
 39  7  1  0  0  0  0
 40  8  1  0  0  0  0
 41  8  1  0  0  0  0
 42  9  1  0  0  0  0
 44 14  1  0  0  0  0
 45 15  1  0  0  0  0
 49 20  1  0  0  0  0
 50 21  1  0  0  0  0
 51 21  1  0  0  0  0
 56 27  1  0  0  0  0
 58 28  1  0  0  0  0
 60 29  1  0  0  0  0
 61 29  1  0  0  0  0
 62 31  1  0  0  0  0
 63 32  1  0  0  0  0
M  END
$$$$
