rmsd32.gzmat
 OpenBabel08211713423D

 66 71  0  0  1  0  0  0  0  0999 V2000
    0.0000    0.0000    0.0000 O   0  0  0  0  0  0  0  0  0  0  0  0
    1.3589    0.0000    0.0000 C   0  0  0  0  0  0  0  0  0  0  0  0
    2.1067    0.0000    1.1783 C   0  0  0  0  0  0  0  0  0  0  0  0
    3.4961   -0.0075    1.0779 C   0  0  0  0  0  0  0  0  0  0  0  0
    4.1145   -0.0152   -0.1705 C   0  0  0  0  0  0  0  0  0  0  0  0
    3.3384    0.0108   -1.3374 C   0  0  0  0  0  0  0  0  0  0  0  0
    1.9514    0.0126   -1.2669 C   0  0  0  0  0  0  0  0  0  0  0  0
    4.0630    0.0836   -2.6389 C   0  0  0  0  0  0  0  0  0  0  0  0
    5.2360    1.0667   -2.4670 C   0  0  0  0  0  0  0  0  0  0  0  0
    6.1902    0.5428   -1.4748 N   0  0  0  0  0  0  0  0  0  0  0  0
    5.6216   -0.0887   -0.2570 C   0  0  2  0  0  0  0  0  0  0  0  0
    6.0540    0.4357    0.6474 H   0  0  0  0  0  0  0  0  0  0  0  0
    6.0254   -1.5531   -0.2024 C   0  0  0  0  0  0  0  0  0  0  0  0
    6.4341   -2.2520   -1.3344 C   0  0  0  0  0  0  0  0  0  0  0  0
    6.8119   -3.5886   -1.2476 C   0  0  0  0  0  0  0  0  0  0  0  0
    6.7846   -4.2546   -0.0124 C   0  0  0  0  0  0  0  0  0  0  0  0
    6.3662   -3.5423    1.1307 C   0  0  0  0  0  0  0  0  0  0  0  0
    5.9955   -2.2105    1.0306 C   0  0  0  0  0  0  0  0  0  0  0  0
    7.2751   -5.5726    0.1651 N   0  0  0  0  0  0  0  0  0  0  0  0
    7.7516   -6.2961   -1.0277 C   0  0  0  0  0  0  0  0  0  0  0  0
    6.5951   -6.8669   -1.8833 C   0  0  0  0  0  0  0  0  0  0  0  0
    5.7502   -7.7515   -1.0395 N   0  0  1  0  0  0  0  0  0  0  0  0
    5.2088   -6.9957    0.1231 C   0  0  2  0  0  0  0  0  0  0  0  0
    4.5857   -6.1256   -0.2072 H   0  0  0  0  0  0  0  0  0  0  0  0
    6.4131   -6.4736    0.9570 C   0  0  0  0  0  0  0  0  0  0  0  0
    4.3583   -7.9273    1.0074 C   0  0  0  0  0  0  0  0  0  0  0  0
    3.2151   -8.5370    0.1900 C   0  0  0  0  0  0  0  0  0  0  0  0
    3.8045   -9.2818   -1.0117 C   0  0  0  0  0  0  0  0  0  0  0  0
    4.6531   -8.3217   -1.8639 C   0  0  0  0  0  0  0  0  0  0  0  0
    7.3907    1.2539   -1.2940 C   0  0  0  0  0  0  0  0  0  0  0  0
    8.3903    0.6936   -0.4699 C   0  0  0  0  0  0  0  0  0  0  0  0
    9.6220    1.3186   -0.3468 C   0  0  0  0  0  0  0  0  0  0  0  0
    9.8897    2.5048   -1.0314 C   0  0  0  0  0  0  0  0  0  0  0  0
    8.9072    3.0609   -1.8447 C   0  0  0  0  0  0  0  0  0  0  0  0
    7.6631    2.4515   -1.9788 C   0  0  0  0  0  0  0  0  0  0  0  0
   -0.3736   -0.0089    0.9133 H   0  0  0  0  0  0  0  0  0  0  0  0
    1.6242    0.0053    2.1481 H   0  0  0  0  0  0  0  0  0  0  0  0
    4.0967   -0.0088    1.9878 H   0  0  0  0  0  0  0  0  0  0  0  0
    1.3293    0.0280   -2.1566 H   0  0  0  0  0  0  0  0  0  0  0  0
    4.4411   -0.9250   -2.9201 H   0  0  0  0  0  0  0  0  0  0  0  0
    3.4114    0.4074   -3.4711 H   0  0  0  0  0  0  0  0  0  0  0  0
    5.7778    1.1773   -3.4353 H   0  0  0  0  0  0  0  0  0  0  0  0
    4.8448    2.0692   -2.1784 H   0  0  0  0  0  0  0  0  0  0  0  0
    6.4730   -1.7458   -2.3018 H   0  0  0  0  0  0  0  0  0  0  0  0
    7.1323   -4.0978   -2.1505 H   0  0  0  0  0  0  0  0  0  0  0  0
    6.3596   -4.0300    2.1021 H   0  0  0  0  0  0  0  0  0  0  0  0
    5.6816   -1.6763    1.9263 H   0  0  0  0  0  0  0  0  0  0  0  0
    8.3927   -7.1350   -0.6640 H   0  0  0  0  0  0  0  0  0  0  0  0
    8.4085   -5.6412   -1.6360 H   0  0  0  0  0  0  0  0  0  0  0  0
    7.0172   -7.4826   -2.7065 H   0  0  0  0  0  0  0  0  0  0  0  0
    6.0184   -6.0394   -2.3482 H   0  0  0  0  0  0  0  0  0  0  0  0
    6.0541   -5.9651    1.8730 H   0  0  0  0  0  0  0  0  0  0  0  0
    7.0420   -7.3316    1.2903 H   0  0  0  0  0  0  0  0  0  0  0  0
    3.9613   -7.3659    1.8716 H   0  0  0  0  0  0  0  0  0  0  0  0
    4.9955   -8.7353    1.4176 H   0  0  0  0  0  0  0  0  0  0  0  0
    2.5172   -7.7487   -0.1479 H   0  0  0  0  0  0  0  0  0  0  0  0
    2.6195   -9.2249    0.8166 H   0  0  0  0  0  0  0  0  0  0  0  0
    3.0061   -9.7280   -1.6294 H   0  0  0  0  0  0  0  0  0  0  0  0
    4.4376  -10.1206   -0.6612 H   0  0  0  0  0  0  0  0  0  0  0  0
    4.0044   -7.5387   -2.3117 H   0  0  0  0  0  0  0  0  0  0  0  0
    5.1199   -8.8837   -2.7025 H   0  0  0  0  0  0  0  0  0  0  0  0
    8.2095   -0.2488    0.0450 H   0  0  0  0  0  0  0  0  0  0  0  0
   10.3897    0.8751    0.2867 H   0  0  0  0  0  0  0  0  0  0  0  0
   10.8561    2.9875   -0.9306 H   0  0  0  0  0  0  0  0  0  0  0  0
    9.1086    3.9876   -2.3807 H   0  0  0  0  0  0  0  0  0  0  0  0
    6.9149    2.9218   -2.6066 H   0  0  0  0  0  0  0  0  0  0  0  0
  1 36  1  0  0  0  0
  2  1  1  0  0  0  0
  2  3  2  0  0  0  0
  3 37  1  0  0  0  0
  4  3  1  0  0  0  0
  4 38  1  0  0  0  0
  5  4  2  0  0  0  0
  6  7  2  0  0  0  0
  6  5  1  0  0  0  0
  7  2  1  0  0  0  0
  8  9  1  0  0  0  0
  8  6  1  0  0  0  0
  9 43  1  0  0  0  0
  9 10  1  0  0  0  0
 10 30  1  0  0  0  0
 10 11  1  0  0  0  0
 11 13  1  0  0  0  0
 11  5  1  0  0  0  0
 11 12  1  1  0  0  0
 13 18  2  0  0  0  0
 14 15  2  0  0  0  0
 14 13  1  0  0  0  0
 15 16  1  0  0  0  0
 16 19  1  0  0  0  0
 16 17  2  0  0  0  0
 17 46  1  0  0  0  0
 18 17  1  0  0  0  0
 18 47  1  0  0  0  0
 19 25  1  0  0  0  0
 20 48  1  0  0  0  0
 20 19  1  0  0  0  0
 21 20  1  0  0  0  0
 22 21  1  6  0  0  0
 22 23  1  0  0  0  0
 23 24  1  6  0  0  0
 23 25  1  0  0  0  0
 23 26  1  0  0  0  0
 25 53  1  0  0  0  0
 25 52  1  0  0  0  0
 26 55  1  0  0  0  0
 26 54  1  0  0  0  0
 27 57  1  0  0  0  0
 27 26  1  0  0  0  0
 28 59  1  0  0  0  0
 28 27  1  0  0  0  0
 29 22  1  0  0  0  0
 29 28  1  0  0  0  0
 30 31  2  0  0  0  0
 31 32  1  0  0  0  0
 31 62  1  0  0  0  0
 32 63  1  0  0  0  0
 33 64  1  0  0  0  0
 33 32  2  0  0  0  0
 34 33  1  0  0  0  0
 35 34  2  0  0  0  0
 35 30  1  0  0  0  0
 39  7  1  0  0  0  0
 40  8  1  0  0  0  0
 41  8  1  0  0  0  0
 42  9  1  0  0  0  0
 44 14  1  0  0  0  0
 45 15  1  0  0  0  0
 49 20  1  0  0  0  0
 50 21  1  0  0  0  0
 51 21  1  0  0  0  0
 56 27  1  0  0  0  0
 58 28  1  0  0  0  0
 60 29  1  0  0  0  0
 61 29  1  0  0  0  0
 65 34  1  0  0  0  0
 66 35  1  0  0  0  0
M  END
$$$$
