66
rmsd35.gzmat
O          0.00000        0.00000        0.00000
C          1.35900        0.00000        0.00000
C          2.10640        0.00000        1.17860
C          3.49540       -0.00960        1.07810
C          4.11550       -0.02300       -0.17060
C          3.34030        0.00160       -1.33720
C          1.95250        0.00840       -1.26580
C          4.05700        0.05150       -2.64400
C          5.28060        0.97330       -2.48970
N          6.21430        0.41030       -1.49970
C          5.62290       -0.11980       -0.24480
H          6.05590        0.46100        0.62330
C          5.98860       -1.58670       -0.09000
C          6.24840       -2.40250       -1.18780
C          6.56140       -3.74660       -1.01560
C          6.62670       -4.30360        0.27330
C          6.36870       -3.46890        1.38010
C          6.05870       -2.13020        1.19460
N          7.06690       -5.62940        0.50410
C          7.22180       -6.51390       -0.66690
C          5.86020       -7.02860       -1.19110
N          5.16560       -7.75780       -0.09870
C          4.96470       -6.87140        1.08040
H          4.32960       -5.98530        0.82440
C          6.35830       -6.37760        1.56230
C          4.29990       -7.66770        2.22000
C          2.95680       -8.23920        1.75480
C          3.18400       -9.10480        0.51180
C          3.86510       -8.27850       -0.59360
C          7.47110        1.03110       -1.37080
C          7.83420        2.15330       -2.13750
C          9.12450        2.66780       -2.05170
C         10.06760        2.09170       -1.20650
C          9.71210        0.97940       -0.44240
C          8.43250        0.44980       -0.51560
H         -0.37330       -0.00640        0.91330
H          1.62290        0.00260        2.14800
H          4.09540       -0.01390        1.98840
H          1.32990        0.01950       -2.15530
H          4.37990       -0.97260       -2.93750
H          3.41060        0.41370       -3.46530
H          5.81680        1.04310       -3.46540
H          4.94720        1.99850       -2.20960
H          6.22150       -1.98030       -2.19480
H          6.76090       -4.34970       -1.89540
H          6.43250       -3.86410        2.39030
H          5.87040       -1.50190        2.06430
H          7.84990       -7.37930       -0.34620
H          7.78970       -5.99900       -1.46800
H          6.03070       -7.74300       -2.02450
H          5.26310       -6.18320       -1.59400
H          6.25280       -5.76210        2.47690
H          6.99470       -7.25040        1.83900
H          4.16040       -7.01860        3.10190
H          4.96850       -8.49310        2.53430
H          2.24450       -7.42330        1.53260
H          2.49490       -8.83710        2.56130
H          2.23080       -9.51670        0.13840
H          3.82220       -9.97260        0.77010
H          3.18470       -7.47000       -0.93710
H          4.07270       -8.93040       -1.47010
H          7.12270        2.63910       -2.79510
H          9.39500        3.53570       -2.65200
H         11.07010        2.50130       -1.14280
H         10.44860        0.51750        0.21480
H          8.18620       -0.43860        0.06390
