66
rmsd27.gzmat
O          0.00000        0.00000        0.00000
C          1.35940        0.00000        0.00000
C          2.10540        0.00000        1.17910
C          3.49680       -0.00490        1.08260
C          4.10680       -0.02210       -0.16640
C          3.33510       -0.00210       -1.33810
C          1.94930        0.00410       -1.26970
C          4.08350        0.02430       -2.62780
C          5.22130        1.06120       -2.53540
N          6.01600        0.96270       -1.29140
C          5.61090       -0.06450       -0.31410
H          6.08760        0.22930        0.66960
C          6.04200       -1.48530       -0.63960
C          6.85890       -1.79410       -1.72260
C          7.25220       -3.10550       -1.97070
C          6.82860       -4.14570       -1.12880
C          6.00100       -3.82900       -0.03130
C          5.62070       -2.51770        0.20500
N          7.29490       -5.47620       -1.25840
C          8.20430       -5.77890       -2.37820
C          7.45770       -5.92930       -3.72480
N          6.43580       -6.99920       -3.59600
C          5.47450       -6.68020       -2.50530
H          4.92190       -5.72830       -2.70910
C          6.26770       -6.53320       -1.17510
C          4.46870       -7.83780       -2.35120
C          3.71980       -8.07100       -3.66720
C          4.73520       -8.34250       -4.78160
C          5.72560       -7.17000       -4.89000
C          7.36380        1.33770       -1.36140
C          8.33120        0.80300       -0.48550
C          9.63690        1.27490       -0.51340
C         10.01730        2.26910       -1.41260
C          9.06860        2.79760       -2.28510
C          7.75500        2.34650       -2.26800
H         -0.37410        0.00990        0.91260
H          1.62020        0.00890        2.14730
H          4.09950        0.00870        1.99090
H          1.32590        0.01380       -2.15820
H          4.49990       -0.98870       -2.83370
H          3.43140        0.26370       -3.48880
H          5.87410        0.96270       -3.43240
H          4.78100        2.08820       -2.54960
H          7.21290       -1.00820       -2.39170
H          7.89620       -3.30150       -2.82250
H          5.67790       -4.61230        0.64970
H          4.98090       -2.29150        1.05890
H          8.71960       -6.73800       -2.12990
H          8.99820       -5.00710       -2.44750
H          8.18050       -6.23750       -4.51080
H          7.02390       -4.95550       -4.03540
H          5.57060       -6.33540       -0.33670
H          6.79140       -7.48940       -0.94130
H          3.75960       -7.61440       -1.53510
H          5.00820       -8.76090       -2.06110
H          3.09630       -7.19300       -3.91770
H          3.02310       -8.92270       -3.56560
H          4.22770       -8.49800       -5.74900
H          5.29290       -9.27500       -4.56460
H          5.19080       -6.24980       -5.20880
H          6.48690       -7.39690       -5.66800
H          8.07620        0.00400        0.20540
H         10.37290        0.85580        0.17240
H         11.04040        2.62790       -1.43240
H          9.35770        3.57710       -2.98910
H          7.03270        2.79630       -2.94040
