66
rmsd6.gzmat
O          0.00000        0.00000        0.00000
C          1.35930        0.00000        0.00000
C          2.10650        0.00000        1.17830
C          3.49780       -0.00410        1.07980
C          4.10810       -0.02040       -0.16920
C          3.33480        0.00070       -1.33960
C          1.94910        0.00850       -1.26980
C          4.07820        0.02500       -2.63210
C          5.22760        1.04820       -2.54100
N          6.03360        0.93320       -1.30560
C          5.61230       -0.07180       -0.31310
H          6.08940        0.23980        0.66530
C          6.02720       -1.50440       -0.60550
C          6.75070       -1.86540       -1.74070
C          7.14140       -3.18120       -1.94680
C          6.81640       -4.18090       -1.00970
C          6.06220       -3.81530        0.12070
C          5.67920       -2.49460        0.31410
N          7.15960       -5.52770       -1.28340
C          7.00940       -6.49860       -0.18070
C          8.11710       -6.32960        0.88670
N          9.44570       -6.50000        0.24310
C          9.62770       -5.52210       -0.86530
H          9.58540       -4.46590       -0.49420
C          8.48770       -5.74030       -1.89880
C         10.98360       -5.76980       -1.55280
C         12.11980       -5.61570       -0.53680
C         11.89040       -6.59370        0.61970
C         10.51490       -6.34640        1.26380
C          7.39290        1.26140       -1.40160
C          7.78950        2.28280       -2.29190
C          9.11750        2.68540       -2.34490
C         10.07690        2.09200       -1.52660
C          9.69080        1.08800       -0.64120
C          8.36790        0.67040       -0.57180
H         -0.37440       -0.01370        0.91230
H          1.62280        0.00840        2.14720
H          4.10090        0.00840        1.98740
H          1.32480        0.02290       -2.15760
H          4.47860       -0.99280       -2.84590
H          3.42460        0.27760       -3.48860
H          5.87090        0.95080       -3.44480
H          4.79790        2.07990       -2.54380
H          7.03280       -1.11200       -2.47770
H          7.69540       -3.43250       -2.84800
H          5.76420       -4.55780        0.85480
H          5.09510       -2.23360        1.19760
H          7.06900       -7.52030       -0.62580
H          6.00100       -6.41660        0.27220
H          8.00890       -7.11860        1.66120
H          8.00710       -5.34790        1.39440
H          8.62370       -5.07850       -2.77670
H          8.51980       -6.78550       -2.28410
H         11.11510       -5.06790       -2.39470
H         11.00300       -6.79040       -1.98300
H         12.16500       -4.57640       -0.16220
H         13.09500       -5.81090       -1.01830
H         12.68390       -6.49690        1.38050
H         11.93710       -7.63530        0.24500
H         10.49740       -5.34890        1.75270
H         10.33700       -7.10690        2.05560
H          7.05890        2.78130       -2.92010
H          9.40980        3.47670       -3.03410
H         11.11260        2.40920       -1.57750
H         10.43560        0.61680       -0.00020
H          8.10470       -0.12950        0.11480
