66
rmsd32.gzmat
O          0.00000        0.00000        0.00000
C          1.35890        0.00000        0.00000
C          2.10670        0.00000        1.17830
C          3.49610       -0.00750        1.07790
C          4.11450       -0.01520       -0.17050
C          3.33840        0.01080       -1.33740
C          1.95140        0.01260       -1.26690
C          4.06300        0.08360       -2.63890
C          5.23600        1.06670       -2.46700
N          6.19020        0.54280       -1.47480
C          5.62160       -0.08870       -0.25700
H          6.05400        0.43570        0.64740
C          6.02540       -1.55310       -0.20240
C          6.43410       -2.25200       -1.33440
C          6.81190       -3.58860       -1.24760
C          6.78460       -4.25460       -0.01240
C          6.36620       -3.54230        1.13070
C          5.99550       -2.21050        1.03060
N          7.27510       -5.57260        0.16510
C          7.75160       -6.29610       -1.02770
C          6.59510       -6.86690       -1.88330
N          5.75020       -7.75150       -1.03950
C          5.20880       -6.99570        0.12310
H          4.58570       -6.12560       -0.20720
C          6.41310       -6.47360        0.95700
C          4.35830       -7.92730        1.00740
C          3.21510       -8.53700        0.19000
C          3.80450       -9.28180       -1.01170
C          4.65310       -8.32170       -1.86390
C          7.39070        1.25390       -1.29400
C          8.39030        0.69360       -0.46990
C          9.62200        1.31860       -0.34680
C          9.88970        2.50480       -1.03140
C          8.90720        3.06090       -1.84470
C          7.66310        2.45150       -1.97880
H         -0.37360       -0.00890        0.91330
H          1.62420        0.00530        2.14810
H          4.09670       -0.00880        1.98780
H          1.32930        0.02800       -2.15660
H          4.44110       -0.92500       -2.92010
H          3.41140        0.40740       -3.47110
H          5.77780        1.17730       -3.43530
H          4.84480        2.06920       -2.17840
H          6.47300       -1.74580       -2.30180
H          7.13230       -4.09780       -2.15050
H          6.35960       -4.03000        2.10210
H          5.68160       -1.67630        1.92630
H          8.39270       -7.13500       -0.66400
H          8.40850       -5.64120       -1.63600
H          7.01720       -7.48260       -2.70650
H          6.01840       -6.03940       -2.34820
H          6.05410       -5.96510        1.87300
H          7.04200       -7.33160        1.29030
H          3.96130       -7.36590        1.87160
H          4.99550       -8.73530        1.41760
H          2.51720       -7.74870       -0.14790
H          2.61950       -9.22490        0.81660
H          3.00610       -9.72800       -1.62940
H          4.43760      -10.12060       -0.66120
H          4.00440       -7.53870       -2.31170
H          5.11990       -8.88370       -2.70250
H          8.20950       -0.24880        0.04500
H         10.38970        0.87510        0.28670
H         10.85610        2.98750       -0.93060
H          9.10860        3.98760       -2.38070
H          6.91490        2.92180       -2.60660
