66
rmsd20.gzmat
O          0.00000        0.00000        0.00000
C          1.35880        0.00000        0.00000
C          2.10670        0.00000        1.17850
C          3.49580       -0.00430        1.07800
C          4.11540       -0.01140       -0.17080
C          3.33970        0.01500       -1.33710
C          1.95210        0.01370       -1.26610
C          4.05520        0.07640       -2.64390
C          5.27660        1.00010       -2.48390
N          6.21100        0.43480       -1.49680
C          5.62240       -0.10510       -0.24510
H          6.05640        0.47000        0.62640
C          5.99350       -1.57220       -0.10630
C          6.22190       -2.37840       -1.22120
C          6.57540       -3.71140       -1.06990
C          6.71710       -4.27350        0.21430
C          6.46470       -3.45880        1.33300
C          6.10620       -2.12630        1.16760
N          7.00120       -5.65600        0.34140
C          7.39070       -6.14710        1.67840
C          8.83490       -5.73070        2.04860
N          9.77590       -6.25090        1.02240
C          9.40960       -5.75380       -0.33250
H          9.46170       -4.63570       -0.38840
C          7.95690       -6.20990       -0.64170
C         10.36080       -6.36420       -1.37890
C         11.80550       -5.96570       -1.06200
C         12.15350       -6.44190        0.35190
C         11.16410       -5.85110        1.37240
C          7.47490        1.03780       -1.37790
C          7.85120        2.14170       -2.16550
C          9.15020        2.63590       -2.09700
C         10.08850        2.06170       -1.24480
C          9.71840        0.97250       -0.45520
C          8.43130        0.45970       -0.51470
H         -0.37350       -0.01450        0.91330
H          1.62350        0.00060        2.14820
H          4.09710       -0.00800        1.98750
H          1.32960        0.02400       -2.15580
H          4.37940       -0.94450       -2.94620
H          3.40780        0.44360       -3.46230
H          5.81060        1.07610       -3.46010
H          4.94180        2.02270       -2.19670
H          6.13950       -1.95170       -2.22290
H          6.73030       -4.32020       -1.95710
H          6.54360       -3.85660        2.33960
H          5.91890       -1.51410        2.04890
H          7.31450       -7.26030        1.65890
H          6.66750       -5.80090        2.44400
H          9.11120       -6.18560        3.02380
H          8.89220       -4.62760        2.16620
H          7.66980       -5.92290       -1.67220
H          7.88850       -7.32110       -0.59280
H         10.07560       -6.02870       -2.39110
H         10.26760       -7.46790       -1.37050
H         11.93000       -4.87000       -1.14420
H         12.49760       -6.40870       -1.80050
H         13.18520       -6.15650        0.62060
H         12.11100       -7.54810        0.39700
H         11.29020       -4.74840        1.42640
H         11.38740       -6.25930        2.38250
H          7.14250        2.62810       -2.82580
H          9.43140        3.48590       -2.71720
H         11.09800        2.45490       -1.19570
H         10.44920        0.51600        0.21190
H          8.17480       -0.41320        0.08260
