rmsd21.gzmat
 OpenBabel08211713423D

 66 71  0  0  1  0  0  0  0  0999 V2000
    0.0000    0.0000    0.0000 O   0  0  0  0  0  0  0  0  0  0  0  0
    1.3595    0.0000    0.0000 C   0  0  0  0  0  0  0  0  0  0  0  0
    2.1059    0.0000    1.1788 C   0  0  0  0  0  0  0  0  0  0  0  0
    3.4972   -0.0043    1.0813 C   0  0  0  0  0  0  0  0  0  0  0  0
    4.1078   -0.0212   -0.1679 C   0  0  0  0  0  0  0  0  0  0  0  0
    3.3352   -0.0019   -1.3386 C   0  0  0  0  0  0  0  0  0  0  0  0
    1.9492    0.0049   -1.2690 C   0  0  0  0  0  0  0  0  0  0  0  0
    4.0746    0.0149   -2.6337 C   0  0  0  0  0  0  0  0  0  0  0  0
    5.2378    1.0232   -2.5492 C   0  0  0  0  0  0  0  0  0  0  0  0
    6.0384    0.9087   -1.3119 N   0  0  0  0  0  0  0  0  0  0  0  0
    5.6127   -0.0837   -0.3112 C   0  0  2  0  0  0  0  0  0  0  0  0
    6.0944    0.2286    0.6643 H   0  0  0  0  0  0  0  0  0  0  0  0
    6.0003   -1.5253   -0.5965 C   0  0  0  0  0  0  0  0  0  0  0  0
    6.6841   -1.9159   -1.7428 C   0  0  0  0  0  0  0  0  0  0  0  0
    6.9700   -3.2573   -1.9812 C   0  0  0  0  0  0  0  0  0  0  0  0
    6.5777   -4.2426   -1.0609 C   0  0  0  0  0  0  0  0  0  0  0  0
    5.9274   -3.8353    0.1231 C   0  0  0  0  0  0  0  0  0  0  0  0
    5.6442   -2.4977    0.3436 C   0  0  0  0  0  0  0  0  0  0  0  0
    6.9042   -5.6123   -1.2154 N   0  0  0  0  0  0  0  0  0  0  0  0
    7.5281   -6.0298   -2.4854 C   0  0  0  0  0  0  0  0  0  0  0  0
    6.5069   -6.1182   -3.6456 C   0  0  0  0  0  0  0  0  0  0  0  0
    5.4165   -7.0564   -3.2710 N   0  0  1  0  0  0  0  0  0  0  0  0
    4.7489   -6.6048   -2.0194 C   0  0  2  0  0  0  0  0  0  0  0  0
    4.3027   -5.5840   -2.1366 H   0  0  0  0  0  0  0  0  0  0  0  0
    5.8196   -6.5639   -0.8928 C   0  0  0  0  0  0  0  0  0  0  0  0
    3.6456   -7.6030   -1.6216 C   0  0  0  0  0  0  0  0  0  0  0  0
    2.6198   -7.7359   -2.7513 C   0  0  0  0  0  0  0  0  0  0  0  0
    3.3395   -8.1687   -4.0324 C   0  0  0  0  0  0  0  0  0  0  0  0
    4.4418   -7.1552   -4.3883 C   0  0  0  0  0  0  0  0  0  0  0  0
    7.3912    1.2616   -1.3894 C   0  0  0  0  0  0  0  0  0  0  0  0
    7.7793    2.3017   -2.2619 C   0  0  0  0  0  0  0  0  0  0  0  0
    9.0950    2.7459   -2.2740 C   0  0  0  0  0  0  0  0  0  0  0  0
   10.0498    2.1745   -1.4351 C   0  0  0  0  0  0  0  0  0  0  0  0
    9.6737    1.1429   -0.5775 C   0  0  0  0  0  0  0  0  0  0  0  0
    8.3641    0.6807   -0.5512 C   0  0  0  0  0  0  0  0  0  0  0  0
   -0.3735    0.0083    0.9129 H   0  0  0  0  0  0  0  0  0  0  0  0
    1.6206    0.0062    2.1471 H   0  0  0  0  0  0  0  0  0  0  0  0
    4.0996    0.0077    1.9895 H   0  0  0  0  0  0  0  0  0  0  0  0
    1.3255    0.0145   -2.1573 H   0  0  0  0  0  0  0  0  0  0  0  0
    4.4610   -1.0074   -2.8498 H   0  0  0  0  0  0  0  0  0  0  0  0
    3.4199    0.2761   -3.4872 H   0  0  0  0  0  0  0  0  0  0  0  0
    5.8843    0.9076   -3.4487 H   0  0  0  0  0  0  0  0  0  0  0  0
    4.8214    2.0606   -2.5631 H   0  0  0  0  0  0  0  0  0  0  0  0
    7.0090   -1.1719   -2.4718 H   0  0  0  0  0  0  0  0  0  0  0  0
    7.5024   -3.5218   -2.8897 H   0  0  0  0  0  0  0  0  0  0  0  0
    5.6593   -4.5704    0.8786 H   0  0  0  0  0  0  0  0  0  0  0  0
    5.1281   -2.2039    1.2581 H   0  0  0  0  0  0  0  0  0  0  0  0
    7.9818   -7.0352   -2.3117 H   0  0  0  0  0  0  0  0  0  0  0  0
    8.3664   -5.3513   -2.7438 H   0  0  0  0  0  0  0  0  0  0  0  0
    7.0118   -6.5249   -4.5481 H   0  0  0  0  0  0  0  0  0  0  0  0
    6.1315   -5.1050   -3.9032 H   0  0  0  0  0  0  0  0  0  0  0  0
    5.3492   -6.3094    0.0771 H   0  0  0  0  0  0  0  0  0  0  0  0
    6.2803   -7.5713   -0.7698 H   0  0  0  0  0  0  0  0  0  0  0  0
    3.1567   -7.2690   -0.6892 H   0  0  0  0  0  0  0  0  0  0  0  0
    4.0964   -8.5919   -1.4081 H   0  0  0  0  0  0  0  0  0  0  0  0
    2.0925   -6.7768   -2.9090 H   0  0  0  0  0  0  0  0  0  0  0  0
    1.8423   -8.4719   -2.4783 H   0  0  0  0  0  0  0  0  0  0  0  0
    2.6288   -8.2613   -4.8719 H   0  0  0  0  0  0  0  0  0  0  0  0
    3.7902   -9.1709   -3.8922 H   0  0  0  0  0  0  0  0  0  0  0  0
    3.9865   -6.1747   -4.6442 H   0  0  0  0  0  0  0  0  0  0  0  0
    4.9942   -7.5082   -5.2866 H   0  0  0  0  0  0  0  0  0  0  0  0
    7.0505    2.7831   -2.9048 H   0  0  0  0  0  0  0  0  0  0  0  0
    9.3817    3.5561   -2.9433 H   0  0  0  0  0  0  0  0  0  0  0  0
   11.0740    2.5307   -1.4485 H   0  0  0  0  0  0  0  0  0  0  0  0
   10.4160    0.6880    0.0780 H   0  0  0  0  0  0  0  0  0  0  0  0
    8.1096   -0.1445    0.1080 H   0  0  0  0  0  0  0  0  0  0  0  0
  1  2  1  0  0  0  0
  1 36  1  0  0  0  0
  2  3  2  0  0  0  0
  3 37  1  0  0  0  0
  4  3  1  0  0  0  0
  4 38  1  0  0  0  0
  5  4  2  0  0  0  0
  6  7  2  0  0  0  0
  6  5  1  0  0  0  0
  7  2  1  0  0  0  0
  8  9  1  0  0  0  0
  8  6  1  0  0  0  0
  9 10  1  0  0  0  0
 10 11  1  0  0  0  0
 11  5  1  0  0  0  0
 11 12  1  1  0  0  0
 13 11  1  0  0  0  0
 13 18  2  0  0  0  0
 14 13  1  0  0  0  0
 15 14  2  0  0  0  0
 15 16  1  0  0  0  0
 16 17  2  0  0  0  0
 17 18  1  0  0  0  0
 17 46  1  0  0  0  0
 18 47  1  0  0  0  0
 19 16  1  0  0  0  0
 19 25  1  0  0  0  0
 20 48  1  0  0  0  0
 20 19  1  0  0  0  0
 21 20  1  0  0  0  0
 22 21  1  6  0  0  0
 22 23  1  0  0  0  0
 23 24  1  6  0  0  0
 23 26  1  0  0  0  0
 23 25  1  0  0  0  0
 25 53  1  0  0  0  0
 25 52  1  0  0  0  0
 26 55  1  0  0  0  0
 26 54  1  0  0  0  0
 27 57  1  0  0  0  0
 27 26  1  0  0  0  0
 28 59  1  0  0  0  0
 28 27  1  0  0  0  0
 29 28  1  0  0  0  0
 29 22  1  0  0  0  0
 30 10  1  0  0  0  0
 30 35  2  0  0  0  0
 31 30  1  0  0  0  0
 32 31  2  0  0  0  0
 32 33  1  0  0  0  0
 33 34  2  0  0  0  0
 34 35  1  0  0  0  0
 34 65  1  0  0  0  0
 35 66  1  0  0  0  0
 39  7  1  0  0  0  0
 40  8  1  0  0  0  0
 41  8  1  0  0  0  0
 42  9  1  0  0  0  0
 43  9  1  0  0  0  0
 44 14  1  0  0  0  0
 45 15  1  0  0  0  0
 49 20  1  0  0  0  0
 50 21  1  0  0  0  0
 51 21  1  0  0  0  0
 56 27  1  0  0  0  0
 58 28  1  0  0  0  0
 60 29  1  0  0  0  0
 61 29  1  0  0  0  0
 62 31  1  0  0  0  0
 63 32  1  0  0  0  0
 64 33  1  0  0  0  0
M  END
$$$$
