rmsd31.gzmat
 OpenBabel08211713423D

 66 71  0  0  1  0  0  0  0  0999 V2000
    0.0000    0.0000    0.0000 O   0  0  0  0  0  0  0  0  0  0  0  0
    1.3588    0.0000    0.0000 C   0  0  0  0  0  0  0  0  0  0  0  0
    2.1071    0.0000    1.1778 C   0  0  0  0  0  0  0  0  0  0  0  0
    3.4969   -0.0071    1.0770 C   0  0  0  0  0  0  0  0  0  0  0  0
    4.1136   -0.0210   -0.1719 C   0  0  0  0  0  0  0  0  0  0  0  0
    3.3370    0.0098   -1.3388 C   0  0  0  0  0  0  0  0  0  0  0  0
    1.9504    0.0146   -1.2675 C   0  0  0  0  0  0  0  0  0  0  0  0
    4.0658    0.0835   -2.6380 C   0  0  0  0  0  0  0  0  0  0  0  0
    5.2358    1.0701   -2.4608 C   0  0  0  0  0  0  0  0  0  0  0  0
    6.1884    0.5474   -1.4672 N   0  0  0  0  0  0  0  0  0  0  0  0
    5.6197   -0.1133   -0.2667 C   0  0  2  0  0  0  0  0  0  0  0  0
    6.0643    0.3760    0.6509 H   0  0  0  0  0  0  0  0  0  0  0  0
    6.0011   -1.5850   -0.2577 C   0  0  0  0  0  0  0  0  0  0  0  0
    6.4735   -2.2389   -1.3914 C   0  0  0  0  0  0  0  0  0  0  0  0
    6.8194   -3.5865   -1.3436 C   0  0  0  0  0  0  0  0  0  0  0  0
    6.6935   -4.3083   -0.1470 C   0  0  0  0  0  0  0  0  0  0  0  0
    6.2155   -3.6403    0.9995 C   0  0  0  0  0  0  0  0  0  0  0  0
    5.8807   -2.2970    0.9394 C   0  0  0  0  0  0  0  0  0  0  0  0
    7.1378   -5.6463    0.0024 N   0  0  0  0  0  0  0  0  0  0  0  0
    7.7125   -6.3201   -1.1758 C   0  0  0  0  0  0  0  0  0  0  0  0
    6.6377   -6.8350   -2.1639 C   0  0  0  0  0  0  0  0  0  0  0  0
    5.6961   -7.7333   -1.4461 N   0  0  1  0  0  0  0  0  0  0  0  0
    5.0579   -7.0130   -0.3106 C   0  0  2  0  0  0  0  0  0  0  0  0
    4.4912   -6.1129   -0.6612 H   0  0  0  0  0  0  0  0  0  0  0  0
    6.1846   -6.5616    0.6615 C   0  0  0  0  0  0  0  0  0  0  0  0
    4.1036   -7.9565    0.4455 C   0  0  0  0  0  0  0  0  0  0  0  0
    3.0365   -8.5049   -0.5064 C   0  0  0  0  0  0  0  0  0  0  0  0
    3.7262   -9.2151   -1.6751 C   0  0  0  0  0  0  0  0  0  0  0  0
    4.6758   -8.2441   -2.3981 C   0  0  0  0  0  0  0  0  0  0  0  0
    7.3879    1.2547   -1.2766 C   0  0  0  0  0  0  0  0  0  0  0  0
    8.3873    0.6823   -0.4597 C   0  0  0  0  0  0  0  0  0  0  0  0
    9.6238    1.2981   -0.3383 C   0  0  0  0  0  0  0  0  0  0  0  0
    9.8958    2.4883   -1.0144 C   0  0  0  0  0  0  0  0  0  0  0  0
    8.9112    3.0604   -1.8138 C   0  0  0  0  0  0  0  0  0  0  0  0
    7.6629    2.4595   -1.9481 C   0  0  0  0  0  0  0  0  0  0  0  0
   -0.3744   -0.0210    0.9126 H   0  0  0  0  0  0  0  0  0  0  0  0
    1.6243    0.0060    2.1474 H   0  0  0  0  0  0  0  0  0  0  0  0
    4.0993   -0.0017    1.9860 H   0  0  0  0  0  0  0  0  0  0  0  0
    1.3272    0.0309   -2.1564 H   0  0  0  0  0  0  0  0  0  0  0  0
    4.4482   -0.9248   -2.9160 H   0  0  0  0  0  0  0  0  0  0  0  0
    3.4170    0.4055   -3.4726 H   0  0  0  0  0  0  0  0  0  0  0  0
    5.7798    1.1864   -3.4269 H   0  0  0  0  0  0  0  0  0  0  0  0
    4.8405    2.0702   -2.1695 H   0  0  0  0  0  0  0  0  0  0  0  0
    6.5887   -1.6903   -2.3293 H   0  0  0  0  0  0  0  0  0  0  0  0
    7.1913   -4.0603   -2.2460 H   0  0  0  0  0  0  0  0  0  0  0  0
    6.1329   -4.1726    1.9435 H   0  0  0  0  0  0  0  0  0  0  0  0
    5.5211   -1.7962    1.8374 H   0  0  0  0  0  0  0  0  0  0  0  0
    8.3078   -7.1846   -0.7942 H   0  0  0  0  0  0  0  0  0  0  0  0
    8.4308   -5.6474   -1.6879 H   0  0  0  0  0  0  0  0  0  0  0  0
    7.1313   -7.4285   -2.9636 H   0  0  0  0  0  0  0  0  0  0  0  0
    6.1254   -5.9806   -2.6537 H   0  0  0  0  0  0  0  0  0  0  0  0
    5.7474   -6.0879    1.5622 H   0  0  0  0  0  0  0  0  0  0  0  0
    6.7600   -7.4500    1.0115 H   0  0  0  0  0  0  0  0  0  0  0  0
    3.6332   -7.4180    1.2872 H   0  0  0  0  0  0  0  0  0  0  0  0
    4.6796   -8.7938    0.8855 H   0  0  0  0  0  0  0  0  0  0  0  0
    2.3931   -7.6856   -0.8773 H   0  0  0  0  0  0  0  0  0  0  0  0
    2.3671   -9.2029    0.0280 H   0  0  0  0  0  0  0  0  0  0  0  0
    2.9827   -9.6141   -2.3866 H   0  0  0  0  0  0  0  0  0  0  0  0
    4.3028  -10.0837   -1.3007 H   0  0  0  0  0  0  0  0  0  0  0  0
    4.0923   -7.4287   -2.8767 H   0  0  0  0  0  0  0  0  0  0  0  0
    5.2127   -8.7852   -3.2082 H   0  0  0  0  0  0  0  0  0  0  0  0
    8.2029   -0.2627    0.0483 H   0  0  0  0  0  0  0  0  0  0  0  0
   10.3930    0.8445    0.2864 H   0  0  0  0  0  0  0  0  0  0  0  0
   10.8675    2.9609   -0.9176 H   0  0  0  0  0  0  0  0  0  0  0  0
    9.1140    3.9927   -2.3394 H   0  0  0  0  0  0  0  0  0  0  0  0
    6.9140    2.9416   -2.5655 H   0  0  0  0  0  0  0  0  0  0  0  0
  1 36  1  0  0  0  0
  2  1  1  0  0  0  0
  2  3  2  0  0  0  0
  3 37  1  0  0  0  0
  4  3  1  0  0  0  0
  4 38  1  0  0  0  0
  5  4  2  0  0  0  0
  6  7  2  0  0  0  0
  6  5  1  0  0  0  0
  7  2  1  0  0  0  0
  8  9  1  0  0  0  0
  8  6  1  0  0  0  0
  9 43  1  0  0  0  0
  9 10  1  0  0  0  0
 10 30  1  0  0  0  0
 10 11  1  0  0  0  0
 11 13  1  0  0  0  0
 11  5  1  0  0  0  0
 11 12  1  1  0  0  0
 13 18  2  0  0  0  0
 14 15  2  0  0  0  0
 14 13  1  0  0  0  0
 15 16  1  0  0  0  0
 16 19  1  0  0  0  0
 16 17  2  0  0  0  0
 17 46  1  0  0  0  0
 18 17  1  0  0  0  0
 18 47  1  0  0  0  0
 19 25  1  0  0  0  0
 20 48  1  0  0  0  0
 20 19  1  0  0  0  0
 21 20  1  0  0  0  0
 22 21  1  6  0  0  0
 22 23  1  0  0  0  0
 23 24  1  6  0  0  0
 23 26  1  0  0  0  0
 23 25  1  0  0  0  0
 25 53  1  0  0  0  0
 25 52  1  0  0  0  0
 26 55  1  0  0  0  0
 26 54  1  0  0  0  0
 27 57  1  0  0  0  0
 27 26  1  0  0  0  0
 28 59  1  0  0  0  0
 28 27  1  0  0  0  0
 29 28  1  0  0  0  0
 29 22  1  0  0  0  0
 30 31  2  0  0  0  0
 31 32  1  0  0  0  0
 31 62  1  0  0  0  0
 32 63  1  0  0  0  0
 33 64  1  0  0  0  0
 33 32  2  0  0  0  0
 34 33  1  0  0  0  0
 35 34  2  0  0  0  0
 35 30  1  0  0  0  0
 39  7  1  0  0  0  0
 40  8  1  0  0  0  0
 41  8  1  0  0  0  0
 42  9  1  0  0  0  0
 44 14  1  0  0  0  0
 45 15  1  0  0  0  0
 49 20  1  0  0  0  0
 50 21  1  0  0  0  0
 51 21  1  0  0  0  0
 56 27  1  0  0  0  0
 58 28  1  0  0  0  0
 60 29  1  0  0  0  0
 61 29  1  0  0  0  0
 65 34  1  0  0  0  0
 66 35  1  0  0  0  0
M  END
$$$$
