
     RDKit          3D

 66 71  0  0  0  0  0  0  0  0999 V2000
   -0.0331    0.8469    0.5858 O   0  0  0  0  0  0  0  0  0  0  0  0
    1.3100    0.6685    0.4814 C   0  0  0  0  0  0  0  0  0  0  0  0
    2.1741    0.7755    1.5781 C   0  0  0  0  0  0  0  0  0  0  0  0
    3.5478    0.5836    1.4021 C   0  0  0  0  0  0  0  0  0  0  0  0
    4.0695    0.2750    0.1459 C   0  0  0  0  0  0  0  0  0  0  0  0
    3.1997    0.1797   -0.9540 C   0  0  0  0  0  0  0  0  0  0  0  0
    1.8311    0.3802   -0.7887 C   0  0  0  0  0  0  0  0  0  0  0  0
    3.8514   -0.0906   -2.2811 C   0  0  0  0  0  0  0  0  0  0  0  0
    5.0913    0.7938   -2.4379 C   0  0  0  0  0  0  0  0  0  0  0  0
    6.0023    0.6571   -1.3111 N   0  0  0  0  0  0  0  0  0  0  0  0
    5.5425    0.0007   -0.0873 C   0  0  2  0  0  0  0  0  0  0  0  0
    6.0873    0.4640    0.7501 H   0  0  0  0  0  0  0  0  0  0  0  0
    5.8481   -1.5036   -0.0726 C   0  0  0  0  0  0  0  0  0  0  0  0
    6.6397   -2.1054   -1.0538 C   0  0  0  0  0  0  0  0  0  0  0  0
    6.9204   -3.4724   -1.0362 C   0  0  0  0  0  0  0  0  0  0  0  0
    6.4311   -4.3106   -0.0113 C   0  0  0  0  0  0  0  0  0  0  0  0
    5.6345   -3.6934    0.9821 C   0  0  0  0  0  0  0  0  0  0  0  0
    5.3533   -2.3322    0.9443 C   0  0  0  0  0  0  0  0  0  0  0  0
    6.7429   -5.6714    0.0572 N   0  0  0  0  0  0  0  0  0  0  0  0
    7.5172   -6.3123   -0.9931 C   0  0  0  0  0  0  0  0  0  0  0  0
    6.6097   -6.8303   -2.1066 C   0  0  0  0  0  0  0  0  0  0  0  0
    5.6172   -7.7516   -1.5697 N   0  0  0  0  0  0  0  0  0  0  0  0
    4.8402   -7.1690   -0.4709 C   0  0  2  0  0  0  0  0  0  0  0  0
    4.2345   -6.3091   -0.8474 H   0  0  0  0  0  0  0  0  0  0  0  0
    5.7892   -6.6234    0.6050 C   0  0  0  0  0  0  0  0  0  0  0  0
    3.8872   -8.2072    0.1240 C   0  0  0  0  0  0  0  0  0  0  0  0
    2.9881   -8.8328   -0.9422 C   0  0  0  0  0  0  0  0  0  0  0  0
    3.8420   -9.3882   -2.0822 C   0  0  0  0  0  0  0  0  0  0  0  0
    4.7784   -8.3105   -2.6205 C   0  0  0  0  0  0  0  0  0  0  0  0
    7.2724    1.2082   -1.3829 C   0  0  0  0  0  0  0  0  0  0  0  0
    7.6268    2.0913   -2.4309 C   0  0  0  0  0  0  0  0  0  0  0  0
    8.9067    2.6417   -2.5018 C   0  0  0  0  0  0  0  0  0  0  0  0
    9.8773    2.3409   -1.5441 C   0  0  0  0  0  0  0  0  0  0  0  0
    9.5409    1.4628   -0.5096 C   0  0  0  0  0  0  0  0  0  0  0  0
    8.2701    0.8980   -0.4263 C   0  0  0  0  0  0  0  0  0  0  0  0
   -0.2580    1.0499    1.5029 H   0  0  0  0  0  0  0  0  0  0  0  0
    1.7737    1.0177    2.5672 H   0  0  0  0  0  0  0  0  0  0  0  0
    4.2177    0.6798    2.2608 H   0  0  0  0  0  0  0  0  0  0  0  0
    1.1451    0.3221   -1.6364 H   0  0  0  0  0  0  0  0  0  0  0  0
    4.1524   -1.1507   -2.3385 H   0  0  0  0  0  0  0  0  0  0  0  0
    3.1589    0.1014   -3.1136 H   0  0  0  0  0  0  0  0  0  0  0  0
    5.6217    0.5234   -3.3675 H   0  0  0  0  0  0  0  0  0  0  0  0
    4.7625    1.8460   -2.5529 H   0  0  0  0  0  0  0  0  0  0  0  0
    7.0428   -1.4950   -1.8631 H   0  0  0  0  0  0  0  0  0  0  0  0
    7.5233   -3.8799   -1.8458 H   0  0  0  0  0  0  0  0  0  0  0  0
    5.2376   -4.2803    1.8100 H   0  0  0  0  0  0  0  0  0  0  0  0
    4.7243   -1.9079    1.7301 H   0  0  0  0  0  0  0  0  0  0  0  0
    8.0458   -7.1708   -0.5452 H   0  0  0  0  0  0  0  0  0  0  0  0
    8.2815   -5.6307   -1.3847 H   0  0  0  0  0  0  0  0  0  0  0  0
    7.2094   -7.3626   -2.8637 H   0  0  0  0  0  0  0  0  0  0  0  0
    6.1287   -5.9653   -2.6187 H   0  0  0  0  0  0  0  0  0  0  0  0
    5.2031   -6.1741    1.4136 H   0  0  0  0  0  0  0  0  0  0  0  0
    6.3501   -7.4693    1.0383 H   0  0  0  0  0  0  0  0  0  0  0  0
    3.2842   -7.7307    0.9147 H   0  0  0  0  0  0  0  0  0  0  0  0
    4.4914   -8.9965    0.6048 H   0  0  0  0  0  0  0  0  0  0  0  0
    2.3035   -8.0624   -1.3406 H   0  0  0  0  0  0  0  0  0  0  0  0
    2.3557   -9.6215   -0.5029 H   0  0  0  0  0  0  0  0  0  0  0  0
    3.2093   -9.7708   -2.8996 H   0  0  0  0  0  0  0  0  0  0  0  0
    4.4489  -10.2325   -1.7129 H   0  0  0  0  0  0  0  0  0  0  0  0
    4.1735   -7.5127   -3.1158 H   0  0  0  0  0  0  0  0  0  0  0  0
    5.4373   -8.7305   -3.3981 H   0  0  0  0  0  0  0  0  0  0  0  0
    6.8948    2.3676   -3.1882 H   0  0  0  0  0  0  0  0  0  0  0  0
    9.1419    3.3253   -3.3222 H   0  0  0  0  0  0  0  0  0  0  0  0
   10.8768    2.7760   -1.6050 H   0  0  0  0  0  0  0  0  0  0  0  0
   10.2859    1.1964    0.2450 H   0  0  0  0  0  0  0  0  0  0  0  0
    8.0637    0.1825    0.3685 H   0  0  0  0  0  0  0  0  0  0  0  0
  1  2  1  0
  1 36  1  0
  2  3  2  0
  2  7  1  0
  3  4  1  0
  3 37  1  0
  4  5  2  0
  4 38  1  0
  5  6  1  0
  5 11  1  0
  6  7  2  0
  6  8  1  0
  7 39  1  0
  8  9  1  0
  8 40  1  0
  8 41  1  0
  9 10  1  0
  9 42  1  0
  9 43  1  0
 10 11  1  0
 10 30  1  0
 11 12  1  1
 11 13  1  0
 13 14  2  0
 13 18  1  0
 14 15  1  0
 14 44  1  0
 15 16  2  0
 15 45  1  0
 16 17  1  0
 16 19  1  0
 17 18  2  0
 17 46  1  0
 18 47  1  0
 19 20  1  0
 19 25  1  0
 20 21  1  0
 20 48  1  0
 20 49  1  0
 21 22  1  0
 21 50  1  0
 21 51  1  0
 22 23  1  0
 22 29  1  0
 23 24  1  6
 23 25  1  0
 23 26  1  0
 25 52  1  0
 25 53  1  0
 26 27  1  0
 26 54  1  0
 26 55  1  0
 27 28  1  0
 27 56  1  0
 27 57  1  0
 28 29  1  0
 28 58  1  0
 28 59  1  0
 29 60  1  0
 29 61  1  0
 30 31  2  0
 30 35  1  0
 31 32  1  0
 31 62  1  0
 32 33  2  0
 32 63  1  0
 33 34  1  0
 33 64  1  0
 34 35  2  0
 34 65  1  0
 35 66  1  0
M  END

