66

O          0.01960        0.07860        0.34500
C          1.37110        0.07960        0.20370
C          2.24510        0.13640        1.29640
C          3.62680        0.13790        1.08200
C          4.14760        0.07250       -0.21010
C          3.26660        0.02630       -1.30420
C          1.88880        0.03540       -1.09940
C          3.91140        0.02250       -2.66180
C          5.03070        1.06630       -2.70560
N          5.97900        0.89260       -1.61500
C          5.63540        0.01560       -0.49520
H          6.14380        0.41810        0.39480
C          6.12110       -1.42590       -0.70370
C          6.98740       -1.76770       -1.74900
C          7.44480       -3.07110       -1.92460
C          7.06110       -4.11260       -1.05010
C          6.19310       -3.75980        0.00810
C          5.73390       -2.45320        0.16390
N          7.48880       -5.42620       -1.26090
C          7.11290       -6.49210       -0.34740
C          8.12540       -6.62790        0.78750
N          9.46120       -6.85900        0.25480
C          9.87060       -5.83180       -0.70850
H          9.94770       -4.84120       -0.19800
C          8.80860       -5.69720       -1.80890
C         11.23440       -6.17200       -1.31200
C         12.29410       -6.40010       -0.23430
C         11.80330       -7.44880        0.76410
C         10.43620       -7.05830        1.31770
C          7.16600        1.60820       -1.61530
C          7.38060        2.66550       -2.53200
C          8.57770        3.38170       -2.53210
C          9.60090        3.08070       -1.63080
C          9.40350        2.03230       -0.72720
C          8.21760        1.30140       -0.71680
H         -0.20360        0.12170        1.28380
H          1.84490        0.18820        2.31350
H          4.30330        0.19310        1.93920
H          1.19220        0.01260       -1.94010
H          4.33680       -0.97460       -2.86840
H          3.17960        0.23920       -3.45360
H          5.56670        0.99220       -3.66790
H          4.57400        2.07550       -2.67170
H          7.30900       -0.99620       -2.44990
H          8.09560       -3.27910       -2.77340
H          5.86890       -4.50660        0.73090
H          5.05350       -2.23600        0.99030
H          7.10050       -7.43620       -0.91840
H          6.09870       -6.33440        0.03840
H          7.85340       -7.47860        1.43450
H          8.09140       -5.71100        1.42020
H          9.11150       -4.91420       -2.51190
H          8.76630       -6.64560       -2.37200
H         11.53800       -5.36100       -1.99460
H         11.12550       -7.08720       -1.92010
H         12.48450       -5.45050        0.29760
H         13.25070       -6.70560       -0.68870
H         12.51820       -7.56940        1.59420
H         11.71550       -8.42680        0.26070
H         10.54210       -6.13730        1.94070
H         10.05610       -7.84650        1.98810
H          6.60240        2.94540       -3.24010
H          8.70450        4.19600       -3.25060
H         10.53490        3.64600       -1.63580
H         10.19370        1.76370       -0.02100
H          8.12290        0.46300       -0.02810
