66
rmsd29.gzmat
O          0.00000        0.00000        0.00000
C          1.35870        0.00000        0.00000
C          2.10600        0.00000        1.17840
C          3.49690       -0.01200        1.08050
C          4.11110       -0.03390       -0.16780
C          3.33540        0.00060       -1.33690
C          1.94990        0.01090       -1.26860
C          4.07970        0.07400       -2.62750
C          5.20530        1.11100       -2.45020
N          6.15080        0.68200       -1.40440
C          5.61430       -0.14010       -0.29490
H          6.08590        0.20750        0.67200
C          5.99080       -1.60110       -0.49430
C          6.83790       -2.01380       -1.51880
C          7.17380       -3.35570       -1.67030
C          6.66670       -4.32000       -0.78470
C          5.81760       -3.89540        0.25790
C          5.49120       -2.55550        0.39610
N          7.07240       -5.67640       -0.81520
C          7.95700       -6.10680       -1.91360
C          7.18980       -6.32430       -3.23990
N          6.12920       -7.34050       -3.01750
C          5.18880       -6.88500       -1.95740
H          4.69050       -5.92170       -2.23510
C          6.00150       -6.67900       -0.64660
C          4.11860       -7.96540       -1.70830
C          3.35910       -8.27220       -3.00290
C          4.36120       -8.70670       -4.07670
C          5.41320       -7.60480       -4.29190
C          7.24260        1.51450       -1.12530
C          7.40620        2.76410       -1.75290
C          8.55630        3.51200       -1.52260
C          9.55520        3.04350       -0.67390
C          9.39860        1.80410       -0.05240
C          8.26120        1.04080       -0.26930
H         -0.37380       -0.00430        0.91330
H          1.62090        0.00860        2.14710
H          4.09790       -0.00570        1.99040
H          1.32740        0.02700       -2.15790
H          4.50910       -0.92390       -2.87620
H          3.43390        0.35080       -3.48000
H          5.77810        1.21400       -3.40120
H          4.75770        2.10400       -2.21210
H          7.24970       -1.27920       -2.21630
H          7.83720       -3.63660       -2.48190
H          5.43280       -4.61490        0.97580
H          4.83300       -2.25100        1.20980
H          8.42620       -7.06930       -1.59640
H          8.78670       -5.38290       -2.04570
H          7.88860       -6.71820       -4.00880
H          6.78980       -5.35930       -3.61640
H          5.32390       -6.39330        0.18200
H          6.48690       -7.63820       -0.35040
H          3.42320       -7.63010       -0.91900
H          4.60320       -8.88890       -1.33440
H          2.79150       -7.38500       -3.33950
H          2.61050       -9.06620       -2.82900
H          3.84990       -8.92980       -5.02870
H          4.86680       -9.64170       -3.76410
H          4.92950       -6.69570       -4.70810
H          6.16450       -7.94990       -5.03590
H          6.64220        3.16460       -2.40930
H          8.67170        4.47910       -2.01090
H         10.44850        3.63350       -0.49900
H         10.18130        1.42780        0.60580
H          8.17380        0.06130        0.19580
