
     RDKit          3D

 29 30  0  0  0  0  0  0  0  0999 V2000
    0.1603   -0.3538   -0.1666 O   0  0  0  0  0  0  0  0  0  0  0  0
    1.4448   -0.7971    0.1572 C   0  0  0  0  0  0  0  0  0  0  0  0
    2.0214   -0.1803    1.4238 C   0  0  1  0  0  0  0  0  0  0  0  0
    2.8877   -0.7769    1.7657 H   0  0  0  0  0  0  0  0  0  0  0  0
    2.4583    1.1631    1.1380 O   0  0  0  0  0  0  0  0  0  0  0  0
    2.2762    2.0125    2.2227 C   0  0  1  0  0  0  0  0  0  0  0  0
    3.2439    2.3032    2.6680 H   0  0  0  0  0  0  0  0  0  0  0  0
    1.6282    3.2581    1.8317 N   0  0  0  0  0  0  0  0  0  0  0  0
    2.2336    4.4429    2.1182 C   0  0  0  0  0  0  0  0  0  0  0  0
    1.6634    5.6319    1.7907 C   0  0  0  0  0  0  0  0  0  0  0  0
    0.3925    5.5615    1.1176 C   0  0  0  0  0  0  0  0  0  0  0  0
   -0.1999    4.4175    0.8356 N   0  0  0  0  0  0  0  0  0  0  0  0
    0.3530    3.2280    1.1745 C   0  0  0  0  0  0  0  0  0  0  0  0
   -0.1666    2.1418    0.9588 O   0  0  0  0  0  0  0  0  0  0  0  0
   -0.2347    6.6999    0.7479 N   0  0  0  0  0  0  0  0  0  0  0  0
    1.5218    1.1930    3.3065 C   0  0  0  0  0  0  0  0  0  0  0  0
    0.5324    1.9052    3.8999 F   0  0  0  0  0  0  0  0  0  0  0  0
    2.4144    0.8715    4.2844 F   0  0  0  0  0  0  0  0  0  0  0  0
    1.0360   -0.0712    2.5907 C   0  0  2  0  0  0  0  0  0  0  0  0
    0.0316    0.1381    2.1964 H   0  0  0  0  0  0  0  0  0  0  0  0
    1.0927   -1.2369    3.3641 O   0  0  0  0  0  0  0  0  0  0  0  0
    0.0974    0.6066   -0.0023 H   0  0  0  0  0  0  0  0  0  0  0  0
    2.1796   -0.6131   -0.6546 H   0  0  0  0  0  0  0  0  0  0  0  0
    1.3955   -1.8886    0.3104 H   0  0  0  0  0  0  0  0  0  0  0  0
    3.2004    4.3791    2.6216 H   0  0  0  0  0  0  0  0  0  0  0  0
    2.1548    6.5765    2.0199 H   0  0  0  0  0  0  0  0  0  0  0  0
   -1.1266    6.6208    0.2753 H   0  0  0  0  0  0  0  0  0  0  0  0
    0.1584    7.6108    0.9327 H   0  0  0  0  0  0  0  0  0  0  0  0
    0.3011   -1.2792    3.9144 H   0  0  0  0  0  0  0  0  0  0  0  0
  1  2  1  0
  1 22  1  0
  2  3  1  0
  2 23  1  0
  2 24  1  0
  3  4  1  1
  3  5  1  0
  3 19  1  0
  5  6  1  0
  6  7  1  1
  6  8  1  0
  6 16  1  0
  8  9  1  0
  8 13  1  0
  9 10  2  0
  9 25  1  0
 10 11  1  0
 10 26  1  0
 11 12  2  0
 11 15  1  0
 12 13  1  0
 13 14  2  0
 15 27  1  0
 15 28  1  0
 16 17  1  0
 16 18  1  0
 16 19  1  0
 19 20  1  6
 19 21  1  0
 21 29  1  0
M  END

