rmsd16.gzmat
 OpenBabel08211713373D

 29 30  0  0  1  0  0  0  0  0999 V2000
    0.0000    0.0000    0.0000 O   0  0  0  0  0  0  0  0  0  0  0  0
    1.4108    0.0000    0.0000 C   0  0  0  0  0  0  0  0  0  0  0  0
    1.9209    0.0000    1.4429 C   0  0  1  0  0  0  0  0  0  0  0  0
    1.1034    0.2671    2.1611 H   0  0  0  0  0  0  0  0  0  0  0  0
    2.2451   -1.3527    1.7953 O   0  0  0  0  0  0  0  0  0  0  0  0
    3.6122   -1.5539    2.0227 C   0  0  1  0  0  0  0  0  0  0  0  0
    3.6523   -2.1849    2.9486 H   0  0  0  0  0  0  0  0  0  0  0  0
    4.1859   -2.2809    0.8839 N   0  0  0  0  0  0  0  0  0  0  0  0
    4.4273   -3.6252    1.0021 C   0  0  0  0  0  0  0  0  0  0  0  0
    4.8844   -4.3543   -0.0638 C   0  0  0  0  0  0  0  0  0  0  0  0
    5.0572   -3.6655   -1.3161 C   0  0  0  0  0  0  0  0  0  0  0  0
    4.8033   -2.3543   -1.4601 N   0  0  0  0  0  0  0  0  0  0  0  0
    4.3743   -1.6020   -0.4016 C   0  0  0  0  0  0  0  0  0  0  0  0
    4.1286   -0.4192   -0.4264 O   0  0  0  0  0  0  0  0  0  0  0  0
    5.4853   -4.3201   -2.4350 N   0  0  0  0  0  0  0  0  0  0  0  0
    4.2313   -0.1267    2.2166 C   0  0  0  0  0  0  0  0  0  0  0  0
    5.4356    0.0167    1.6656 F   0  0  0  0  0  0  0  0  0  0  0  0
    4.4884    0.0815    3.5134 F   0  0  0  0  0  0  0  0  0  0  0  0
    3.1651    0.8751    1.6816 C   0  0  2  0  0  0  0  0  0  0  0  0
    3.5099    1.4292    0.7805 H   0  0  0  0  0  0  0  0  0  0  0  0
    2.8054    1.7677    2.7020 O   0  0  0  0  0  0  0  0  0  0  0  0
   -0.3448   -0.8432    0.3560 H   0  0  0  0  0  0  0  0  0  0  0  0
    1.6644    0.9294   -0.5457 H   0  0  0  0  0  0  0  0  0  0  0  0
    1.7859   -0.8675   -0.5740 H   0  0  0  0  0  0  0  0  0  0  0  0
    4.2514   -4.0937    1.9818 H   0  0  0  0  0  0  0  0  0  0  0  0
    5.1032   -5.4087    0.0218 H   0  0  0  0  0  0  0  0  0  0  0  0
    5.5922   -3.8189   -3.2992 H   0  0  0  0  0  0  0  0  0  0  0  0
    5.6866   -5.2940   -2.4248 H   0  0  0  0  0  0  0  0  0  0  0  0
    3.4780    2.4765    2.8055 H   0  0  0  0  0  0  0  0  0  0  0  0
  1  2  1  0  0  0  0
  1 22  1  0  0  0  0
  2  3  1  0  0  0  0
  3 19  1  0  0  0  0
  3  5  1  0  0  0  0
  3  4  1  1  0  0  0
  5  6  1  0  0  0  0
  6 16  1  0  0  0  0
  6  7  1  1  0  0  0
  8  9  1  0  0  0  0
  8  6  1  0  0  0  0
  9 25  1  0  0  0  0
 10 26  1  0  0  0  0
 10  9  2  0  0  0  0
 11 10  1  0  0  0  0
 12 11  2  0  0  0  0
 12 13  2  0  0  0  0
 13  8  1  0  0  0  0
 14 13  2  0  0  0  0
 15 28  1  0  0  0  0
 15 11  1  0  0  0  0
 16 18  1  0  0  0  0
 17 16  1  0  0  0  0
 19 20  1  6  0  0  0
 19 16  1  0  0  0  0
 19 21  1  0  0  0  0
 21 29  1  0  0  0  0
 23  2  1  0  0  0  0
 24  2  1  0  0  0  0
 27 15  1  0  0  0  0
M  END
$$$$
