
     RDKit          3D

 29 30  0  0  0  0  0  0  0  0999 V2000
    0.0065   -0.0464   -0.1027 O   0  0  0  0  0  0  0  0  0  0  0  0
    1.3761   -0.3827   -0.0299 C   0  0  0  0  0  0  0  0  0  0  0  0
    1.8930   -0.0747    1.3620 C   0  0  1  0  0  0  0  0  0  0  0  0
    2.9379   -0.4213    1.4316 H   0  0  0  0  0  0  0  0  0  0  0  0
    1.8510    1.3381    1.5777 O   0  0  0  0  0  0  0  0  0  0  0  0
    1.1617    1.6848    2.7574 C   0  0  1  0  0  0  0  0  0  0  0  0
    1.8353    1.9027    3.5999 H   0  0  0  0  0  0  0  0  0  0  0  0
    0.3853    2.8801    2.5393 N   0  0  0  0  0  0  0  0  0  0  0  0
   -0.3662    3.0080    1.4101 C   0  0  0  0  0  0  0  0  0  0  0  0
   -1.0826    4.1403    1.1823 C   0  0  0  0  0  0  0  0  0  0  0  0
   -0.9921    5.1709    2.1853 C   0  0  0  0  0  0  0  0  0  0  0  0
   -0.2594    5.0570    3.2734 N   0  0  0  0  0  0  0  0  0  0  0  0
    0.4655    3.9328    3.5289 C   0  0  0  0  0  0  0  0  0  0  0  0
    1.1591    3.7552    4.5121 O   0  0  0  0  0  0  0  0  0  0  0  0
   -1.6815    6.3250    2.0148 N   0  0  0  0  0  0  0  0  0  0  0  0
    0.3250    0.4379    3.1110 C   0  0  0  0  0  0  0  0  0  0  0  0
   -0.9167    0.4943    2.5724 F   0  0  0  0  0  0  0  0  0  0  0  0
    0.1668    0.3033    4.4554 F   0  0  0  0  0  0  0  0  0  0  0  0
    1.1237   -0.7340    2.5213 C   0  0  2  0  0  0  0  0  0  0  0  0
    0.4240   -1.5162    2.1754 H   0  0  0  0  0  0  0  0  0  0  0  0
    2.0639   -1.2077    3.4503 O   0  0  0  0  0  0  0  0  0  0  0  0
   -0.3121   -0.2141   -0.9977 H   0  0  0  0  0  0  0  0  0  0  0  0
    1.9811    0.1986   -0.7511 H   0  0  0  0  0  0  0  0  0  0  0  0
    1.5470   -1.4588   -0.2318 H   0  0  0  0  0  0  0  0  0  0  0  0
   -0.3391    2.1624    0.7210 H   0  0  0  0  0  0  0  0  0  0  0  0
   -1.6837    4.2559    0.2811 H   0  0  0  0  0  0  0  0  0  0  0  0
   -1.6075    7.0335    2.7336 H   0  0  0  0  0  0  0  0  0  0  0  0
   -2.2752    6.4780    1.2137 H   0  0  0  0  0  0  0  0  0  0  0  0
    1.6128   -1.3339    4.2976 H   0  0  0  0  0  0  0  0  0  0  0  0
  1  2  1  0
  1 22  1  0
  2  3  1  0
  2 23  1  0
  2 24  1  0
  3  4  1  6
  3  5  1  0
  3 19  1  0
  5  6  1  0
  6  7  1  1
  6  8  1  0
  6 16  1  0
  8  9  1  0
  8 13  1  0
  9 10  2  0
  9 25  1  0
 10 11  1  0
 10 26  1  0
 11 12  2  0
 11 15  1  0
 12 13  1  0
 13 14  2  0
 15 27  1  0
 15 28  1  0
 16 17  1  0
 16 18  1  0
 16 19  1  0
 19 20  1  6
 19 21  1  0
 21 29  1  0
M  END

