29
rmsd6.gzmat
O          0.00000        0.00000        0.00000
C          1.41150        0.00000        0.00000
C          1.91940        0.00000        1.44640
H          1.12530       -0.37290        2.14460
O          2.94580       -0.99500        1.54520
C          4.19980       -0.46640        1.87800
H          4.59100       -1.15400        2.67310
N          5.06390       -0.51280        0.69300
C          5.97390       -1.53200        0.57440
C          6.75380       -1.65280       -0.54520
C          6.55220       -0.69600       -1.60210
N          5.63520        0.28280       -1.52540
C          4.85450        0.42780       -0.41150
O          4.00390        1.27000       -0.24750
N          7.28890       -0.74080       -2.75050
C          3.93420        0.98860        2.39630
F          4.86050        1.87030        2.02380
F          4.03790        1.01880        3.73060
C          2.49190        1.34500        1.93250
H          2.47650        2.15050        1.16450
O          1.70340        1.71440        3.03230
H         -0.34220        0.82520        0.40050
H          1.78550        0.84410       -0.60770
H          1.66900       -0.95060       -0.51140
H          6.06210       -2.23990        1.41190
H          7.49110       -2.43680       -0.64290
H          7.12940       -0.06360       -3.47530
H          7.98570       -1.43590       -2.89700
H          1.95010        2.60640        3.36270
