29

O         -0.37840        0.78080        0.85950
C          0.70240        0.01360        0.37850
C          1.77900       -0.10470        1.44490
H          1.31740       -0.45970        2.38620
O          2.80390       -1.01160        1.03110
C          4.05870       -0.62160        1.50220
H          4.42850       -1.32910        2.26430
N          5.05500       -0.61310        0.44470
C          6.14250       -1.42610        0.54760
C          7.09430       -1.46880       -0.42020
C          6.87700       -0.61690       -1.56250
N          5.82760        0.17000       -1.67570
C          4.87440        0.23650       -0.70880
O          3.89450        0.95740       -0.75230
N          7.77730       -0.61420       -2.57210
C          3.84610        0.73550        2.23090
F          4.85630        1.61130        2.01950
F          3.81090        0.49020        3.57190
C          2.48080        1.22270        1.74860
H          2.65580        1.77810        0.81680
O          1.72170        1.94730        2.68640
H         -0.02080        1.51070        1.38710
H          1.16180        0.43700       -0.53550
H          0.32250       -0.99000        0.12850
H          6.20130       -2.03930        1.44940
H          7.96140       -2.12200       -0.33170
H          7.59940       -0.01330       -3.36710
H          8.60060       -1.19720       -2.55520
H          2.10220        2.83110        2.77640
