29
rmsd17.gzmat
O          0.00000        0.00000        0.00000
C          1.41080        0.00000        0.00000
C          1.91880        0.00000        1.44340
H          1.11070        0.31340        2.15370
O          2.18310       -1.35950        1.81810
C          3.53740       -1.61280        2.06890
H          3.53850       -2.22790        3.00650
N          4.09440       -2.38540        0.95190
C          4.26450       -3.73810        1.09820
C          4.70080       -4.51010        0.05440
C          4.93230       -3.85400       -1.20620
N          4.75150       -2.53390       -1.37750
C          4.33710       -1.74130       -0.34200
O          4.14690       -0.54910       -0.39350
N          5.33740       -4.55540       -2.30510
C          4.21210       -0.20900        2.24620
F          5.43200       -0.12930        1.71750
F          4.45060        0.01740        3.54350
C          3.19850        0.82510        1.67140
H          3.57780        1.33870        0.76020
O          2.86900        1.76140        2.66250
H         -0.34450       -0.84130        0.36090
H          1.66300        0.93160       -0.54220
H          1.78500       -0.86580       -0.57630
H          4.04750       -4.17810        2.08290
H          4.86020       -5.57370        0.16120
H          5.49530       -4.07960       -3.17540
H          5.51850       -5.53290       -2.26140
H          3.57410        2.43960        2.75680
