29

O          0.16030       -0.35380       -0.16660
C          1.44480       -0.79710        0.15720
C          2.02140       -0.18030        1.42380
H          2.88770       -0.77690        1.76570
O          2.45830        1.16310        1.13800
C          2.27620        2.01250        2.22270
H          3.24390        2.30320        2.66800
N          1.62820        3.25810        1.83170
C          2.23360        4.44290        2.11820
C          1.66340        5.63190        1.79070
C          0.39250        5.56150        1.11760
N         -0.19990        4.41750        0.83560
C          0.35300        3.22800        1.17450
O         -0.16660        2.14180        0.95880
N         -0.23470        6.69990        0.74790
C          1.52180        1.19300        3.30650
F          0.53240        1.90520        3.89990
F          2.41440        0.87150        4.28440
C          1.03600       -0.07120        2.59070
H          0.03160        0.13810        2.19640
O          1.09270       -1.23690        3.36410
H          0.09740        0.60660       -0.00230
H          2.17960       -0.61310       -0.65460
H          1.39550       -1.88860        0.31040
H          3.20040        4.37910        2.62160
H          2.15480        6.57650        2.01990
H         -1.12660        6.62080        0.27530
H          0.15840        7.61080        0.93270
H          0.30110       -1.27920        3.91440
