29
rmsd32.gzmat
O          0.00000        0.00000        0.00000
C          1.41120        0.00000        0.00000
C          1.91890        0.00000        1.44650
H          1.15510       -0.44790        2.13390
O          3.01850       -0.91450        1.52200
C          4.22130       -0.30510        1.90610
H          4.64210       -0.98360        2.69400
N          5.11450       -0.25910        0.74340
C          6.08490       -1.21990        0.61570
C          6.88950       -1.26460       -0.49170
C          6.64810       -0.29540       -1.52890
N          5.67670        0.62820       -1.44240
C          4.86710        0.69490       -0.34140
O          3.96160        1.47690       -0.17430
N          7.39870       -0.27450       -2.66910
C          3.83690        1.11160        2.45520
F          4.70620        2.06790        2.13290
F          3.90110        1.11200        3.79250
C          2.38430        1.37450        1.96290
H          2.32900        2.18830        1.20530
O          1.54760        1.67090        3.04890
H         -0.34240        0.80950        0.43130
H          1.78400        0.84760       -0.60370
H          1.66780       -0.94910       -0.51300
H          6.20060       -1.94460        1.43520
H          7.67460       -1.99980       -0.59410
H          7.21270        0.41130       -3.37910
H          8.14220       -0.91950       -2.81680
H          1.72000        2.57490        3.39350
