
     RDKit          3D

 38 41  0  0  0  0  0  0  0  0999 V2000
    0.0188   -0.0288   -0.0317 C   0  0  0  0  0  0  0  0  0  0  0  0
    1.4281    0.1254   -0.0190 C   0  0  0  0  0  0  0  0  0  0  0  0
    2.1527    0.2074    1.1662 C   0  0  0  0  0  0  0  0  0  0  0  0
    1.4292    0.1325    2.3609 C   0  0  0  0  0  0  0  0  0  0  0  0
    0.0140   -0.0261    2.3788 C   0  0  0  0  0  0  0  0  0  0  0  0
   -0.6920   -0.1104    1.1710 C   0  0  0  0  0  0  0  0  0  0  0  0
   -0.4456   -0.0686    3.6795 N   0  0  0  0  0  0  0  0  0  0  0  0
    0.6256    0.0539    4.4314 C   0  0  0  0  0  0  0  0  0  0  0  0
    1.7894    0.1782    3.6880 N   0  0  0  0  0  0  0  0  0  0  0  0
    2.7147    0.2939    4.0852 H   0  0  0  0  0  0  0  0  0  0  0  0
    0.6852    0.0717    5.8857 C   0  0  0  0  0  0  0  0  0  0  0  0
    1.8527    0.2164    6.6885 C   0  0  0  0  0  0  0  0  0  0  0  0
    3.1165    0.3729    6.2039 O   0  0  0  0  0  0  0  0  0  0  0  0
    1.4171    0.1895    8.0108 C   0  0  0  0  0  0  0  0  0  0  0  0
    0.0551    0.0434    7.9115 N   0  0  0  0  0  0  0  0  0  0  0  0
   -0.5925   -0.0750    8.6812 H   0  0  0  0  0  0  0  0  0  0  0  0
   -0.3969   -0.0452    6.6653 N   0  0  0  0  0  0  0  0  0  0  0  0
    2.1528    0.3223    9.2659 C   0  0  0  0  0  0  0  0  0  0  0  0
    1.5700    0.9304   10.3943 C   0  0  0  0  0  0  0  0  0  0  0  0
    2.2867    1.0537   11.5841 C   0  0  0  0  0  0  0  0  0  0  0  0
    3.6033    0.5894   11.6676 C   0  0  0  0  0  0  0  0  0  0  0  0
    4.1950   -0.0114   10.5532 C   0  0  0  0  0  0  0  0  0  0  0  0
    3.4765   -0.1519    9.3651 C   0  0  0  0  0  0  0  0  0  0  0  0
   -0.6951   -0.0874   -1.3467 C   0  0  0  0  0  0  0  0  0  0  0  0
   -0.3514    0.5366   -2.4145 N   0  0  0  0  0  0  0  0  0  0  0  0
   -1.8409   -0.8603   -1.3499 N   0  0  0  0  0  0  0  0  0  0  0  0
    1.9576    0.1600   -0.9734 H   0  0  0  0  0  0  0  0  0  0  0  0
    3.2392    0.3160    1.1555 H   0  0  0  0  0  0  0  0  0  0  0  0
   -1.7778   -0.2113    1.1776 H   0  0  0  0  0  0  0  0  0  0  0  0
    3.6848    0.7488    6.8914 H   0  0  0  0  0  0  0  0  0  0  0  0
    0.5557    1.3315   10.3303 H   0  0  0  0  0  0  0  0  0  0  0  0
    1.8187    1.5285   12.4496 H   0  0  0  0  0  0  0  0  0  0  0  0
    4.1645    0.6939   12.5987 H   0  0  0  0  0  0  0  0  0  0  0  0
    5.2183   -0.3892   10.6136 H   0  0  0  0  0  0  0  0  0  0  0  0
    3.9288   -0.6707    8.5165 H   0  0  0  0  0  0  0  0  0  0  0  0
    0.4390    1.1548   -2.2223 H   0  0  0  0  0  0  0  0  0  0  0  0
   -1.8521   -1.6805   -0.7552 H   0  0  0  0  0  0  0  0  0  0  0  0
   -2.2545   -0.9830   -2.2685 H   0  0  0  0  0  0  0  0  0  0  0  0
  1  2  2  0
  1  6  1  0
  1 24  1  0
  2  3  1  0
  2 27  1  0
  3  4  2  0
  3 28  1  0
  4  5  1  0
  4  9  1  0
  5  6  2  0
  5  7  1  0
  6 29  1  0
  7  8  2  0
  8  9  1  0
  8 11  1  0
  9 10  1  0
 11 12  1  0
 11 17  2  0
 12 13  1  0
 12 14  2  0
 13 30  1  0
 14 15  1  0
 14 18  1  0
 15 16  1  0
 15 17  1  0
 18 19  2  0
 18 23  1  0
 19 20  1  0
 19 31  1  0
 20 21  2  0
 20 32  1  0
 21 22  1  0
 21 33  1  0
 22 23  2  0
 22 34  1  0
 23 35  1  0
 24 25  2  0
 24 26  1  0
 25 36  1  0
 26 37  1  0
 26 38  1  0
M  END

