38

C          0.00560       -0.01850       -0.03320
C          1.40750        0.19310       -0.02890
C          2.13420        0.31070        1.15190
C          1.42070        0.21260        2.35090
C          0.01320       -0.00370        2.37720
C         -0.69500       -0.12270        1.17370
N         -0.43740       -0.05900        3.68050
C          0.63180        0.11120        4.42600
N          1.78550        0.28080        3.67570
H          2.70950        0.42210        4.06750
C          0.69910        0.13300        5.88000
C          1.86620        0.31440        6.67590
O          3.12500        0.48710        6.18400
C          1.44320        0.24930        8.00100
N          0.09040        0.03010        7.90990
H         -0.56330       -0.01100        8.68250
N         -0.37310       -0.02540        6.66590
C          2.19180        0.33790        9.25230
C          3.34450        1.14520        9.33290
C          4.07840        1.22060       10.51750
C          3.66900        0.50620       11.64660
C          2.52060       -0.28930       11.58150
C          1.79300       -0.38090       10.39560
C         -0.71210       -0.11300       -1.34410
N         -0.39970        0.51900       -2.41690
N         -1.82550       -0.93180       -1.33730
H          1.93010        0.24440       -0.98630
H          3.21530        0.46410        1.13480
H         -1.77570       -0.26780        1.18660
H          3.77430        0.29130        6.87460
H          3.64160        1.74920        8.47220
H          4.96640        1.85530       10.56320
H          4.24090        0.57040       12.57490
H          2.19650       -0.85400       12.45880
H          0.91960       -1.03550       10.34660
H          0.36570        1.17000       -2.23210
H         -1.80040       -1.74850       -0.73830
H         -2.23870       -1.07590       -2.25300
