38
rmsd107.gzmat
C          0.00000        0.00000        0.00000
C          1.41330        0.00000        0.00000
C          2.13640        0.00000        1.17770
C          1.40600        0.00540        2.37100
C         -0.03380        0.01060        2.37550
C         -0.74070        0.00410        1.16940
N         -0.49070        0.02410        3.69460
C          0.59760        0.02900        4.47390
N          1.78830        0.01710        3.70660
H          2.71370       -0.00470        4.07650
C          0.66440        0.05290        5.91090
C          1.83830       -0.00470        6.73360
O          3.08290       -0.07770        6.23460
C          1.40000        0.05190        8.06410
N          0.00810        0.13410        7.98720
H         -0.64260        0.22390        8.74400
N         -0.43240        0.14750        6.72370
C          2.15330        0.04290        9.29720
C          3.30190        0.83580        9.39890
C          4.04610        0.82960       10.57510
C          3.64720        0.03850       11.65150
C          2.50030       -0.74790       11.55240
C          1.75340       -0.75030       10.37730
C         -0.69950        0.01970       -1.31320
N         -0.66730        0.95450       -2.20410
N         -1.52040       -1.08810       -1.55680
H          1.93650       -0.00050       -0.95770
H          3.22150       -0.00130        1.18230
H         -1.83190        0.00390        1.16720
H          3.72770       -0.36650        6.93770
H          3.59960        1.47190        8.56480
H          4.93860        1.44890       10.65740
H          4.23120        0.03590       12.57060
H          2.18900       -1.36450       12.39490
H          0.86990       -1.38080       10.29670
H         -0.18590        1.81520       -2.02180
H         -1.26960       -1.95810       -1.13480
H         -1.93340       -1.15680       -2.47030
