38
rmsd12.gzmat
C          0.00000        0.00000        0.00000
C          1.41350        0.00000        0.00000
C          2.13770        0.00000        1.17720
C          1.40930        0.00200        2.37150
C         -0.03020       -0.00810        2.37700
C         -0.73830       -0.01100        1.17140
N         -0.48630        0.00200        3.69700
C          0.60220        0.02180        4.47510
N          1.79320        0.01150        3.70670
H          2.71740        0.07080        4.07610
C          0.67330        0.05950        5.91160
C          1.83040        0.31730        6.71980
O          3.04880        0.55050        6.20640
C          1.40670        0.26740        8.05430
N          0.04210       -0.02210        7.99570
H         -0.60000       -0.10800        8.75980
N         -0.39940       -0.13780        6.73750
C          2.15250        0.47150        9.27580
C          2.90630        1.64010        9.42780
C          3.64130        1.84350       10.59230
C          3.62370        0.88680       11.60660
C          2.87290       -0.27810       11.45410
C          2.13840       -0.49030       10.29020
C         -0.69950        0.05130       -1.31190
N         -0.58380        0.95930       -2.22400
N         -1.62670       -0.97630       -1.53150
H          1.93710        0.00050       -0.95750
H          3.22260        0.00130        1.18190
H         -1.82990       -0.01520        1.17080
H          3.73300        0.58620        6.93090
H          2.90230        2.39690        8.64300
H          4.22580        2.75500       10.71110
H          4.19480        1.04960       12.51950
H          2.86270       -1.02630       12.24580
H          1.56650       -1.40820       10.16430
H         -0.02450        1.77590       -2.06330
H         -1.44670       -1.86410       -1.11080
H         -2.04920       -1.01430       -2.44340
