
     RDKit          3D

 38 41  0  0  0  0  0  0  0  0999 V2000
    0.0056   -0.0185   -0.0332 C   0  0  0  0  0  0  0  0  0  0  0  0
    1.4075    0.1931   -0.0289 C   0  0  0  0  0  0  0  0  0  0  0  0
    2.1342    0.3107    1.1519 C   0  0  0  0  0  0  0  0  0  0  0  0
    1.4207    0.2126    2.3509 C   0  0  0  0  0  0  0  0  0  0  0  0
    0.0132   -0.0037    2.3772 C   0  0  0  0  0  0  0  0  0  0  0  0
   -0.6950   -0.1227    1.1737 C   0  0  0  0  0  0  0  0  0  0  0  0
   -0.4374   -0.0590    3.6805 N   0  0  0  0  0  0  0  0  0  0  0  0
    0.6318    0.1112    4.4260 C   0  0  0  0  0  0  0  0  0  0  0  0
    1.7855    0.2808    3.6757 N   0  0  0  0  0  0  0  0  0  0  0  0
    2.7095    0.4221    4.0675 H   0  0  0  0  0  0  0  0  0  0  0  0
    0.6991    0.1330    5.8800 C   0  0  0  0  0  0  0  0  0  0  0  0
    1.8662    0.3144    6.6759 C   0  0  0  0  0  0  0  0  0  0  0  0
    3.1250    0.4871    6.1840 O   0  0  0  0  0  0  0  0  0  0  0  0
    1.4432    0.2493    8.0010 C   0  0  0  0  0  0  0  0  0  0  0  0
    0.0904    0.0301    7.9099 N   0  0  0  0  0  0  0  0  0  0  0  0
   -0.5633   -0.0110    8.6825 H   0  0  0  0  0  0  0  0  0  0  0  0
   -0.3731   -0.0254    6.6659 N   0  0  0  0  0  0  0  0  0  0  0  0
    2.1918    0.3379    9.2523 C   0  0  0  0  0  0  0  0  0  0  0  0
    3.3445    1.1452    9.3329 C   0  0  0  0  0  0  0  0  0  0  0  0
    4.0784    1.2206   10.5175 C   0  0  0  0  0  0  0  0  0  0  0  0
    3.6690    0.5062   11.6466 C   0  0  0  0  0  0  0  0  0  0  0  0
    2.5206   -0.2893   11.5815 C   0  0  0  0  0  0  0  0  0  0  0  0
    1.7930   -0.3809   10.3956 C   0  0  0  0  0  0  0  0  0  0  0  0
   -0.7121   -0.1130   -1.3441 C   0  0  0  0  0  0  0  0  0  0  0  0
   -0.3997    0.5190   -2.4169 N   0  0  0  0  0  0  0  0  0  0  0  0
   -1.8255   -0.9318   -1.3373 N   0  0  0  0  0  0  0  0  0  0  0  0
    1.9301    0.2444   -0.9863 H   0  0  0  0  0  0  0  0  0  0  0  0
    3.2153    0.4641    1.1348 H   0  0  0  0  0  0  0  0  0  0  0  0
   -1.7757   -0.2678    1.1866 H   0  0  0  0  0  0  0  0  0  0  0  0
    3.7743    0.2913    6.8746 H   0  0  0  0  0  0  0  0  0  0  0  0
    3.6416    1.7492    8.4722 H   0  0  0  0  0  0  0  0  0  0  0  0
    4.9664    1.8553   10.5632 H   0  0  0  0  0  0  0  0  0  0  0  0
    4.2409    0.5704   12.5749 H   0  0  0  0  0  0  0  0  0  0  0  0
    2.1965   -0.8540   12.4588 H   0  0  0  0  0  0  0  0  0  0  0  0
    0.9196   -1.0355   10.3466 H   0  0  0  0  0  0  0  0  0  0  0  0
    0.3657    1.1700   -2.2321 H   0  0  0  0  0  0  0  0  0  0  0  0
   -1.8004   -1.7485   -0.7383 H   0  0  0  0  0  0  0  0  0  0  0  0
   -2.2387   -1.0759   -2.2530 H   0  0  0  0  0  0  0  0  0  0  0  0
  1  2  2  0
  1  6  1  0
  1 24  1  0
  2  3  1  0
  2 27  1  0
  3  4  2  0
  3 28  1  0
  4  5  1  0
  4  9  1  0
  5  6  2  0
  5  7  1  0
  6 29  1  0
  7  8  2  0
  8  9  1  0
  8 11  1  0
  9 10  1  0
 11 12  1  0
 11 17  2  0
 12 13  1  0
 12 14  2  0
 13 30  1  0
 14 15  1  0
 14 18  1  0
 15 16  1  0
 15 17  1  0
 18 19  2  0
 18 23  1  0
 19 20  1  0
 19 31  1  0
 20 21  2  0
 20 32  1  0
 21 22  1  0
 21 33  1  0
 22 23  2  0
 22 34  1  0
 23 35  1  0
 24 25  2  0
 24 26  1  0
 25 36  1  0
 26 37  1  0
 26 38  1  0
M  END

