
     RDKit          3D

 38 41  0  0  0  0  0  0  0  0999 V2000
    0.0481   -0.0207   -0.0539 C   0  0  0  0  0  0  0  0  0  0  0  0
    1.4522    0.1606    0.0101 C   0  0  0  0  0  0  0  0  0  0  0  0
    2.1367    0.2205    1.2206 C   0  0  0  0  0  0  0  0  0  0  0  0
    1.3774    0.0953    2.3881 C   0  0  0  0  0  0  0  0  0  0  0  0
   -0.0347   -0.0914    2.3539 C   0  0  0  0  0  0  0  0  0  0  0  0
   -0.6993   -0.1529    1.1224 C   0  0  0  0  0  0  0  0  0  0  0  0
   -0.5352   -0.1829    3.6385 N   0  0  0  0  0  0  0  0  0  0  0  0
    0.5096   -0.0617    4.4268 C   0  0  0  0  0  0  0  0  0  0  0  0
    1.6917    0.1083    3.7279 N   0  0  0  0  0  0  0  0  0  0  0  0
    2.5979    0.2198    4.1649 H   0  0  0  0  0  0  0  0  0  0  0  0
    0.5307   -0.0879    5.8784 C   0  0  0  0  0  0  0  0  0  0  0  0
   -0.5433   -0.2219    6.8034 C   0  0  0  0  0  0  0  0  0  0  0  0
   -1.8475   -0.3414    6.4882 O   0  0  0  0  0  0  0  0  0  0  0  0
    0.0497   -0.1723    8.0679 C   0  0  0  0  0  0  0  0  0  0  0  0
    1.3906   -0.0035    7.8219 N   0  0  0  0  0  0  0  0  0  0  0  0
    2.1305    0.0058    8.5129 H   0  0  0  0  0  0  0  0  0  0  0  0
    1.6977    0.0310    6.5302 N   0  0  0  0  0  0  0  0  0  0  0  0
   -0.5406   -0.2366    9.4026 C   0  0  0  0  0  0  0  0  0  0  0  0
   -1.6955   -1.0119    9.6308 C   0  0  0  0  0  0  0  0  0  0  0  0
   -2.2763   -1.0663   10.8984 C   0  0  0  0  0  0  0  0  0  0  0  0
   -1.7094   -0.3629   11.9647 C   0  0  0  0  0  0  0  0  0  0  0  0
   -0.5573    0.4009   11.7528 C   0  0  0  0  0  0  0  0  0  0  0  0
    0.0176    0.4717   10.4844 C   0  0  0  0  0  0  0  0  0  0  0  0
   -0.6221   -0.0533   -1.3925 C   0  0  0  0  0  0  0  0  0  0  0  0
   -0.2586    0.6103   -2.4293 N   0  0  0  0  0  0  0  0  0  0  0  0
   -1.7506   -0.8494   -1.4560 N   0  0  0  0  0  0  0  0  0  0  0  0
    2.0117    0.2350   -0.9248 H   0  0  0  0  0  0  0  0  0  0  0  0
    3.2205    0.3510    1.2486 H   0  0  0  0  0  0  0  0  0  0  0  0
   -1.7823   -0.2758    1.0901 H   0  0  0  0  0  0  0  0  0  0  0  0
   -2.3823   -0.1644    7.2749 H   0  0  0  0  0  0  0  0  0  0  0  0
   -2.1157   -1.6063    8.8161 H   0  0  0  0  0  0  0  0  0  0  0  0
   -3.1691   -1.6757   11.0571 H   0  0  0  0  0  0  0  0  0  0  0  0
   -2.1623   -0.4103   12.9574 H   0  0  0  0  0  0  0  0  0  0  0  0
   -0.1109    0.9579   12.5800 H   0  0  0  0  0  0  0  0  0  0  0  0
    0.8945    1.1034   10.3233 H   0  0  0  0  0  0  0  0  0  0  0  0
    0.5117    1.2386   -2.1935 H   0  0  0  0  0  0  0  0  0  0  0  0
   -1.7598   -1.6896   -0.8897 H   0  0  0  0  0  0  0  0  0  0  0  0
   -2.1306   -0.9522   -2.3915 H   0  0  0  0  0  0  0  0  0  0  0  0
  1  2  2  0
  1  6  1  0
  1 24  1  0
  2  3  1  0
  2 27  1  0
  3  4  2  0
  3 28  1  0
  4  5  1  0
  4  9  1  0
  5  6  2  0
  5  7  1  0
  6 29  1  0
  7  8  2  0
  8  9  1  0
  8 11  1  0
  9 10  1  0
 11 12  1  0
 11 17  2  0
 12 13  1  0
 12 14  2  0
 13 30  1  0
 14 15  1  0
 14 18  1  0
 15 16  1  0
 15 17  1  0
 18 19  2  0
 18 23  1  0
 19 20  1  0
 19 31  1  0
 20 21  2  0
 20 32  1  0
 21 22  1  0
 21 33  1  0
 22 23  2  0
 22 34  1  0
 23 35  1  0
 24 25  2  0
 24 26  1  0
 25 36  1  0
 26 37  1  0
 26 38  1  0
M  END

