rmsd107.gzmat
 OpenBabel08211713433D

 38 41  0  0  1  0  0  0  0  0999 V2000
    0.0000    0.0000    0.0000 C   0  0  0  0  0  0  0  0  0  0  0  0
    1.4133    0.0000    0.0000 C   0  0  0  0  0  0  0  0  0  0  0  0
    2.1364    0.0000    1.1777 C   0  0  0  0  0  0  0  0  0  0  0  0
    1.4060    0.0054    2.3710 C   0  0  2  0  0  0  0  0  0  0  0  0
   -0.0338    0.0106    2.3755 C   0  0  0  0  0  0  0  0  0  0  0  0
   -0.7407    0.0041    1.1694 C   0  0  0  0  0  0  0  0  0  0  0  0
   -0.4907    0.0241    3.6946 N   0  0  0  0  0  0  0  0  0  0  0  0
    0.5976    0.0290    4.4739 C   0  0  0  0  0  0  0  0  0  0  0  0
    1.7883    0.0171    3.7066 N   0  0  0  0  0  0  0  0  0  0  0  0
    2.7137   -0.0047    4.0765 H   0  0  0  0  0  0  0  0  0  0  0  0
    0.6644    0.0529    5.9109 C   0  0  0  0  0  0  0  0  0  0  0  0
    1.8383   -0.0047    6.7336 C   0  0  0  0  0  0  0  0  0  0  0  0
    3.0829   -0.0777    6.2346 O   0  0  0  0  0  0  0  0  0  0  0  0
    1.4000    0.0519    8.0641 C   0  0  0  0  0  0  0  0  0  0  0  0
    0.0081    0.1341    7.9872 N   0  0  0  0  0  0  0  0  0  0  0  0
   -0.6426    0.2239    8.7440 H   0  0  0  0  0  0  0  0  0  0  0  0
   -0.4324    0.1475    6.7237 N   0  0  0  0  0  0  0  0  0  0  0  0
    2.1533    0.0429    9.2972 C   0  0  0  0  0  0  0  0  0  0  0  0
    3.3019    0.8358    9.3989 C   0  0  0  0  0  0  0  0  0  0  0  0
    4.0461    0.8296   10.5751 C   0  0  0  0  0  0  0  0  0  0  0  0
    3.6472    0.0385   11.6515 C   0  0  0  0  0  0  0  0  0  0  0  0
    2.5003   -0.7479   11.5524 C   0  0  0  0  0  0  0  0  0  0  0  0
    1.7534   -0.7503   10.3773 C   0  0  0  0  0  0  0  0  0  0  0  0
   -0.6995    0.0197   -1.3132 C   0  0  0  0  0  0  0  0  0  0  0  0
   -0.6673    0.9545   -2.2041 N   0  0  0  0  0  0  0  0  0  0  0  0
   -1.5204   -1.0881   -1.5568 N   0  0  0  0  0  0  0  0  0  0  0  0
    1.9365   -0.0005   -0.9577 H   0  0  0  0  0  0  0  0  0  0  0  0
    3.2215   -0.0013    1.1823 H   0  0  0  0  0  0  0  0  0  0  0  0
   -1.8319    0.0039    1.1672 H   0  0  0  0  0  0  0  0  0  0  0  0
    3.7277   -0.3665    6.9377 H   0  0  0  0  0  0  0  0  0  0  0  0
    3.5996    1.4719    8.5648 H   0  0  0  0  0  0  0  0  0  0  0  0
    4.9386    1.4489   10.6574 H   0  0  0  0  0  0  0  0  0  0  0  0
    4.2312    0.0359   12.5706 H   0  0  0  0  0  0  0  0  0  0  0  0
    2.1890   -1.3645   12.3949 H   0  0  0  0  0  0  0  0  0  0  0  0
    0.8699   -1.3808   10.2967 H   0  0  0  0  0  0  0  0  0  0  0  0
   -0.1859    1.8152   -2.0218 H   0  0  0  0  0  0  0  0  0  0  0  0
   -1.2696   -1.9581   -1.1348 H   0  0  0  0  0  0  0  0  0  0  0  0
   -1.9334   -1.1568   -2.4703 H   0  0  0  0  0  0  0  0  0  0  0  0
  1  2  1  0  0  0  0
  1  6  2  0  0  0  0
  2  3  2  0  0  0  0
  3 28  1  0  0  0  0
  4  3  1  6  0  0  0
  4  5  1  0  0  0  0
  4  9  1  0  0  0  0
  5  7  2  0  0  0  0
  6  5  1  0  0  0  0
  7  8  2  0  0  0  0
  8 11  1  0  0  0  0
  9 10  1  0  0  0  0
  9  8  1  0  0  0  0
 11 17  2  0  0  0  0
 11 12  1  0  0  0  0
 12 14  2  0  0  0  0
 13 12  1  0  0  0  0
 13 30  1  0  0  0  0
 14 18  1  0  0  0  0
 15 14  1  0  0  0  0
 15 16  1  0  0  0  0
 17 15  1  0  0  0  0
 18 19  2  0  0  0  0
 18 23  1  0  0  0  0
 19 20  1  0  0  0  0
 20 32  1  0  0  0  0
 20 21  2  0  0  0  0
 21 33  1  0  0  0  0
 22 21  1  0  0  0  0
 22 34  1  0  0  0  0
 23 22  2  0  0  0  0
 24  1  1  0  0  0  0
 25 36  1  0  0  0  0
 25 24  1  0  0  0  0
 26 24  2  0  0  0  0
 26 37  1  0  0  0  0
 27  2  1  0  0  0  0
 29  6  1  0  0  0  0
 31 19  1  0  0  0  0
 35 23  1  0  0  0  0
 38 26  1  0  0  0  0
M  RAD  2   4   2  25   2
M  END
$$$$
