38
rmsd106.gzmat
C          0.00000        0.00000        0.00000
C          1.41340        0.00000        0.00000
C          2.13780        0.00000        1.17700
C          1.40910        0.00090        2.37130
C         -0.03060        0.00190        2.37630
C         -0.73860        0.00180        1.17100
N         -0.48720       -0.00220        3.69580
C          0.60100       -0.00610        4.47490
N          1.79210       -0.00780        3.70690
H          2.71720        0.01330        4.07740
C          0.66810       -0.02090        5.91210
C          1.83920        0.06950        6.73570
O          3.07890        0.20670        6.23870
C          1.40210       -0.00560        8.06540
N          0.01390       -0.13610        7.98770
H         -0.64080       -0.18400        8.74450
N         -0.42720       -0.13610        6.72450
C          2.15730        0.02470        9.29720
C          3.12660        1.01630        9.48280
C          3.87720        1.04110       10.65500
C          3.66030        0.08320       11.64440
C          2.69270       -0.90360       11.46040
C          1.94090       -0.93710       10.28900
C         -0.69840        0.01880       -1.31330
N         -0.59470        0.90780       -2.24500
N         -1.60670       -1.02970       -1.51210
H          1.93670       -0.00300       -0.95780
H          3.22280       -0.00140        1.17990
H         -1.82990        0.00430        1.17030
H          3.76050        0.08340        6.95590
H          3.27940        1.77980        8.72040
H          4.63080        1.81410       10.79980
H          4.24450        0.10630       12.56310
H          2.52630       -1.65250       12.23400
H          1.19780       -1.71910       10.14150
H         -0.04860        1.73630       -2.10130
H         -1.42140       -1.89950       -1.05750
H         -2.02160       -1.10240       -2.42490
