rmsd12.gzmat
 OpenBabel08211713433D

 38 41  0  0  1  0  0  0  0  0999 V2000
    0.0000    0.0000    0.0000 C   0  0  0  0  0  0  0  0  0  0  0  0
    1.4135    0.0000    0.0000 C   0  0  0  0  0  0  0  0  0  0  0  0
    2.1377    0.0000    1.1772 C   0  0  0  0  0  0  0  0  0  0  0  0
    1.4093    0.0020    2.3715 C   0  0  1  0  0  0  0  0  0  0  0  0
   -0.0302   -0.0081    2.3770 C   0  0  0  0  0  0  0  0  0  0  0  0
   -0.7383   -0.0110    1.1714 C   0  0  0  0  0  0  0  0  0  0  0  0
   -0.4863    0.0020    3.6970 N   0  0  0  0  0  0  0  0  0  0  0  0
    0.6022    0.0218    4.4751 C   0  0  0  0  0  0  0  0  0  0  0  0
    1.7932    0.0115    3.7067 N   0  0  0  0  0  0  0  0  0  0  0  0
    2.7174    0.0708    4.0761 H   0  0  0  0  0  0  0  0  0  0  0  0
    0.6733    0.0595    5.9116 C   0  0  0  0  0  0  0  0  0  0  0  0
    1.8304    0.3173    6.7198 C   0  0  0  0  0  0  0  0  0  0  0  0
    3.0488    0.5505    6.2064 O   0  0  0  0  0  0  0  0  0  0  0  0
    1.4067    0.2674    8.0543 C   0  0  0  0  0  0  0  0  0  0  0  0
    0.0421   -0.0221    7.9957 N   0  0  0  0  0  0  0  0  0  0  0  0
   -0.6000   -0.1080    8.7598 H   0  0  0  0  0  0  0  0  0  0  0  0
   -0.3994   -0.1378    6.7375 N   0  0  0  0  0  0  0  0  0  0  0  0
    2.1525    0.4715    9.2758 C   0  0  0  0  0  0  0  0  0  0  0  0
    2.9063    1.6401    9.4278 C   0  0  0  0  0  0  0  0  0  0  0  0
    3.6413    1.8435   10.5923 C   0  0  0  0  0  0  0  0  0  0  0  0
    3.6237    0.8868   11.6066 C   0  0  0  0  0  0  0  0  0  0  0  0
    2.8729   -0.2781   11.4541 C   0  0  0  0  0  0  0  0  0  0  0  0
    2.1384   -0.4903   10.2902 C   0  0  0  0  0  0  0  0  0  0  0  0
   -0.6995    0.0513   -1.3119 C   0  0  0  0  0  0  0  0  0  0  0  0
   -0.5838    0.9593   -2.2240 N   0  0  0  0  0  0  0  0  0  0  0  0
   -1.6267   -0.9763   -1.5315 N   0  0  0  0  0  0  0  0  0  0  0  0
    1.9371    0.0005   -0.9575 H   0  0  0  0  0  0  0  0  0  0  0  0
    3.2226    0.0013    1.1819 H   0  0  0  0  0  0  0  0  0  0  0  0
   -1.8299   -0.0152    1.1708 H   0  0  0  0  0  0  0  0  0  0  0  0
    3.7330    0.5862    6.9309 H   0  0  0  0  0  0  0  0  0  0  0  0
    2.9023    2.3969    8.6430 H   0  0  0  0  0  0  0  0  0  0  0  0
    4.2258    2.7550   10.7111 H   0  0  0  0  0  0  0  0  0  0  0  0
    4.1948    1.0496   12.5195 H   0  0  0  0  0  0  0  0  0  0  0  0
    2.8627   -1.0263   12.2458 H   0  0  0  0  0  0  0  0  0  0  0  0
    1.5665   -1.4082   10.1643 H   0  0  0  0  0  0  0  0  0  0  0  0
   -0.0245    1.7759   -2.0633 H   0  0  0  0  0  0  0  0  0  0  0  0
   -1.4467   -1.8641   -1.1108 H   0  0  0  0  0  0  0  0  0  0  0  0
   -2.0492   -1.0143   -2.4434 H   0  0  0  0  0  0  0  0  0  0  0  0
  1  2  1  0  0  0  0
  1  6  2  0  0  0  0
  2  3  2  0  0  0  0
  3 28  1  0  0  0  0
  4  3  1  1  0  0  0
  4  5  1  0  0  0  0
  4  9  1  0  0  0  0
  5  7  2  0  0  0  0
  6  5  1  0  0  0  0
  7  8  2  0  0  0  0
  8 11  1  0  0  0  0
  9 10  1  0  0  0  0
  9  8  1  0  0  0  0
 11 12  1  0  0  0  0
 11 17  2  0  0  0  0
 12 14  2  0  0  0  0
 13 12  1  0  0  0  0
 13 30  1  0  0  0  0
 14 18  1  0  0  0  0
 15 14  1  0  0  0  0
 15 16  1  0  0  0  0
 17 15  1  0  0  0  0
 18 19  2  0  0  0  0
 18 23  1  0  0  0  0
 19 20  1  0  0  0  0
 20 32  1  0  0  0  0
 20 21  2  0  0  0  0
 21 33  1  0  0  0  0
 22 21  1  0  0  0  0
 22 34  1  0  0  0  0
 23 22  2  0  0  0  0
 24  1  1  0  0  0  0
 25 36  1  0  0  0  0
 25 24  1  0  0  0  0
 26 24  2  0  0  0  0
 26 37  1  0  0  0  0
 27  2  1  0  0  0  0
 29  6  1  0  0  0  0
 31 19  1  0  0  0  0
 35 23  1  0  0  0  0
 38 26  1  0  0  0  0
M  RAD  2   4   2  25   2
M  END
$$$$
