38

C          0.01880       -0.02880       -0.03170
C          1.42810        0.12540       -0.01900
C          2.15270        0.20740        1.16620
C          1.42920        0.13250        2.36090
C          0.01400       -0.02610        2.37880
C         -0.69200       -0.11040        1.17100
N         -0.44560       -0.06860        3.67950
C          0.62560        0.05390        4.43140
N          1.78940        0.17820        3.68800
H          2.71470        0.29390        4.08520
C          0.68520        0.07170        5.88570
C          1.85270        0.21640        6.68850
O          3.11650        0.37290        6.20390
C          1.41710        0.18950        8.01080
N          0.05510        0.04340        7.91150
H         -0.59250       -0.07500        8.68120
N         -0.39690       -0.04520        6.66530
C          2.15280        0.32230        9.26590
C          1.57000        0.93040       10.39430
C          2.28670        1.05370       11.58410
C          3.60330        0.58940       11.66760
C          4.19500       -0.01140       10.55320
C          3.47650       -0.15190        9.36510
C         -0.69510       -0.08740       -1.34670
N         -0.35140        0.53660       -2.41450
N         -1.84090       -0.86030       -1.34990
H          1.95760        0.16000       -0.97340
H          3.23920        0.31600        1.15550
H         -1.77780       -0.21130        1.17760
H          3.68480        0.74880        6.89140
H          0.55570        1.33150       10.33030
H          1.81870        1.52850       12.44960
H          4.16450        0.69390       12.59870
H          5.21830       -0.38920       10.61360
H          3.92880       -0.67070        8.51650
H          0.43900        1.15480       -2.22230
H         -1.85210       -1.68050       -0.75520
H         -2.25450       -0.98300       -2.26850
