38
rmsd104.gzmat
C          0.00000        0.00000        0.00000
C          1.41310        0.00000        0.00000
C          2.13640        0.00000        1.17760
C          1.40710        0.00390        2.37140
C         -0.03240       -0.00030        2.37670
C         -0.73960       -0.00390        1.17040
N         -0.48820        0.00570        3.69700
C          0.60010        0.01490        4.47580
N          1.79090        0.00420        3.70720
H          2.71660        0.06140        4.07270
C          0.67060        0.02620        5.91330
C          1.82120        0.29230        6.72780
O          3.02670        0.58740        6.21760
C          1.40390        0.18560        8.06180
N          0.04460       -0.12880        7.99500
H         -0.58070       -0.30690        8.75740
N         -0.39210       -0.23430        6.73470
C          2.15170        0.34430        9.28830
C          1.64430        1.10910       10.34300
C          2.38930        1.25970       11.50990
C          3.64180        0.65820       11.62400
C          4.14980       -0.10200       10.57130
C          3.40540       -0.26610        9.40690
C         -0.69790        0.03780       -1.31360
N         -0.65180        0.97970       -2.19650
N         -1.53610       -1.05380       -1.56910
H          1.93700        0.00030       -0.95740
H          3.22120       -0.00160        1.18040
H         -1.83080       -0.00580        1.16830
H          3.66900        0.81980        6.94460
H          0.67640        1.59820       10.24820
H          1.99430        1.85180       12.33490
H          4.22260        0.78090       12.53670
H          5.12860       -0.57230       10.66130
H          3.78720       -0.88700        8.59720
H         -0.15690        1.83130       -2.00880
H         -1.30520       -1.93090       -1.15150
H         -1.94700       -1.10740       -2.48470
