38
rmsd4.gzmat
C          0.00000        0.00000        0.00000
C          1.41330        0.00000        0.00000
C          2.13770        0.00000        1.17740
C          1.40970        0.00110        2.37200
C         -0.02970        0.00470        2.37670
C         -0.73820        0.00450        1.17180
N         -0.48590       -0.00320        3.69610
C          0.60300       -0.01320        4.47560
N          1.79350       -0.00770        3.70880
H          2.72240       -0.01430        4.06860
C          0.63660       -0.04660        5.91210
C         -0.45800       -0.06010        6.83380
O         -1.73770       -0.01150        6.46110
C          0.11170       -0.13110        8.11960
N          1.49180       -0.14090        7.91730
H          2.21350       -0.20850        8.60810
N          1.81200       -0.10180        6.62120
C         -0.52650       -0.21000        9.41330
C         -1.58530       -1.10750        9.59530
C         -2.21920       -1.19070       10.83140
C         -1.79740       -0.38640       11.88960
C         -0.74160        0.50590       11.70940
C         -0.10670        0.59890       10.47330
C         -0.69870        0.01440       -1.31390
N         -0.59860        0.90210       -2.24740
N         -1.60250       -1.03740       -1.51170
H          1.93680       -0.00300       -0.95780
H          3.22260       -0.00100        1.17990
H         -1.82940        0.00850        1.17350
H         -2.32830        0.09300        7.26160
H         -1.89910       -1.75460        8.77560
H         -3.04280       -1.88980       10.97390
H         -2.29280       -0.45520       12.85660
H         -0.41410        1.13440       12.53640
H          0.70280        1.31150       10.33140
H         -0.05420        1.73230       -2.10750
H         -1.41700       -1.90520       -1.05300
H         -2.01810       -1.11300       -2.42370
