38
rmsd100.gzmat
C          0.00000        0.00000        0.00000
C          1.41320        0.00000        0.00000
C          2.13660        0.00000        1.17780
C          1.40720        0.00260        2.37140
C         -0.03260        0.00880        2.37620
C         -0.73990        0.00690        1.17030
N         -0.48920        0.00630        3.69610
C          0.59910       -0.00090        4.47460
N          1.79050        0.00630        3.70720
H          2.71510       -0.05010        4.07580
C          0.67030       -0.01620        5.91130
C          1.81980       -0.29610        6.72240
O          3.02610       -0.58610        6.21100
C          1.39940       -0.21120        8.05680
N          0.04270        0.11300        7.99400
H         -0.58240        0.28510        8.75750
N         -0.39230        0.23840        6.73480
C          2.14520       -0.42170        9.27640
C          3.38030        0.21470        9.44140
C          4.12810       -0.01390       10.59290
C          3.64530       -0.87000       11.58170
C          2.41040       -1.49670       11.42110
C          1.65890       -1.27640       10.26990
C         -0.69970        0.00870       -1.31310
N         -0.62880        0.90970       -2.23590
N         -1.56880       -1.06950       -1.52020
H          1.93700       -0.00270       -0.95750
H          3.22160       -0.00190        1.18270
H         -1.83140        0.01080        1.16710
H          3.67670       -0.79230        6.93860
H          3.74620        0.90220        8.67960
H          5.09020        0.48030       10.72330
H          4.23230       -1.04820       12.48130
H          2.03410       -2.16430       12.19500
H          0.70400       -1.78250       10.13840
H         -0.11180        1.75520       -2.08460
H         -1.36040       -1.93200       -1.06180
H         -1.97970       -1.15440       -2.43270
