rmsd65.gzmat
 OpenBabel08211713383D

 40 42  0  0  0  0  0  0  0  0999 V2000
    0.0000    0.0000    0.0000 O   0  0  0  0  0  0  0  0  0  0  0  0
    1.2059    0.0000    0.0000 C   0  0  0  0  0  0  0  0  0  0  0  0
    1.9542    0.0000    1.3319 C   0  0  0  0  0  0  0  0  0  0  0  0
    2.4862   -1.0060    1.7260 O   0  0  0  0  0  0  0  0  0  0  0  0
    2.0124    1.2818    2.0579 C   0  0  0  0  0  0  0  0  0  0  0  0
    3.0990    1.5090    2.9055 C   0  0  0  0  0  0  0  0  0  0  0  0
    3.1770    2.7065    3.6161 C   0  0  0  0  0  0  0  0  0  0  0  0
    2.1850    3.6789    3.4740 C   0  0  0  0  0  0  0  0  0  0  0  0
    1.1042    3.4458    2.6266 C   0  0  0  0  0  0  0  0  0  0  0  0
    1.0122    2.2469    1.9226 C   0  0  0  0  0  0  0  0  0  0  0  0
    4.3315    2.9233    4.5076 C   0  0  0  0  0  0  0  0  0  0  0  0
    5.4579    2.6051    4.2298 O   0  0  0  0  0  0  0  0  0  0  0  0
    4.0097    3.5437    5.8674 C   0  0  0  0  0  0  0  0  0  0  0  0
    3.6807    4.6997    5.9375 O   0  0  0  0  0  0  0  0  0  0  0  0
    4.0724    2.6331    7.0226 C   0  0  0  0  0  0  0  0  0  0  0  0
    5.0840    1.6775    7.1329 C   0  0  0  0  0  0  0  0  0  0  0  0
    5.1153    0.8337    8.2402 C   0  0  0  0  0  0  0  0  0  0  0  0
    4.1370    0.9409    9.2284 C   0  0  0  0  0  0  0  0  0  0  0  0
    3.1303    1.8995    9.1189 C   0  0  0  0  0  0  0  0  0  0  0  0
    3.1004    2.7536    8.0193 C   0  0  0  0  0  0  0  0  0  0  0  0
    2.0182    0.0392   -1.2262 C   0  0  0  0  0  0  0  0  0  0  0  0
    3.3913   -0.2172   -1.2088 C   0  0  0  0  0  0  0  0  0  0  0  0
    4.1201   -0.1605   -2.3936 C   0  0  0  0  0  0  0  0  0  0  0  0
    3.4805    0.1490   -3.5941 C   0  0  0  0  0  0  0  0  0  0  0  0
    2.1086    0.3969   -3.6140 C   0  0  0  0  0  0  0  0  0  0  0  0
    1.3757    0.3394   -2.4316 C   0  0  0  0  0  0  0  0  0  0  0  0
    3.8819    0.7496    3.0127 H   0  0  0  0  0  0  0  0  0  0  0  0
    2.2572    4.6245    4.0212 H   0  0  0  0  0  0  0  0  0  0  0  0
    0.3278    4.2019    2.5158 H   0  0  0  0  0  0  0  0  0  0  0  0
    0.1500    2.0634    1.2744 H   0  0  0  0  0  0  0  0  0  0  0  0
    5.8553    1.5960    6.3624 H   0  0  0  0  0  0  0  0  0  0  0  0
    5.9045    0.0896    8.3332 H   0  0  0  0  0  0  0  0  0  0  0  0
    4.1605    0.2747   10.0902 H   0  0  0  0  0  0  0  0  0  0  0  0
    2.3706    1.9828    9.8939 H   0  0  0  0  0  0  0  0  0  0  0  0
    2.3249    3.5170    7.9340 H   0  0  0  0  0  0  0  0  0  0  0  0
    3.8987   -0.4729   -0.2764 H   0  0  0  0  0  0  0  0  0  0  0  0
    5.1906   -0.3595   -2.3824 H   0  0  0  0  0  0  0  0  0  0  0  0
    4.0544    0.1953   -4.5194 H   0  0  0  0  0  0  0  0  0  0  0  0
    1.6107    0.6331   -4.5525 H   0  0  0  0  0  0  0  0  0  0  0  0
    0.2982    0.5235   -2.4382 H   0  0  0  0  0  0  0  0  0  0  0  0
  2  1  2  0  0  0  0
  2  3  1  0  0  0  0
  3  4  2  0  0  0  0
  3  5  1  0  0  0  0
  5  6  1  0  0  0  0
  6 27  1  0  0  0  0
  6  7  2  0  0  0  0
  7 11  1  0  0  0  0
  8  7  1  0  0  0  0
  8 28  1  0  0  0  0
  9  8  2  0  0  0  0
 10  5  2  0  0  0  0
 10  9  1  0  0  0  0
 11 13  1  0  0  0  0
 12 11  2  0  0  0  0
 13 14  2  0  0  0  0
 13 15  1  0  0  0  0
 15 16  2  0  0  0  0
 15 20  1  0  0  0  0
 16 17  1  0  0  0  0
 17 32  1  0  0  0  0
 17 18  2  0  0  0  0
 18 33  1  0  0  0  0
 19 18  1  0  0  0  0
 19 34  1  0  0  0  0
 20 19  2  0  0  0  0
 21 22  1  0  0  0  0
 21  2  1  0  0  0  0
 22 36  1  0  0  0  0
 23 37  1  0  0  0  0
 23 22  2  0  0  0  0
 24 23  1  0  0  0  0
 25 24  2  0  0  0  0
 25 26  1  0  0  0  0
 26 21  2  0  0  0  0
 29  9  1  0  0  0  0
 30 10  1  0  0  0  0
 31 16  1  0  0  0  0
 35 20  1  0  0  0  0
 38 24  1  0  0  0  0
 39 25  1  0  0  0  0
 40 26  1  0  0  0  0
M  END
$$$$
