
     RDKit          3D

 40 42  0  0  0  0  0  0  0  0999 V2000
    0.4994    0.0095   -0.2723 O   0  0  0  0  0  0  0  0  0  0  0  0
    1.6814    0.1613   -0.5250 C   0  0  0  0  0  0  0  0  0  0  0  0
    2.6618    0.2814    0.6558 C   0  0  0  0  0  0  0  0  0  0  0  0
    3.6406   -0.4400    0.6736 O   0  0  0  0  0  0  0  0  0  0  0  0
    2.3426    1.2215    1.7701 C   0  0  0  0  0  0  0  0  0  0  0  0
    3.2394    1.2705    2.8444 C   0  0  0  0  0  0  0  0  0  0  0  0
    3.0299    2.1455    3.9173 C   0  0  0  0  0  0  0  0  0  0  0  0
    1.9001    2.9852    3.9100 C   0  0  0  0  0  0  0  0  0  0  0  0
    1.0038    2.9397    2.8416 C   0  0  0  0  0  0  0  0  0  0  0  0
    1.2166    2.0661    1.7746 C   0  0  0  0  0  0  0  0  0  0  0  0
    4.0200    2.1077    5.0333 C   0  0  0  0  0  0  0  0  0  0  0  0
    4.9896    1.3738    5.0182 O   0  0  0  0  0  0  0  0  0  0  0  0
    3.8538    3.0817    6.2138 C   0  0  0  0  0  0  0  0  0  0  0  0
    3.6647    4.2582    5.9606 O   0  0  0  0  0  0  0  0  0  0  0  0
    3.9943    2.5695    7.6026 C   0  0  0  0  0  0  0  0  0  0  0  0
    4.1719    1.2078    7.9061 C   0  0  0  0  0  0  0  0  0  0  0  0
    4.2586    0.7966    9.2369 C   0  0  0  0  0  0  0  0  0  0  0  0
    4.1727    1.7344   10.2696 C   0  0  0  0  0  0  0  0  0  0  0  0
    3.9972    3.0921    9.9739 C   0  0  0  0  0  0  0  0  0  0  0  0
    3.9070    3.5065    8.6486 C   0  0  0  0  0  0  0  0  0  0  0  0
    2.2132    0.1697   -1.9137 C   0  0  0  0  0  0  0  0  0  0  0  0
    3.5693    0.3858   -2.2169 C   0  0  0  0  0  0  0  0  0  0  0  0
    3.9888    0.4173   -3.5476 C   0  0  0  0  0  0  0  0  0  0  0  0
    3.0656    0.2314   -4.5804 C   0  0  0  0  0  0  0  0  0  0  0  0
    1.7139    0.0145   -4.2849 C   0  0  0  0  0  0  0  0  0  0  0  0
    1.2904   -0.0145   -2.9597 C   0  0  0  0  0  0  0  0  0  0  0  0
    4.1135    0.6179    2.8455 H   0  0  0  0  0  0  0  0  0  0  0  0
    1.7330    3.6833    4.7292 H   0  0  0  0  0  0  0  0  0  0  0  0
    0.1288    3.5930    2.8405 H   0  0  0  0  0  0  0  0  0  0  0  0
    0.5009    2.0269    0.9544 H   0  0  0  0  0  0  0  0  0  0  0  0
    4.2581    0.4742    7.1056 H   0  0  0  0  0  0  0  0  0  0  0  0
    4.3985   -0.2615    9.4687 H   0  0  0  0  0  0  0  0  0  0  0  0
    4.2431    1.4075   11.3100 H   0  0  0  0  0  0  0  0  0  0  0  0
    3.9305    3.8242   10.7819 H   0  0  0  0  0  0  0  0  0  0  0  0
    3.7664    4.5574    8.3896 H   0  0  0  0  0  0  0  0  0  0  0  0
    4.2968    0.5128   -1.4163 H   0  0  0  0  0  0  0  0  0  0  0  0
    5.0432    0.5833   -3.7792 H   0  0  0  0  0  0  0  0  0  0  0  0
    3.3995    0.2551   -5.6207 H   0  0  0  0  0  0  0  0  0  0  0  0
    0.9933   -0.1308   -5.0929 H   0  0  0  0  0  0  0  0  0  0  0  0
    0.2428   -0.1777   -2.7008 H   0  0  0  0  0  0  0  0  0  0  0  0
  1  2  2  0
  2  3  1  0
  2 21  1  0
  3  4  2  0
  3  5  1  0
  5  6  2  0
  5 10  1  0
  6  7  1  0
  6 27  1  0
  7  8  2  0
  7 11  1  0
  8  9  1  0
  8 28  1  0
  9 10  2  0
  9 29  1  0
 10 30  1  0
 11 12  2  0
 11 13  1  0
 13 14  2  0
 13 15  1  0
 15 16  2  0
 15 20  1  0
 16 17  1  0
 16 31  1  0
 17 18  2  0
 17 32  1  0
 18 19  1  0
 18 33  1  0
 19 20  2  0
 19 34  1  0
 20 35  1  0
 21 22  2  0
 21 26  1  0
 22 23  1  0
 22 36  1  0
 23 24  2  0
 23 37  1  0
 24 25  1  0
 24 38  1  0
 25 26  2  0
 25 39  1  0
 26 40  1  0
M  END

