40
rmsd176.gzmat
O          0.00000        0.00000        0.00000
C          1.20400        0.00000        0.00000
C          1.96800        0.00000        1.32380
O          2.53940       -0.99540        1.69000
C          1.99900        1.27020        2.07090
C          0.98850        2.22140        1.93420
C          1.05570        3.40290        2.67300
C          2.13490        3.64860        3.52400
C          3.14500        2.69760        3.65150
C          3.07360        1.50490        2.93560
C         -0.03150        4.38880        2.51960
O         -0.54740        4.65350        1.46590
C         -0.51300        5.04380        3.81310
O          0.17130        5.88550        4.33910
C         -1.78140        4.55620        4.37630
C         -2.01910        4.76480        5.73840
C         -3.20180        4.30840        6.31360
C         -4.14860        3.65150        5.52850
C         -3.91750        3.45590        4.16710
C         -2.73400        3.90660        3.58830
C          2.02640        0.05260       -1.22040
C          1.55000        0.78430       -2.31120
C          2.31120        0.86380       -3.47470
C          3.53730        0.20410       -3.55080
C          4.00300       -0.53940       -2.46640
C          3.24920       -0.61630       -1.29820
H          0.14020        2.04920        1.26200
H          2.19270        4.58730        4.08470
H          3.98800        2.88570        4.31460
H          3.85330        0.74590        3.04670
H         -1.27490        5.28820        6.34380
H         -3.38760        4.46650        7.37420
H         -5.07310        3.29180        5.97950
H         -4.66310        2.95070        3.55500
H         -2.56550        3.75880        2.51890
H          0.58370        1.28950       -2.24750
H          1.94720        1.43780       -4.32490
H          4.13270        0.26820       -4.46090
H          4.95650       -1.06090       -2.53250
H          3.61130       -1.20810       -0.45370
