40
rmsd80.gzmat
O          0.00000        0.00000        0.00000
C          1.20370        0.00000        0.00000
C          1.96880        0.00000        1.32260
O          2.53430        0.99590        1.69510
C          2.00790       -1.27600        2.05960
C          0.94530       -2.17780        2.01160
C          1.02200       -3.36310        2.74370
C          2.15970       -3.66060        3.49690
C          3.22080       -2.75890        3.53420
C          3.14140       -1.56140        2.82730
C         -0.11770       -4.29900        2.68980
O         -0.74270       -4.52890        1.68800
C         -0.50330       -4.95150        4.01740
O          0.21260       -5.79840        4.49020
C         -1.72250       -4.45680        4.67640
C         -2.77100       -3.88970        3.94930
C         -3.90500       -3.43290        4.61600
C         -3.99240       -3.54290        6.00340
C         -2.94860       -4.11620        6.72880
C         -1.81450       -4.57800        6.06630
C          2.02660       -0.05010       -1.21990
C          3.24510        0.62680       -1.29840
C          3.99710        0.55740       -2.46820
C          3.53450       -0.18820       -3.55240
C          2.31410       -0.85810       -3.47430
C          1.55380       -0.78440       -2.31000
H          0.05150       -1.96220        1.41410
H          2.22250       -4.60140        4.05340
H          4.10930       -2.98830        4.12060
H          3.96110       -0.83900        2.86980
H         -2.71470       -3.81210        2.86060
H         -4.72480       -2.99030        4.05230
H         -4.88010       -3.18140        6.52190
H         -3.02080       -4.20520        7.81100
H         -0.99680       -5.03910        6.62550
H          3.60470        1.21980       -0.45340
H          4.94620        1.08580       -2.53600
H          4.12740       -0.24400       -4.46460
H          1.95310       -1.43430       -4.32430
H          0.58970       -1.29350       -2.24600
