rmsd123.gzmat
 OpenBabel08211713383D

 40 42  0  0  0  0  0  0  0  0999 V2000
    0.0000    0.0000    0.0000 O   0  0  0  0  0  0  0  0  0  0  0  0
    1.2042    0.0000    0.0000 C   0  0  0  0  0  0  0  0  0  0  0  0
    1.9667    0.0000    1.3244 C   0  0  0  0  0  0  0  0  0  0  0  0
    2.5446   -0.9859    1.7006 O   0  0  0  0  0  0  0  0  0  0  0  0
    1.9854    1.2839    2.0497 C   0  0  0  0  0  0  0  0  0  0  0  0
    3.1815    1.6947    2.6388 C   0  0  0  0  0  0  0  0  0  0  0  0
    3.2233    2.9068    3.3283 C   0  0  0  0  0  0  0  0  0  0  0  0
    2.0806    3.7023    3.4314 C   0  0  0  0  0  0  0  0  0  0  0  0
    0.8895    3.2824    2.8428 C   0  0  0  0  0  0  0  0  0  0  0  0
    0.8383    2.0735    2.1515 C   0  0  0  0  0  0  0  0  0  0  0  0
    4.5032    3.3314    3.9261 C   0  0  0  0  0  0  0  0  0  0  0  0
    5.5675    3.1993    3.3805 O   0  0  0  0  0  0  0  0  0  0  0  0
    4.4162    3.9239    5.3321 C   0  0  0  0  0  0  0  0  0  0  0  0
    3.9611    5.0294    5.4830 O   0  0  0  0  0  0  0  0  0  0  0  0
    4.8543    3.0606    6.4404 C   0  0  0  0  0  0  0  0  0  0  0  0
    4.2962    3.2757    7.7040 C   0  0  0  0  0  0  0  0  0  0  0  0
    4.6716    2.4678    8.7741 C   0  0  0  0  0  0  0  0  0  0  0  0
    5.6106    1.4545    8.5846 C   0  0  0  0  0  0  0  0  0  0  0  0
    6.1805    1.2522    7.3278 C   0  0  0  0  0  0  0  0  0  0  0  0
    5.8045    2.0543    6.2534 C   0  0  0  0  0  0  0  0  0  0  0  0
    2.0281    0.0649   -1.2184 C   0  0  0  0  0  0  0  0  0  0  0  0
    1.5258    0.7582   -2.3227 C   0  0  0  0  0  0  0  0  0  0  0  0
    2.2906    0.8600   -3.4818 C   0  0  0  0  0  0  0  0  0  0  0  0
    3.5478    0.2601   -3.5404 C   0  0  0  0  0  0  0  0  0  0  0  0
    4.0389   -0.4495   -2.4446 C   0  0  0  0  0  0  0  0  0  0  0  0
    3.2810   -0.5486   -1.2811 C   0  0  0  0  0  0  0  0  0  0  0  0
    4.0786    1.0721    2.5600 H   0  0  0  0  0  0  0  0  0  0  0  0
    2.1199    4.6570    3.9657 H   0  0  0  0  0  0  0  0  0  0  0  0
   -0.0029    3.9018    2.9221 H   0  0  0  0  0  0  0  0  0  0  0  0
   -0.1007    1.7424    1.6969 H   0  0  0  0  0  0  0  0  0  0  0  0
    3.5705    4.0801    7.8457 H   0  0  0  0  0  0  0  0  0  0  0  0
    4.2354    2.6296    9.7580 H   0  0  0  0  0  0  0  0  0  0  0  0
    5.9018    0.8201    9.4214 H   0  0  0  0  0  0  0  0  0  0  0  0
    6.9202    0.4660    7.1857 H   0  0  0  0  0  0  0  0  0  0  0  0
    6.2661    1.8992    5.2752 H   0  0  0  0  0  0  0  0  0  0  0  0
    0.5352    1.2142   -2.2719 H   0  0  0  0  0  0  0  0  0  0  0  0
    1.9065    1.4061   -4.3414 H   0  0  0  0  0  0  0  0  0  0  0  0
    4.1480    0.3440   -4.4455 H   0  0  0  0  0  0  0  0  0  0  0  0
    5.0165   -0.9260   -2.4976 H   0  0  0  0  0  0  0  0  0  0  0  0
    3.6654   -1.1139   -0.4283 H   0  0  0  0  0  0  0  0  0  0  0  0
  1  2  2  0  0  0  0
  2  3  1  0  0  0  0
  3  4  2  0  0  0  0
  3  5  1  0  0  0  0
  5 10  2  0  0  0  0
  5  6  1  0  0  0  0
  6  7  2  0  0  0  0
  7  8  1  0  0  0  0
  7 11  1  0  0  0  0
  8 28  1  0  0  0  0
  9 29  1  0  0  0  0
  9  8  2  0  0  0  0
 10  9  1  0  0  0  0
 11 13  1  0  0  0  0
 12 11  2  0  0  0  0
 13 14  2  0  0  0  0
 13 15  1  0  0  0  0
 15 16  1  0  0  0  0
 16 31  1  0  0  0  0
 16 17  2  0  0  0  0
 17 32  1  0  0  0  0
 18 17  1  0  0  0  0
 18 33  1  0  0  0  0
 19 18  2  0  0  0  0
 20 15  2  0  0  0  0
 20 19  1  0  0  0  0
 21  2  1  0  0  0  0
 22 36  1  0  0  0  0
 22 21  2  0  0  0  0
 23 22  1  0  0  0  0
 24 23  2  0  0  0  0
 24 25  1  0  0  0  0
 25 26  2  0  0  0  0
 26 21  1  0  0  0  0
 26 40  1  0  0  0  0
 27  6  1  0  0  0  0
 30 10  1  0  0  0  0
 34 19  1  0  0  0  0
 35 20  1  0  0  0  0
 37 23  1  0  0  0  0
 38 24  1  0  0  0  0
 39 25  1  0  0  0  0
M  END
$$$$
