rmsd120.gzmat
 OpenBabel08211713383D

 40 42  0  0  0  0  0  0  0  0999 V2000
    0.0000    0.0000    0.0000 O   0  0  0  0  0  0  0  0  0  0  0  0
    1.2049    0.0000    0.0000 C   0  0  0  0  0  0  0  0  0  0  0  0
    1.9595    0.0000    1.3283 C   0  0  0  0  0  0  0  0  0  0  0  0
    2.4923   -1.0030    1.7270 O   0  0  0  0  0  0  0  0  0  0  0  0
    2.0280    1.2905    2.0381 C   0  0  0  0  0  0  0  0  0  0  0  0
    3.1713    1.5708    2.7877 C   0  0  0  0  0  0  0  0  0  0  0  0
    3.2733    2.7880    3.4650 C   0  0  0  0  0  0  0  0  0  0  0  0
    2.2349    3.7200    3.3905 C   0  0  0  0  0  0  0  0  0  0  0  0
    1.0888    3.4269    2.6549 C   0  0  0  0  0  0  0  0  0  0  0  0
    0.9813    2.2130    1.9796 C   0  0  0  0  0  0  0  0  0  0  0  0
    4.4962    3.0477    4.2458 C   0  0  0  0  0  0  0  0  0  0  0  0
    5.4924    2.3767    4.1556 O   0  0  0  0  0  0  0  0  0  0  0  0
    4.4541    4.2169    5.2278 C   0  0  0  0  0  0  0  0  0  0  0  0
    4.6158    5.3385    4.8164 O   0  0  0  0  0  0  0  0  0  0  0  0
    4.1798    3.8999    6.6383 C   0  0  0  0  0  0  0  0  0  0  0  0
    4.0924    2.5810    7.0910 C   0  0  0  0  0  0  0  0  0  0  0  0
    3.8072    2.3270    8.4296 C   0  0  0  0  0  0  0  0  0  0  0  0
    3.6170    3.3865    9.3168 C   0  0  0  0  0  0  0  0  0  0  0  0
    3.7172    4.7030    8.8690 C   0  0  0  0  0  0  0  0  0  0  0  0
    3.9995    4.9611    7.5306 C   0  0  0  0  0  0  0  0  0  0  0  0
    2.0228    0.0561   -1.2223 C   0  0  0  0  0  0  0  0  0  0  0  0
    3.3323   -0.4281   -1.2496 C   0  0  0  0  0  0  0  0  0  0  0  0
    4.0758   -0.3411   -2.4236 C   0  0  0  0  0  0  0  0  0  0  0  0
    3.5128    0.2247   -3.5675 C   0  0  0  0  0  0  0  0  0  0  0  0
    2.2010    0.6966   -3.5433 C   0  0  0  0  0  0  0  0  0  0  0  0
    1.4526    0.6087   -2.3726 C   0  0  0  0  0  0  0  0  0  0  0  0
    3.9877    0.8396    2.8469 H   0  0  0  0  0  0  0  0  0  0  0  0
    2.3170    4.6836    3.9005 H   0  0  0  0  0  0  0  0  0  0  0  0
    0.2747    4.1493    2.6071 H   0  0  0  0  0  0  0  0  0  0  0  0
    0.0734    1.9840    1.4129 H   0  0  0  0  0  0  0  0  0  0  0  0
    4.2529    1.7451    6.4074 H   0  0  0  0  0  0  0  0  0  0  0  0
    3.7340    1.2999    8.7841 H   0  0  0  0  0  0  0  0  0  0  0  0
    3.3908    3.1849   10.3633 H   0  0  0  0  0  0  0  0  0  0  0  0
    3.5761    5.5277    9.5650 H   0  0  0  0  0  0  0  0  0  0  0  0
    4.0843    5.9901    7.1706 H   0  0  0  0  0  0  0  0  0  0  0  0
    3.7739   -0.8862   -0.3616 H   0  0  0  0  0  0  0  0  0  0  0  0
    5.0983   -0.7151   -2.4478 H   0  0  0  0  0  0  0  0  0  0  0  0
    4.0986    0.2961   -4.4835 H   0  0  0  0  0  0  0  0  0  0  0  0
    1.7626    1.1327   -4.4387 H   0  0  0  0  0  0  0  0  0  0  0  0
    0.4206    0.9662   -2.3477 H   0  0  0  0  0  0  0  0  0  0  0  0
  2  1  2  0  0  0  0
  2  3  1  0  0  0  0
  3  4  2  0  0  0  0
  3  5  1  0  0  0  0
  5  6  1  0  0  0  0
  6 27  1  0  0  0  0
  6  7  2  0  0  0  0
  7 11  1  0  0  0  0
  8  7  1  0  0  0  0
  8 28  1  0  0  0  0
  9  8  2  0  0  0  0
 10  5  2  0  0  0  0
 10  9  1  0  0  0  0
 11 13  1  0  0  0  0
 12 11  2  0  0  0  0
 13 15  1  0  0  0  0
 14 13  2  0  0  0  0
 15 16  2  0  0  0  0
 15 20  1  0  0  0  0
 16 17  1  0  0  0  0
 17 32  1  0  0  0  0
 17 18  2  0  0  0  0
 18 33  1  0  0  0  0
 19 18  1  0  0  0  0
 19 34  1  0  0  0  0
 20 19  2  0  0  0  0
 21  2  1  0  0  0  0
 22 21  1  0  0  0  0
 22 36  1  0  0  0  0
 23 22  2  0  0  0  0
 24 25  2  0  0  0  0
 24 23  1  0  0  0  0
 25 26  1  0  0  0  0
 26 40  1  0  0  0  0
 26 21  2  0  0  0  0
 29  9  1  0  0  0  0
 30 10  1  0  0  0  0
 31 16  1  0  0  0  0
 35 20  1  0  0  0  0
 37 23  1  0  0  0  0
 38 24  1  0  0  0  0
 39 25  1  0  0  0  0
M  END
$$$$
