
     RDKit          3D

 35 37  0  0  0  0  0  0  0  0999 V2000
   -0.0782    0.0734   -0.0111 C   0  0  1  0  0  0  0  0  0  0  0  0
    1.4632    0.0197   -0.0321 C   0  0  0  0  0  0  0  0  0  0  0  0
    0.6959    0.0777   -1.3193 C   0  0  0  0  0  0  0  0  0  0  0  0
    2.2199    1.2431    0.4260 C   0  0  0  0  0  0  0  0  0  0  0  0
    2.1950    1.6362    1.7724 C   0  0  0  0  0  0  0  0  0  0  0  0
    2.9329    2.7381    2.2063 C   0  0  0  0  0  0  0  0  0  0  0  0
    3.7145    3.4615    1.2998 C   0  0  0  0  0  0  0  0  0  0  0  0
    3.7509    3.0745   -0.0416 C   0  0  0  0  0  0  0  0  0  0  0  0
    3.0075    1.9724   -0.4736 C   0  0  0  0  0  0  0  0  0  0  0  0
    2.2018   -1.2494    0.3233 C   0  0  0  0  0  0  0  0  0  0  0  0
    2.1313   -1.7900    1.6182 C   0  0  0  0  0  0  0  0  0  0  0  0
    2.8671   -2.9252    1.9568 C   0  0  0  0  0  0  0  0  0  0  0  0
    3.6886   -3.5398    1.0059 C   0  0  0  0  0  0  0  0  0  0  0  0
    3.7670   -3.0129   -0.2850 C   0  0  0  0  0  0  0  0  0  0  0  0
    3.0287   -1.8747   -0.6226 C   0  0  0  0  0  0  0  0  0  0  0  0
   -0.9073   -1.1497    0.3227 C   0  0  0  0  0  0  0  0  0  0  0  0
   -1.9821   -1.0548    0.8570 O   0  0  0  0  0  0  0  0  0  0  0  0
   -0.4456   -2.3645   -0.0415 O   0  0  0  0  0  0  0  0  0  0  0  0
   -0.7634    1.3561    0.4152 C   0  0  0  0  0  0  0  0  0  0  0  0
    0.6909    1.0146   -1.8812 H   0  0  0  0  0  0  0  0  0  0  0  0
    0.6536   -0.8197   -1.9414 H   0  0  0  0  0  0  0  0  0  0  0  0
    1.5826    1.0798    2.4844 H   0  0  0  0  0  0  0  0  0  0  0  0
    2.8956    3.0360    3.2569 H   0  0  0  0  0  0  0  0  0  0  0  0
    4.2921    4.3245    1.6392 H   0  0  0  0  0  0  0  0  0  0  0  0
    4.3602    3.6321   -0.7569 H   0  0  0  0  0  0  0  0  0  0  0  0
    3.0406    1.6719   -1.5233 H   0  0  0  0  0  0  0  0  0  0  0  0
    1.4771   -1.3254    2.3586 H   0  0  0  0  0  0  0  0  0  0  0  0
    2.7926   -3.3384    2.9652 H   0  0  0  0  0  0  0  0  0  0  0  0
    4.2615   -4.4314    1.2707 H   0  0  0  0  0  0  0  0  0  0  0  0
    4.4050   -3.4879   -1.0339 H   0  0  0  0  0  0  0  0  0  0  0  0
    3.0953   -1.4595   -1.6309 H   0  0  0  0  0  0  0  0  0  0  0  0
    0.4992   -2.3390   -0.2629 H   0  0  0  0  0  0  0  0  0  0  0  0
   -0.1838    2.2361    0.1089 H   0  0  0  0  0  0  0  0  0  0  0  0
   -0.8944    1.3897    1.5066 H   0  0  0  0  0  0  0  0  0  0  0  0
   -1.7643    1.4100   -0.0358 H   0  0  0  0  0  0  0  0  0  0  0  0
  1  2  1  0
  1  3  1  0
  1 16  1  6
  1 19  1  0
  2  3  1  0
  2  4  1  0
  2 10  1  0
  3 20  1  0
  3 21  1  0
  4  5  2  0
  4  9  1  0
  5  6  1  0
  5 22  1  0
  6  7  2  0
  6 23  1  0
  7  8  1  0
  7 24  1  0
  8  9  2  0
  8 25  1  0
  9 26  1  0
 10 11  2  0
 10 15  1  0
 11 12  1  0
 11 27  1  0
 12 13  2  0
 12 28  1  0
 13 14  1  0
 13 29  1  0
 14 15  2  0
 14 30  1  0
 15 31  1  0
 16 17  2  0
 16 18  1  0
 18 32  1  0
 19 33  1  0
 19 34  1  0
 19 35  1  0
M  END

