rmsd161.gzmat
 OpenBabel08211713403D

 35 37  0  0  1  0  0  0  0  0999 V2000
    0.0000    0.0000    0.0000 C   0  0  1  0  0  0  0  0  0  0  0  0
    1.5345    0.0000    0.0000 C   0  0  0  0  0  0  0  0  0  0  0  0
    0.7613    0.0000   -1.3049 C   0  0  0  0  0  0  0  0  0  0  0  0
    2.2713    1.2200    0.4215 C   0  0  0  0  0  0  0  0  0  0  0  0
    2.1351    1.7056    1.7236 C   0  0  0  0  0  0  0  0  0  0  0  0
    2.8467    2.8351    2.1191 C   0  0  0  0  0  0  0  0  0  0  0  0
    3.6989    3.4751    1.2204 C   0  0  0  0  0  0  0  0  0  0  0  0
    3.8465    2.9803   -0.0741 C   0  0  0  0  0  0  0  0  0  0  0  0
    3.1347    1.8524   -0.4751 C   0  0  0  0  0  0  0  0  0  0  0  0
    2.2882   -1.2203    0.3918 C   0  0  0  0  0  0  0  0  0  0  0  0
    3.1765   -1.8014   -0.5154 C   0  0  0  0  0  0  0  0  0  0  0  0
    3.9231   -2.9142   -0.1367 C   0  0  0  0  0  0  0  0  0  0  0  0
    3.7812   -3.4482    1.1432 C   0  0  0  0  0  0  0  0  0  0  0  0
    2.8942   -2.8667    2.0474 C   0  0  0  0  0  0  0  0  0  0  0  0
    2.1486   -1.7510    1.6745 C   0  0  0  0  0  0  0  0  0  0  0  0
   -0.7199   -1.2358    0.4461 C   0  0  0  0  0  0  0  0  0  0  0  0
   -0.8279   -1.6284    1.5734 O   0  0  0  0  0  0  0  0  0  0  0  0
   -1.3475   -1.9471   -0.5322 O   0  0  0  0  0  0  0  0  0  0  0  0
   -0.7684    1.2206    0.4255 C   0  0  0  0  0  0  0  0  0  0  0  0
    0.7519    0.8948   -1.9248 H   0  0  0  0  0  0  0  0  0  0  0  0
    0.7885   -0.8885   -1.9320 H   0  0  0  0  0  0  0  0  0  0  0  0
    1.4777    1.1961    2.4274 H   0  0  0  0  0  0  0  0  0  0  0  0
    2.7392    3.2158    3.1332 H   0  0  0  0  0  0  0  0  0  0  0  0
    4.2535    4.3578    1.5311 H   0  0  0  0  0  0  0  0  0  0  0  0
    4.5213    3.4726   -0.7719 H   0  0  0  0  0  0  0  0  0  0  0  0
    3.2571    1.4590   -1.4820 H   0  0  0  0  0  0  0  0  0  0  0  0
    3.2905   -1.3809   -1.5122 H   0  0  0  0  0  0  0  0  0  0  0  0
    4.6208   -3.3646   -0.8394 H   0  0  0  0  0  0  0  0  0  0  0  0
    4.3627   -4.3195    1.4370 H   0  0  0  0  0  0  0  0  0  0  0  0
    2.7789   -3.2848    3.0460 H   0  0  0  0  0  0  0  0  0  0  0  0
    1.4482   -1.3006    2.3796 H   0  0  0  0  0  0  0  0  0  0  0  0
   -1.2624   -1.5701   -1.4350 H   0  0  0  0  0  0  0  0  0  0  0  0
   -0.2355    2.1509    0.1809 H   0  0  0  0  0  0  0  0  0  0  0  0
   -0.9353    1.2287    1.5147 H   0  0  0  0  0  0  0  0  0  0  0  0
   -1.7539    1.2722   -0.0573 H   0  0  0  0  0  0  0  0  0  0  0  0
  1  2  1  0  0  0  0
  1 19  1  0  0  0  0
  1 16  1  1  0  0  0
  2 10  1  0  0  0  0
  2  4  1  0  0  0  0
  3  1  1  0  0  0  0
  3  2  1  0  0  0  0
  4  5  2  0  0  0  0
  5  6  1  0  0  0  0
  5 22  1  0  0  0  0
  6 23  1  0  0  0  0
  7 24  1  0  0  0  0
  7  6  2  0  0  0  0
  8  7  1  0  0  0  0
  9  8  2  0  0  0  0
  9  4  1  0  0  0  0
 10 15  2  0  0  0  0
 11 12  2  0  0  0  0
 11 10  1  0  0  0  0
 12 13  1  0  0  0  0
 13 29  1  0  0  0  0
 13 14  2  0  0  0  0
 14 30  1  0  0  0  0
 15 14  1  0  0  0  0
 15 31  1  0  0  0  0
 16 17  2  0  0  0  0
 18 16  1  0  0  0  0
 19 34  1  0  0  0  0
 20  3  1  0  0  0  0
 21  3  1  0  0  0  0
 25  8  1  0  0  0  0
 26  9  1  0  0  0  0
 27 11  1  0  0  0  0
 28 12  1  0  0  0  0
 32 18  1  0  0  0  0
 33 19  1  0  0  0  0
 35 19  1  0  0  0  0
M  END
$$$$
