rmsd10.gzmat
 OpenBabel08211713403D

 35 37  0  0  1  0  0  0  0  0999 V2000
    0.0000    0.0000    0.0000 C   0  0  1  0  0  0  0  0  0  0  0  0
    1.5344    0.0000    0.0000 C   0  0  0  0  0  0  0  0  0  0  0  0
    0.7609    0.0000   -1.3052 C   0  0  0  0  0  0  0  0  0  0  0  0
    2.2639    1.2197    0.4326 C   0  0  0  0  0  0  0  0  0  0  0  0
    2.1564    1.6642    1.7523 C   0  0  0  0  0  0  0  0  0  0  0  0
    2.8658    2.7892    2.1642 C   0  0  0  0  0  0  0  0  0  0  0  0
    3.6850    3.4676    1.2630 C   0  0  0  0  0  0  0  0  0  0  0  0
    3.7991    3.0174   -0.0510 C   0  0  0  0  0  0  0  0  0  0  0  0
    3.0906    1.8933   -0.4682 C   0  0  0  0  0  0  0  0  0  0  0  0
    2.2854   -1.2246    0.3845 C   0  0  0  0  0  0  0  0  0  0  0  0
    2.1518   -1.7629    1.6647 C   0  0  0  0  0  0  0  0  0  0  0  0
    2.8843   -2.8927    2.0214 C   0  0  0  0  0  0  0  0  0  0  0  0
    3.7502   -3.4831    1.1030 C   0  0  0  0  0  0  0  0  0  0  0  0
    3.8894   -2.9395   -0.1731 C   0  0  0  0  0  0  0  0  0  0  0  0
    3.1604   -1.8094   -0.5336 C   0  0  0  0  0  0  0  0  0  0  0  0
   -0.7110   -1.2337    0.4645 C   0  0  0  0  0  0  0  0  0  0  0  0
   -0.8520   -1.5828    1.6027 O   0  0  0  0  0  0  0  0  0  0  0  0
   -1.2802   -2.0019   -0.5058 O   0  0  0  0  0  0  0  0  0  0  0  0
   -0.7669    1.2256    0.4139 C   0  0  0  0  0  0  0  0  0  0  0  0
    0.7490    0.8960   -1.9237 H   0  0  0  0  0  0  0  0  0  0  0  0
    0.7897   -0.8867   -1.9343 H   0  0  0  0  0  0  0  0  0  0  0  0
    1.5219    1.1266    2.4566 H   0  0  0  0  0  0  0  0  0  0  0  0
    2.7835    3.1360    3.1927 H   0  0  0  0  0  0  0  0  0  0  0  0
    4.2390    4.3459    1.5869 H   0  0  0  0  0  0  0  0  0  0  0  0
    4.4449    3.5416   -0.7525 H   0  0  0  0  0  0  0  0  0  0  0  0
    3.1876    1.5351   -1.4909 H   0  0  0  0  0  0  0  0  0  0  0  0
    1.4653   -1.3088    2.3812 H   0  0  0  0  0  0  0  0  0  0  0  0
    2.7734   -3.3155    3.0188 H   0  0  0  0  0  0  0  0  0  0  0  0
    4.3178   -4.3688    1.3806 H   0  0  0  0  0  0  0  0  0  0  0  0
    4.5685   -3.3978   -0.8885 H   0  0  0  0  0  0  0  0  0  0  0  0
    3.2758   -1.3785   -1.5254 H   0  0  0  0  0  0  0  0  0  0  0  0
   -1.1753   -1.6576   -1.4192 H   0  0  0  0  0  0  0  0  0  0  0  0
   -0.2164    2.1517    0.1923 H   0  0  0  0  0  0  0  0  0  0  0  0
   -0.9658    1.2280    1.4975 H   0  0  0  0  0  0  0  0  0  0  0  0
   -1.7350    1.2916   -0.1009 H   0  0  0  0  0  0  0  0  0  0  0  0
  1  2  1  0  0  0  0
  1 19  1  0  0  0  0
  1 16  1  1  0  0  0
  2 10  1  0  0  0  0
  2  4  1  0  0  0  0
  3  1  1  0  0  0  0
  3  2  1  0  0  0  0
  4  5  2  0  0  0  0
  5  6  1  0  0  0  0
  5 22  1  0  0  0  0
  6 23  1  0  0  0  0
  7 24  1  0  0  0  0
  7  6  2  0  0  0  0
  8  7  1  0  0  0  0
  9  8  2  0  0  0  0
  9  4  1  0  0  0  0
 10 11  2  0  0  0  0
 11 12  1  0  0  0  0
 11 27  1  0  0  0  0
 12 28  1  0  0  0  0
 13 29  1  0  0  0  0
 13 12  2  0  0  0  0
 14 13  1  0  0  0  0
 15 14  2  0  0  0  0
 15 10  1  0  0  0  0
 16 17  2  0  0  0  0
 18 16  1  0  0  0  0
 19 34  1  0  0  0  0
 20  3  1  0  0  0  0
 21  3  1  0  0  0  0
 25  8  1  0  0  0  0
 26  9  1  0  0  0  0
 30 14  1  0  0  0  0
 31 15  1  0  0  0  0
 32 18  1  0  0  0  0
 33 19  1  0  0  0  0
 35 19  1  0  0  0  0
M  END
$$$$
