35
rmsd162.gzmat
C          0.00000        0.00000        0.00000
C          1.53330        0.00000        0.00000
C          0.76090        0.00000       -1.30530
C          2.26830        1.21790        0.43080
C          2.15280        1.67390        1.74570
C          2.88740        2.78090        2.16210
C          3.73880        3.43130        1.27010
C          3.85120        2.97700       -0.04280
C          3.11740        1.87060       -0.46410
C          2.28820       -1.22120        0.38720
C          3.16800       -1.80400       -0.52720
C          3.91220       -2.92100       -0.15700
C          3.78140       -3.45460        1.12420
C          2.90610       -2.86930        2.03700
C          2.15960       -1.75180        1.67110
C         -0.71970       -1.23800        0.44010
O         -0.78780       -1.66620        1.55710
O         -1.39680       -1.90690       -0.53580
C         -0.76690        1.22060        0.42700
H          0.75610        0.89250       -1.92810
H          0.78440       -0.89170       -1.92870
H          1.49680        1.15650        2.44500
H          2.80140        3.13360        3.18840
H          4.32160        4.28840        1.60160
H          4.51820        3.48210       -0.73880
H          3.21430        1.50790       -1.48510
H          3.27720       -1.38130       -1.52350
H          4.59710       -3.37610       -0.86890
H          4.36140       -4.32910        1.41100
H          2.79970       -3.28640        3.03700
H          1.46720       -1.30020        2.38340
H         -1.34870       -1.49490       -1.42630
H         -0.22850        2.14990        0.18980
H         -0.93940        1.22470        1.51530
H         -1.74710        1.27830       -0.06570
