35
rmsd166.gzmat
C          0.00000        0.00000        0.00000
C          1.53350        0.00000        0.00000
C          0.76070        0.00000       -1.30540
C          2.26680        1.22250        0.42090
C          2.15890        1.68390        1.73450
C          2.88510        2.80130        2.13750
C          3.71840        3.45810        1.23310
C          3.82620        2.99640       -0.07750
C          3.10320        1.87770       -0.48480
C          2.28700       -1.21820        0.39840
C          3.15980       -1.81690       -0.51190
C          3.89870       -2.93410       -0.13130
C          3.77100       -3.45100        1.15700
C          2.90260       -2.84990        2.06600
C          2.16140       -1.73230        1.68940
C         -0.72310       -1.23850        0.43350
O         -0.76630       -1.69370        1.54090
O         -1.43710       -1.87350       -0.53900
C         -0.76670        1.21950        0.43070
H          0.75480        0.89530       -1.92460
H          0.78170       -0.88890       -1.93270
H          1.51440        1.16380        2.44220
H          2.80610        3.15880        3.16230
H          4.28800        4.32840        1.55270
H          4.47860        3.50630       -0.78370
H          3.19720        1.50910       -1.50380
H          3.26730       -1.40630       -1.51310
H          4.57740       -3.40260       -0.84040
H          4.35010       -4.32330        1.45240
H          2.79740       -3.25380        3.07140
H          1.47540       -1.26790        2.39920
H         -1.40610       -1.44030       -1.41960
H         -0.23480        2.15070        0.18480
H         -0.92660        1.22750        1.52080
H         -1.75440        1.27040       -0.04840
