rmsd165.gzmat
 OpenBabel08211713403D

 35 37  0  0  1  0  0  0  0  0999 V2000
    0.0000    0.0000    0.0000 C   0  0  1  0  0  0  0  0  0  0  0  0
    1.5339    0.0000    0.0000 C   0  0  0  0  0  0  0  0  0  0  0  0
    0.7611    0.0000   -1.3052 C   0  0  0  0  0  0  0  0  0  0  0  0
    2.2656    1.2185    0.4351 C   0  0  0  0  0  0  0  0  0  0  0  0
    2.1759    1.6450    1.7619 C   0  0  0  0  0  0  0  0  0  0  0  0
    2.8980    2.7583    2.1829 C   0  0  0  0  0  0  0  0  0  0  0  0
    3.7128    3.4440    1.2832 C   0  0  0  0  0  0  0  0  0  0  0  0
    3.8035    3.0163   -0.0398 C   0  0  0  0  0  0  0  0  0  0  0  0
    3.0816    1.9037   -0.4661 C   0  0  0  0  0  0  0  0  0  0  0  0
    2.2915   -1.2200    0.3858 C   0  0  0  0  0  0  0  0  0  0  0  0
    3.2019   -1.7749   -0.5160 C   0  0  0  0  0  0  0  0  0  0  0  0
    3.9519   -2.8881   -0.1463 C   0  0  0  0  0  0  0  0  0  0  0  0
    3.7949   -3.4471    1.1211 C   0  0  0  0  0  0  0  0  0  0  0  0
    2.8865   -2.8918    2.0201 C   0  0  0  0  0  0  0  0  0  0  0  0
    2.1361   -1.7764    1.6559 C   0  0  0  0  0  0  0  0  0  0  0  0
   -0.7228   -1.2312    0.4532 C   0  0  0  0  0  0  0  0  0  0  0  0
   -0.8528   -1.6013    1.5859 O   0  0  0  0  0  0  0  0  0  0  0  0
   -1.3228   -1.9678   -0.5234 O   0  0  0  0  0  0  0  0  0  0  0  0
   -0.7633    1.2267    0.4176 C   0  0  0  0  0  0  0  0  0  0  0  0
    0.7499    0.8953   -1.9243 H   0  0  0  0  0  0  0  0  0  0  0  0
    0.7899   -0.8876   -1.9334 H   0  0  0  0  0  0  0  0  0  0  0  0
    1.5461    1.1005    2.4646 H   0  0  0  0  0  0  0  0  0  0  0  0
    2.8293    3.0909    3.2170 H   0  0  0  0  0  0  0  0  0  0  0  0
    4.2808    4.3103    1.6157 H   0  0  0  0  0  0  0  0  0  0  0  0
    4.4434    3.5479   -0.7413 H   0  0  0  0  0  0  0  0  0  0  0  0
    3.1616    1.5642   -1.4962 H   0  0  0  0  0  0  0  0  0  0  0  0
    3.3304   -1.3327   -1.5014 H   0  0  0  0  0  0  0  0  0  0  0  0
    4.6629   -3.3197   -0.8472 H   0  0  0  0  0  0  0  0  0  0  0  0
    4.3818   -4.3167    1.4088 H   0  0  0  0  0  0  0  0  0  0  0  0
    2.7577   -3.3303    3.0081 H   0  0  0  0  0  0  0  0  0  0  0  0
    1.4207   -1.3464    2.3591 H   0  0  0  0  0  0  0  0  0  0  0  0
   -1.2268   -1.6053   -1.4305 H   0  0  0  0  0  0  0  0  0  0  0  0
   -0.2069    2.1517    0.2060 H   0  0  0  0  0  0  0  0  0  0  0  0
   -0.9694    1.2226    1.4997 H   0  0  0  0  0  0  0  0  0  0  0  0
   -1.7282    1.3003   -0.1025 H   0  0  0  0  0  0  0  0  0  0  0  0
  1  2  1  0  0  0  0
  1 19  1  0  0  0  0
  1 16  1  1  0  0  0
  2 10  1  0  0  0  0
  2  4  1  0  0  0  0
  3  1  1  0  0  0  0
  3  2  1  0  0  0  0
  4  5  2  0  0  0  0
  5  6  1  0  0  0  0
  5 22  1  0  0  0  0
  6 23  1  0  0  0  0
  7 24  1  0  0  0  0
  7  6  2  0  0  0  0
  8  7  1  0  0  0  0
  9  8  2  0  0  0  0
  9  4  1  0  0  0  0
 10 15  2  0  0  0  0
 11 12  2  0  0  0  0
 11 10  1  0  0  0  0
 12 13  1  0  0  0  0
 13 29  1  0  0  0  0
 13 14  2  0  0  0  0
 14 30  1  0  0  0  0
 15 14  1  0  0  0  0
 15 31  1  0  0  0  0
 16 17  2  0  0  0  0
 18 16  1  0  0  0  0
 19 34  1  0  0  0  0
 20  3  1  0  0  0  0
 21  3  1  0  0  0  0
 25  8  1  0  0  0  0
 26  9  1  0  0  0  0
 27 11  1  0  0  0  0
 28 12  1  0  0  0  0
 32 18  1  0  0  0  0
 33 19  1  0  0  0  0
 35 19  1  0  0  0  0
M  END
$$$$
