35
rmsd161.gzmat
C          0.00000        0.00000        0.00000
C          1.53450        0.00000        0.00000
C          0.76130        0.00000       -1.30490
C          2.27130        1.22000        0.42150
C          2.13510        1.70560        1.72360
C          2.84670        2.83510        2.11910
C          3.69890        3.47510        1.22040
C          3.84650        2.98030       -0.07410
C          3.13470        1.85240       -0.47510
C          2.28820       -1.22030        0.39180
C          3.17650       -1.80140       -0.51540
C          3.92310       -2.91420       -0.13670
C          3.78120       -3.44820        1.14320
C          2.89420       -2.86670        2.04740
C          2.14860       -1.75100        1.67450
C         -0.71990       -1.23580        0.44610
O         -0.82790       -1.62840        1.57340
O         -1.34750       -1.94710       -0.53220
C         -0.76840        1.22060        0.42550
H          0.75190        0.89480       -1.92480
H          0.78850       -0.88850       -1.93200
H          1.47770        1.19610        2.42740
H          2.73920        3.21580        3.13320
H          4.25350        4.35780        1.53110
H          4.52130        3.47260       -0.77190
H          3.25710        1.45900       -1.48200
H          3.29050       -1.38090       -1.51220
H          4.62080       -3.36460       -0.83940
H          4.36270       -4.31950        1.43700
H          2.77890       -3.28480        3.04600
H          1.44820       -1.30060        2.37960
H         -1.26240       -1.57010       -1.43500
H         -0.23550        2.15090        0.18090
H         -0.93530        1.22870        1.51470
H         -1.75390        1.27220       -0.05730
