rmsd166.gzmat
 OpenBabel08211713403D

 35 37  0  0  1  0  0  0  0  0999 V2000
    0.0000    0.0000    0.0000 C   0  0  1  0  0  0  0  0  0  0  0  0
    1.5335    0.0000    0.0000 C   0  0  0  0  0  0  0  0  0  0  0  0
    0.7607    0.0000   -1.3054 C   0  0  0  0  0  0  0  0  0  0  0  0
    2.2668    1.2225    0.4209 C   0  0  0  0  0  0  0  0  0  0  0  0
    2.1589    1.6839    1.7345 C   0  0  0  0  0  0  0  0  0  0  0  0
    2.8851    2.8013    2.1375 C   0  0  0  0  0  0  0  0  0  0  0  0
    3.7184    3.4581    1.2331 C   0  0  0  0  0  0  0  0  0  0  0  0
    3.8262    2.9964   -0.0775 C   0  0  0  0  0  0  0  0  0  0  0  0
    3.1032    1.8777   -0.4848 C   0  0  0  0  0  0  0  0  0  0  0  0
    2.2870   -1.2182    0.3984 C   0  0  0  0  0  0  0  0  0  0  0  0
    3.1598   -1.8169   -0.5119 C   0  0  0  0  0  0  0  0  0  0  0  0
    3.8987   -2.9341   -0.1313 C   0  0  0  0  0  0  0  0  0  0  0  0
    3.7710   -3.4510    1.1570 C   0  0  0  0  0  0  0  0  0  0  0  0
    2.9026   -2.8499    2.0660 C   0  0  0  0  0  0  0  0  0  0  0  0
    2.1614   -1.7323    1.6894 C   0  0  0  0  0  0  0  0  0  0  0  0
   -0.7231   -1.2385    0.4335 C   0  0  0  0  0  0  0  0  0  0  0  0
   -0.7663   -1.6937    1.5409 O   0  0  0  0  0  0  0  0  0  0  0  0
   -1.4371   -1.8735   -0.5390 O   0  0  0  0  0  0  0  0  0  0  0  0
   -0.7667    1.2195    0.4307 C   0  0  0  0  0  0  0  0  0  0  0  0
    0.7548    0.8953   -1.9246 H   0  0  0  0  0  0  0  0  0  0  0  0
    0.7817   -0.8889   -1.9327 H   0  0  0  0  0  0  0  0  0  0  0  0
    1.5144    1.1638    2.4422 H   0  0  0  0  0  0  0  0  0  0  0  0
    2.8061    3.1588    3.1623 H   0  0  0  0  0  0  0  0  0  0  0  0
    4.2880    4.3284    1.5527 H   0  0  0  0  0  0  0  0  0  0  0  0
    4.4786    3.5063   -0.7837 H   0  0  0  0  0  0  0  0  0  0  0  0
    3.1972    1.5091   -1.5038 H   0  0  0  0  0  0  0  0  0  0  0  0
    3.2673   -1.4063   -1.5131 H   0  0  0  0  0  0  0  0  0  0  0  0
    4.5774   -3.4026   -0.8404 H   0  0  0  0  0  0  0  0  0  0  0  0
    4.3501   -4.3233    1.4524 H   0  0  0  0  0  0  0  0  0  0  0  0
    2.7974   -3.2538    3.0714 H   0  0  0  0  0  0  0  0  0  0  0  0
    1.4754   -1.2679    2.3992 H   0  0  0  0  0  0  0  0  0  0  0  0
   -1.4061   -1.4403   -1.4196 H   0  0  0  0  0  0  0  0  0  0  0  0
   -0.2348    2.1507    0.1848 H   0  0  0  0  0  0  0  0  0  0  0  0
   -0.9266    1.2275    1.5208 H   0  0  0  0  0  0  0  0  0  0  0  0
   -1.7544    1.2704   -0.0484 H   0  0  0  0  0  0  0  0  0  0  0  0
  1  2  1  0  0  0  0
  1 19  1  0  0  0  0
  1 16  1  1  0  0  0
  2 10  1  0  0  0  0
  2  4  1  0  0  0  0
  3  1  1  0  0  0  0
  3  2  1  0  0  0  0
  4  5  2  0  0  0  0
  5  6  1  0  0  0  0
  5 22  1  0  0  0  0
  6 23  1  0  0  0  0
  7 24  1  0  0  0  0
  7  6  2  0  0  0  0
  8  7  1  0  0  0  0
  9  8  2  0  0  0  0
  9  4  1  0  0  0  0
 10 15  2  0  0  0  0
 11 12  2  0  0  0  0
 11 10  1  0  0  0  0
 12 13  1  0  0  0  0
 13 29  1  0  0  0  0
 13 14  2  0  0  0  0
 14 30  1  0  0  0  0
 15 14  1  0  0  0  0
 15 31  1  0  0  0  0
 16 17  2  0  0  0  0
 18 16  1  0  0  0  0
 19 34  1  0  0  0  0
 20  3  1  0  0  0  0
 21  3  1  0  0  0  0
 25  8  1  0  0  0  0
 26  9  1  0  0  0  0
 27 11  1  0  0  0  0
 28 12  1  0  0  0  0
 32 18  1  0  0  0  0
 33 19  1  0  0  0  0
 35 19  1  0  0  0  0
M  END
$$$$
