
     RDKit          3D

 43 45  0  0  0  0  0  0  0  0999 V2000
    0.2145    0.6747   -0.3076 Cl  0  0  0  0  0  0  0  0  0  0  0  0
    1.9162    0.2473   -0.1190 C   0  0  0  0  0  0  0  0  0  0  0  0
    2.4645    0.0876    1.1619 C   0  0  0  0  0  0  0  0  0  0  0  0
    1.6467    0.2710    2.4353 C   0  0  1  0  0  0  0  0  0  0  0  0
    2.3465    0.1626    3.2798 H   0  0  0  0  0  0  0  0  0  0  0  0
    1.1274    1.5768    2.5675 O   0  0  0  0  0  0  0  0  0  0  0  0
    0.5619   -0.7890    2.5943 C   0  0  0  0  0  0  0  0  0  0  0  0
    0.7041   -2.1323    2.3262 C   0  0  0  0  0  0  0  0  0  0  0  0
   -0.7615   -3.0271    2.6572 S   0  0  0  0  0  0  0  0  0  0  0  0
   -1.5851   -1.5748    3.1602 C   0  0  0  0  0  0  0  0  0  0  0  0
   -0.7498   -0.4880    3.0780 C   0  0  0  0  0  0  0  0  0  0  0  0
   -3.0326   -1.6058    3.5549 C   0  0  0  0  0  0  0  0  0  0  0  0
   -3.9825   -1.8738    2.3796 C   0  0  0  0  0  0  0  0  0  0  0  0
    1.8510   -2.8003    1.8679 N   0  0  0  0  0  0  0  0  0  0  0  0
    2.1356   -3.2097    0.5762 C   0  0  0  0  0  0  0  0  0  0  0  0
    3.3434   -3.7077    0.5342 N   0  0  0  0  0  0  0  0  0  0  0  0
    3.8830   -3.6418    1.8013 N   0  0  0  0  0  0  0  0  0  0  0  0
    2.9933   -3.1049    2.5949 C   0  0  0  0  0  0  0  0  0  0  0  0
    3.1342   -2.8511    4.0532 C   0  0  0  0  0  0  0  0  0  0  0  0
    1.1782   -3.1174   -0.5798 C   0  0  0  0  0  0  0  0  0  0  0  0
    1.8017   -3.2753   -1.8805 N   0  0  0  0  0  0  0  0  0  0  0  0
    3.8157   -0.2727    1.2375 C   0  0  0  0  0  0  0  0  0  0  0  0
    4.5811   -0.4926    0.0927 C   0  0  0  0  0  0  0  0  0  0  0  0
    4.0081   -0.3191   -1.1679 C   0  0  0  0  0  0  0  0  0  0  0  0
    2.6690    0.0618   -1.2782 C   0  0  0  0  0  0  0  0  0  0  0  0
    0.5702    1.7466    1.7927 H   0  0  0  0  0  0  0  0  0  0  0  0
   -1.0546    0.5225    3.3479 H   0  0  0  0  0  0  0  0  0  0  0  0
   -3.2702   -0.6335    4.0157 H   0  0  0  0  0  0  0  0  0  0  0  0
   -3.1918   -2.3666    4.3385 H   0  0  0  0  0  0  0  0  0  0  0  0
   -3.8659   -1.1058    1.5993 H   0  0  0  0  0  0  0  0  0  0  0  0
   -5.0316   -1.8714    2.7141 H   0  0  0  0  0  0  0  0  0  0  0  0
   -3.7756   -2.8518    1.9174 H   0  0  0  0  0  0  0  0  0  0  0  0
    3.1166   -1.7743    4.2869 H   0  0  0  0  0  0  0  0  0  0  0  0
    4.0922   -3.2683    4.3880 H   0  0  0  0  0  0  0  0  0  0  0  0
    2.3153   -3.3209    4.6204 H   0  0  0  0  0  0  0  0  0  0  0  0
    0.6435   -2.1558   -0.5308 H   0  0  0  0  0  0  0  0  0  0  0  0
    0.3962   -3.8883   -0.4535 H   0  0  0  0  0  0  0  0  0  0  0  0
    2.5151   -2.5525   -1.9820 H   0  0  0  0  0  0  0  0  0  0  0  0
    2.3295   -4.1499   -1.8805 H   0  0  0  0  0  0  0  0  0  0  0  0
    4.2679   -0.4092    2.2218 H   0  0  0  0  0  0  0  0  0  0  0  0
    5.6206   -0.8097    0.1883 H   0  0  0  0  0  0  0  0  0  0  0  0
    4.5991   -0.4836   -2.0715 H   0  0  0  0  0  0  0  0  0  0  0  0
    2.1973    0.1981   -2.2522 H   0  0  0  0  0  0  0  0  0  0  0  0
  1  2  1  0
  2  3  2  0
  2 25  1  0
  3  4  1  0
  3 22  1  0
  4  5  1  1
  4  6  1  0
  4  7  1  0
  6 26  1  0
  7  8  2  0
  7 11  1  0
  8  9  1  0
  8 14  1  0
  9 10  1  0
 10 11  2  0
 10 12  1  0
 11 27  1  0
 12 13  1  0
 12 28  1  0
 12 29  1  0
 13 30  1  0
 13 31  1  0
 13 32  1  0
 14 15  1  0
 14 18  1  0
 15 16  2  0
 15 20  1  0
 16 17  1  0
 17 18  2  0
 18 19  1  0
 19 33  1  0
 19 34  1  0
 19 35  1  0
 20 21  1  0
 20 36  1  0
 20 37  1  0
 21 38  1  0
 21 39  1  0
 22 23  2  0
 22 40  1  0
 23 24  1  0
 23 41  1  0
 24 25  2  0
 24 42  1  0
 25 43  1  0
M  END

