43

Cl         0.21450        0.67470       -0.30760
C          1.91620        0.24730       -0.11900
C          2.46450        0.08760        1.16190
C          1.64670        0.27100        2.43530
H          2.34650        0.16260        3.27980
O          1.12740        1.57680        2.56750
C          0.56190       -0.78900        2.59430
C          0.70410       -2.13230        2.32620
S         -0.76150       -3.02710        2.65720
C         -1.58510       -1.57480        3.16020
C         -0.74980       -0.48800        3.07800
C         -3.03260       -1.60580        3.55490
C         -3.98250       -1.87380        2.37960
N          1.85100       -2.80030        1.86790
C          2.13560       -3.20970        0.57620
N          3.34340       -3.70770        0.53420
N          3.88300       -3.64180        1.80130
C          2.99330       -3.10490        2.59490
C          3.13420       -2.85110        4.05320
C          1.17820       -3.11740       -0.57980
N          1.80170       -3.27530       -1.88050
C          3.81570       -0.27270        1.23750
C          4.58110       -0.49260        0.09270
C          4.00810       -0.31910       -1.16790
C          2.66900        0.06180       -1.27820
H          0.57020        1.74660        1.79270
H         -1.05460        0.52250        3.34790
H         -3.27020       -0.63350        4.01570
H         -3.19180       -2.36660        4.33850
H         -3.86590       -1.10580        1.59930
H         -5.03160       -1.87140        2.71410
H         -3.77560       -2.85180        1.91740
H          3.11660       -1.77430        4.28690
H          4.09220       -3.26830        4.38800
H          2.31530       -3.32090        4.62040
H          0.64350       -2.15580       -0.53080
H          0.39620       -3.88830       -0.45350
H          2.51510       -2.55250       -1.98200
H          2.32950       -4.14990       -1.88050
H          4.26790       -0.40920        2.22180
H          5.62060       -0.80970        0.18830
H          4.59910       -0.48360       -2.07150
H          2.19730        0.19810       -2.25220
