rmsd47.gzmat
 OpenBabel08211713403D

 43 45  0  0  1  0  0  0  0  0999 V2000
    0.0000    0.0000    0.0000 Cl  0  0  0  0  0  0  0  0  0  0  0  0
    1.7122    0.0000    0.0000 C   0  0  0  0  0  0  0  0  0  0  0  0
    2.3993    0.0000    1.2091 C   0  0  0  0  0  0  0  0  0  0  0  0
    1.6980    0.0290    2.5436 C   0  0  1  0  0  0  0  0  0  0  0  0
    2.4259   -0.0679    3.3965 H   0  0  0  0  0  0  0  0  0  0  0  0
    1.1602    1.3050    2.7938 O   0  0  0  0  0  0  0  0  0  0  0  0
    0.6441   -1.0328    2.6507 C   0  0  0  0  0  0  0  0  0  0  0  0
    0.8060   -2.3615    2.3461 C   0  0  0  0  0  0  0  0  0  0  0  0
   -0.6759   -3.2633    2.6401 S   0  0  0  0  0  0  0  0  0  0  0  0
   -1.5060   -1.8152    3.1685 C   0  0  0  0  0  0  0  0  0  0  0  0
   -0.6748   -0.7332    3.1233 C   0  0  0  0  0  0  0  0  0  0  0  0
   -2.9099   -1.8344    3.6311 C   0  0  0  0  0  0  0  0  0  0  0  0
   -2.9577   -2.0171    5.1522 C   0  0  0  0  0  0  0  0  0  0  0  0
    1.9514   -3.0048    1.8870 N   0  0  0  0  0  0  0  0  0  0  0  0
    2.2141   -3.4602    0.5820 C   0  0  0  0  0  0  0  0  0  0  0  0
    3.4951   -3.8816    0.5480 N   0  0  0  0  0  0  0  0  0  0  0  0
    4.0589   -3.7125    1.7564 N   0  0  0  0  0  0  0  0  0  0  0  0
    3.1554   -3.1822    2.6057 C   0  0  0  0  0  0  0  0  0  0  0  0
    3.3293   -2.8971    4.0371 C   0  0  0  0  0  0  0  0  0  0  0  0
    1.2429   -3.4966   -0.5524 C   0  0  0  0  0  0  0  0  0  0  0  0
    1.8880   -3.3397   -1.8655 N   0  0  0  0  0  0  0  0  0  0  0  0
    3.7949   -0.0303    1.1703 C   0  0  0  0  0  0  0  0  0  0  0  0
    4.4647   -0.0751   -0.0509 C   0  0  0  0  0  0  0  0  0  0  0  0
    3.7500   -0.0705   -1.2476 C   0  0  0  0  0  0  0  0  0  0  0  0
    2.3570   -0.0244   -1.2289 C   0  0  0  0  0  0  0  0  0  0  0  0
    0.5793    1.6050    2.0610 H   0  0  0  0  0  0  0  0  0  0  0  0
   -0.9520    0.2723    3.4164 H   0  0  0  0  0  0  0  0  0  0  0  0
   -3.5112   -2.6267    3.1362 H   0  0  0  0  0  0  0  0  0  0  0  0
   -3.4187   -0.8830    3.3531 H   0  0  0  0  0  0  0  0  0  0  0  0
   -2.5278   -2.9780    5.4588 H   0  0  0  0  0  0  0  0  0  0  0  0
   -3.9874   -1.9823    5.5237 H   0  0  0  0  0  0  0  0  0  0  0  0
   -2.3933   -1.2289    5.6659 H   0  0  0  0  0  0  0  0  0  0  0  0
    2.7574   -2.0202    4.3757 H   0  0  0  0  0  0  0  0  0  0  0  0
    4.3941   -2.7218    4.2786 H   0  0  0  0  0  0  0  0  0  0  0  0
    3.0030   -3.7556    4.6529 H   0  0  0  0  0  0  0  0  0  0  0  0
    0.4636   -2.7044   -0.4456 H   0  0  0  0  0  0  0  0  0  0  0  0
    0.6949   -4.4740   -0.5468 H   0  0  0  0  0  0  0  0  0  0  0  0
    2.3664   -2.4531   -1.9339 H   0  0  0  0  0  0  0  0  0  0  0  0
    2.5678   -4.0721   -2.0294 H   0  0  0  0  0  0  0  0  0  0  0  0
    4.3676   -0.0296    2.0991 H   0  0  0  0  0  0  0  0  0  0  0  0
    5.5542   -0.1234   -0.0671 H   0  0  0  0  0  0  0  0  0  0  0  0
    4.2797   -0.1045   -2.1995 H   0  0  0  0  0  0  0  0  0  0  0  0
    1.7915   -0.0132   -2.1621 H   0  0  0  0  0  0  0  0  0  0  0  0
  1  2  1  0  0  0  0
  2  3  2  0  0  0  0
  3  4  1  0  0  0  0
  4  7  1  0  0  0  0
  4  6  1  0  0  0  0
  4  5  1  1  0  0  0
  7 11  1  0  0  0  0
  8  9  1  0  0  0  0
  8  7  2  0  0  0  0
  9 10  1  0  0  0  0
 10 12  1  0  0  0  0
 11 10  2  0  0  0  0
 11 27  1  0  0  0  0
 12 13  1  0  0  0  0
 13 30  1  0  0  0  0
 13 31  1  0  0  0  0
 13 32  1  0  0  0  0
 14  8  1  0  0  0  0
 14 18  1  0  0  0  0
 15 14  1  0  0  0  0
 16 15  2  0  0  0  0
 16 17  1  0  0  0  0
 17 18  2  0  0  0  0
 18 19  1  0  0  0  0
 19 34  1  0  0  0  0
 19 33  1  0  0  0  0
 19 35  1  0  0  0  0
 20 37  1  0  0  0  0
 20 36  1  0  0  0  0
 20 15  1  0  0  0  0
 21 20  1  0  0  0  0
 22  3  1  0  0  0  0
 22 40  1  0  0  0  0
 23 22  2  0  0  0  0
 24 25  2  0  0  0  0
 24 23  1  0  0  0  0
 25  2  1  0  0  0  0
 26  6  1  0  0  0  0
 28 12  1  0  0  0  0
 29 12  1  0  0  0  0
 38 21  1  0  0  0  0
 39 21  1  0  0  0  0
 41 23  1  0  0  0  0
 42 24  1  0  0  0  0
 43 25  1  0  0  0  0
M  END
$$$$
