
     RDKit          3D

 43 45  0  0  0  0  0  0  0  0999 V2000
    0.0951   -0.4247   -0.1301 Cl  0  0  0  0  0  0  0  0  0  0  0  0
    1.8291   -0.1738   -0.0836 C   0  0  0  0  0  0  0  0  0  0  0  0
    2.5115   -0.0702    1.1360 C   0  0  0  0  0  0  0  0  0  0  0  0
    1.8251   -0.1234    2.4940 C   0  0  1  0  0  0  0  0  0  0  0  0
    0.7593   -0.3576    2.3337 H   0  0  0  0  0  0  0  0  0  0  0  0
    2.4279   -1.0984    3.3289 O   0  0  0  0  0  0  0  0  0  0  0  0
    1.9240    1.2054    3.2145 C   0  0  0  0  0  0  0  0  0  0  0  0
    1.4068    2.3917    2.7455 C   0  0  0  0  0  0  0  0  0  0  0  0
    1.7235    3.7177    3.8428 S   0  0  0  0  0  0  0  0  0  0  0  0
    2.5723    2.6649    4.9430 C   0  0  0  0  0  0  0  0  0  0  0  0
    2.5839    1.3743    4.4722 C   0  0  0  0  0  0  0  0  0  0  0  0
    3.1403    3.1879    6.2301 C   0  0  0  0  0  0  0  0  0  0  0  0
    2.0753    3.6450    7.2359 C   0  0  0  0  0  0  0  0  0  0  0  0
    0.6868    2.6186    1.5617 N   0  0  0  0  0  0  0  0  0  0  0  0
   -0.6773    2.4684    1.3687 C   0  0  0  0  0  0  0  0  0  0  0  0
   -0.9933    2.8477    0.1611 N   0  0  0  0  0  0  0  0  0  0  0  0
    0.1583    3.2643   -0.4753 N   0  0  0  0  0  0  0  0  0  0  0  0
    1.1563    3.1334    0.3579 C   0  0  0  0  0  0  0  0  0  0  0  0
    2.5809    3.4727    0.1062 C   0  0  0  0  0  0  0  0  0  0  0  0
   -1.6228    1.9254    2.4027 C   0  0  0  0  0  0  0  0  0  0  0  0
   -2.9965    1.8105    1.9524 N   0  0  0  0  0  0  0  0  0  0  0  0
    3.9060    0.0883    1.0967 C   0  0  0  0  0  0  0  0  0  0  0  0
    4.5960    0.1564   -0.1113 C   0  0  0  0  0  0  0  0  0  0  0  0
    3.8894    0.0774   -1.3170 C   0  0  0  0  0  0  0  0  0  0  0  0
    2.5059   -0.0885   -1.3058 C   0  0  0  0  0  0  0  0  0  0  0  0
    2.4030   -1.9425    2.8601 H   0  0  0  0  0  0  0  0  0  0  0  0
    3.0495    0.5448    5.0020 H   0  0  0  0  0  0  0  0  0  0  0  0
    3.8308    4.0235    6.0207 H   0  0  0  0  0  0  0  0  0  0  0  0
    3.7525    2.3845    6.6704 H   0  0  0  0  0  0  0  0  0  0  0  0
    1.4657    4.4648    6.8242 H   0  0  0  0  0  0  0  0  0  0  0  0
    2.5429    4.0048    8.1657 H   0  0  0  0  0  0  0  0  0  0  0  0
    1.3943    2.8177    7.4887 H   0  0  0  0  0  0  0  0  0  0  0  0
    2.9527    4.2049    0.8404 H   0  0  0  0  0  0  0  0  0  0  0  0
    2.6627    3.8988   -0.9014 H   0  0  0  0  0  0  0  0  0  0  0  0
    3.2216    2.5813    0.1724 H   0  0  0  0  0  0  0  0  0  0  0  0
   -1.5761    2.5629    3.3037 H   0  0  0  0  0  0  0  0  0  0  0  0
   -1.2587    0.9360    2.7319 H   0  0  0  0  0  0  0  0  0  0  0  0
   -3.3131    2.7291    1.6374 H   0  0  0  0  0  0  0  0  0  0  0  0
   -3.0101    1.2436    1.1028 H   0  0  0  0  0  0  0  0  0  0  0  0
    4.4406    0.1571    2.0465 H   0  0  0  0  0  0  0  0  0  0  0  0
    5.6808    0.2816   -0.1158 H   0  0  0  0  0  0  0  0  0  0  0  0
    4.4158    0.1440   -2.2717 H   0  0  0  0  0  0  0  0  0  0  0  0
    1.9373   -0.1523   -2.2340 H   0  0  0  0  0  0  0  0  0  0  0  0
  1  2  1  0
  2  3  2  0
  2 25  1  0
  3  4  1  0
  3 22  1  0
  4  5  1  6
  4  6  1  0
  4  7  1  0
  6 26  1  0
  7  8  2  0
  7 11  1  0
  8  9  1  0
  8 14  1  0
  9 10  1  0
 10 11  2  0
 10 12  1  0
 11 27  1  0
 12 13  1  0
 12 28  1  0
 12 29  1  0
 13 30  1  0
 13 31  1  0
 13 32  1  0
 14 15  1  0
 14 18  1  0
 15 16  2  0
 15 20  1  0
 16 17  1  0
 17 18  2  0
 18 19  1  0
 19 33  1  0
 19 34  1  0
 19 35  1  0
 20 21  1  0
 20 36  1  0
 20 37  1  0
 21 38  1  0
 21 39  1  0
 22 23  2  0
 22 40  1  0
 23 24  1  0
 23 41  1  0
 24 25  2  0
 24 42  1  0
 25 43  1  0
M  END

