rmsd39.gzmat
 OpenBabel08211713403D

 43 45  0  0  1  0  0  0  0  0999 V2000
    0.0000    0.0000    0.0000 Cl  0  0  0  0  0  0  0  0  0  0  0  0
    1.7130    0.0000    0.0000 C   0  0  0  0  0  0  0  0  0  0  0  0
    2.4028    0.0000    1.2078 C   0  0  0  0  0  0  0  0  0  0  0  0
    1.7051    0.0478    2.5445 C   0  0  1  0  0  0  0  0  0  0  0  0
    2.4290   -0.0789    3.3963 H   0  0  0  0  0  0  0  0  0  0  0  0
    1.2153    1.3438    2.7931 O   0  0  0  0  0  0  0  0  0  0  0  0
    0.6096   -0.9711    2.6462 C   0  0  0  0  0  0  0  0  0  0  0  0
    0.7287   -2.3077    2.3566 C   0  0  0  0  0  0  0  0  0  0  0  0
   -0.8012   -3.1442    2.5897 S   0  0  0  0  0  0  0  0  0  0  0  0
   -1.5921   -1.6585    3.0711 C   0  0  0  0  0  0  0  0  0  0  0  0
   -0.7120   -0.6149    3.0690 C   0  0  0  0  0  0  0  0  0  0  0  0
   -3.0331   -1.5975    3.3956 C   0  0  0  0  0  0  0  0  0  0  0  0
   -3.8341   -1.1775    2.1577 C   0  0  0  0  0  0  0  0  0  0  0  0
    1.8666   -2.9938    1.9435 N   0  0  0  0  0  0  0  0  0  0  0  0
    2.1488   -3.4878    0.6566 C   0  0  0  0  0  0  0  0  0  0  0  0
    3.4181   -3.9445    0.6652 N   0  0  0  0  0  0  0  0  0  0  0  0
    3.9573   -3.7578    1.8820 N   0  0  0  0  0  0  0  0  0  0  0  0
    3.0486   -3.1804    2.6946 C   0  0  0  0  0  0  0  0  0  0  0  0
    3.2086   -2.8464    4.1174 C   0  0  0  0  0  0  0  0  0  0  0  0
    1.2126   -3.5173   -0.5073 C   0  0  0  0  0  0  0  0  0  0  0  0
    1.9018   -3.3598   -1.7980 N   0  0  0  0  0  0  0  0  0  0  0  0
    3.7981   -0.0359    1.1657 C   0  0  0  0  0  0  0  0  0  0  0  0
    4.4652   -0.0789   -0.0572 C   0  0  0  0  0  0  0  0  0  0  0  0
    3.7479   -0.0670   -1.2524 C   0  0  0  0  0  0  0  0  0  0  0  0
    2.3549   -0.0232   -1.2307 C   0  0  0  0  0  0  0  0  0  0  0  0
    0.6540    1.6665    2.0545 H   0  0  0  0  0  0  0  0  0  0  0  0
   -0.9583    0.4014    3.3517 H   0  0  0  0  0  0  0  0  0  0  0  0
   -3.2090   -0.8669    4.2180 H   0  0  0  0  0  0  0  0  0  0  0  0
   -3.4236   -2.5600    3.7885 H   0  0  0  0  0  0  0  0  0  0  0  0
   -3.4722   -0.2243    1.7522 H   0  0  0  0  0  0  0  0  0  0  0  0
   -4.8955   -1.0526    2.3968 H   0  0  0  0  0  0  0  0  0  0  0  0
   -3.7608   -1.9216    1.3555 H   0  0  0  0  0  0  0  0  0  0  0  0
    2.4623   -2.1238    4.4804 H   0  0  0  0  0  0  0  0  0  0  0  0
    4.2134   -2.4306    4.3167 H   0  0  0  0  0  0  0  0  0  0  0  0
    3.1154   -3.7519    4.7462 H   0  0  0  0  0  0  0  0  0  0  0  0
    0.4336   -2.7226   -0.4245 H   0  0  0  0  0  0  0  0  0  0  0  0
    0.6604   -4.4922   -0.5223 H   0  0  0  0  0  0  0  0  0  0  0  0
    2.3887   -2.4762   -1.8468 H   0  0  0  0  0  0  0  0  0  0  0  0
    2.5808   -4.0971   -1.9422 H   0  0  0  0  0  0  0  0  0  0  0  0
    4.3729   -0.0386    2.0933 H   0  0  0  0  0  0  0  0  0  0  0  0
    5.5547   -0.1297   -0.0763 H   0  0  0  0  0  0  0  0  0  0  0  0
    4.2755   -0.0930   -2.2060 H   0  0  0  0  0  0  0  0  0  0  0  0
    1.7863   -0.0114   -2.1623 H   0  0  0  0  0  0  0  0  0  0  0  0
  1  2  1  0  0  0  0
  2  3  2  0  0  0  0
  3  4  1  0  0  0  0
  4  7  1  0  0  0  0
  4  6  1  0  0  0  0
  4  5  1  1  0  0  0
  7 11  1  0  0  0  0
  8  9  1  0  0  0  0
  8  7  2  0  0  0  0
  9 10  1  0  0  0  0
 10 12  1  0  0  0  0
 11 10  2  0  0  0  0
 11 27  1  0  0  0  0
 12 29  1  0  0  0  0
 12 28  1  0  0  0  0
 13 31  1  0  0  0  0
 13 12  1  0  0  0  0
 14  8  1  0  0  0  0
 14 18  1  0  0  0  0
 15 16  2  0  0  0  0
 15 14  1  0  0  0  0
 16 17  1  0  0  0  0
 17 18  2  0  0  0  0
 18 19  1  0  0  0  0
 19 34  1  0  0  0  0
 19 33  1  0  0  0  0
 19 35  1  0  0  0  0
 20 36  1  0  0  0  0
 20 15  1  0  0  0  0
 21 20  1  0  0  0  0
 22  3  1  0  0  0  0
 22 40  1  0  0  0  0
 23 22  2  0  0  0  0
 24 25  2  0  0  0  0
 24 23  1  0  0  0  0
 25  2  1  0  0  0  0
 26  6  1  0  0  0  0
 30 13  1  0  0  0  0
 32 13  1  0  0  0  0
 37 20  1  0  0  0  0
 38 21  1  0  0  0  0
 39 21  1  0  0  0  0
 41 23  1  0  0  0  0
 42 24  1  0  0  0  0
 43 25  1  0  0  0  0
M  END
$$$$
