rmsd37.gzmat
 OpenBabel08211713403D

 43 45  0  0  1  0  0  0  0  0999 V2000
    0.0000    0.0000    0.0000 Cl  0  0  0  0  0  0  0  0  0  0  0  0
    1.7073    0.0000    0.0000 C   0  0  0  0  0  0  0  0  0  0  0  0
    2.3958    0.0000    1.2070 C   0  0  0  0  0  0  0  0  0  0  0  0
    1.7055    0.0187    2.5457 C   0  0  1  0  0  0  0  0  0  0  0  0
    0.6268   -0.2818    2.4976 H   0  0  0  0  0  0  0  0  0  0  0  0
    2.3433   -0.9045    3.4176 O   0  0  0  0  0  0  0  0  0  0  0  0
    1.8453    1.3599    3.1975 C   0  0  0  0  0  0  0  0  0  0  0  0
    1.4387    2.5592    2.6701 C   0  0  0  0  0  0  0  0  0  0  0  0
    1.7700    3.8835    3.7862 S   0  0  0  0  0  0  0  0  0  0  0  0
    2.4741    2.7871    4.9534 C   0  0  0  0  0  0  0  0  0  0  0  0
    2.4350    1.5012    4.4977 C   0  0  0  0  0  0  0  0  0  0  0  0
    3.0023    3.2514    6.2541 C   0  0  0  0  0  0  0  0  0  0  0  0
    1.9398    3.0904    7.3471 C   0  0  0  0  0  0  0  0  0  0  0  0
    0.8434    2.8264    1.4419 N   0  0  0  0  0  0  0  0  0  0  0  0
   -0.5264    2.7408    1.1279 C   0  0  0  0  0  0  0  0  0  0  0  0
   -0.6721    3.0989   -0.1631 N   0  0  0  0  0  0  0  0  0  0  0  0
    0.5312    3.3948   -0.6869 N   0  0  0  0  0  0  0  0  0  0  0  0
    1.4850    3.2450    0.2546 C   0  0  0  0  0  0  0  0  0  0  0  0
    2.9310    3.4621    0.1146 C   0  0  0  0  0  0  0  0  0  0  0  0
   -1.5988    2.3111    2.0750 C   0  0  0  0  0  0  0  0  0  0  0  0
   -2.7766    1.7411    1.4036 N   0  0  0  0  0  0  0  0  0  0  0  0
    3.7929   -0.0004    1.1722 C   0  0  0  0  0  0  0  0  0  0  0  0
    4.4649    0.0111   -0.0471 C   0  0  0  0  0  0  0  0  0  0  0  0
    3.7493    0.0241   -1.2450 C   0  0  0  0  0  0  0  0  0  0  0  0
    2.3565    0.0169   -1.2286 C   0  0  0  0  0  0  0  0  0  0  0  0
    2.3973   -1.7855    2.9898 H   0  0  0  0  0  0  0  0  0  0  0  0
    2.8060    0.6391    5.0422 H   0  0  0  0  0  0  0  0  0  0  0  0
    3.3499    4.3060    6.2206 H   0  0  0  0  0  0  0  0  0  0  0  0
    3.9096    2.6654    6.5278 H   0  0  0  0  0  0  0  0  0  0  0  0
    1.0601    3.7163    7.1529 H   0  0  0  0  0  0  0  0  0  0  0  0
    2.3363    3.3728    8.3284 H   0  0  0  0  0  0  0  0  0  0  0  0
    1.5932    2.0513    7.4149 H   0  0  0  0  0  0  0  0  0  0  0  0
    3.3153    4.2042    0.8335 H   0  0  0  0  0  0  0  0  0  0  0  0
    3.1762    3.8323   -0.8988 H   0  0  0  0  0  0  0  0  0  0  0  0
    3.5012    2.5272    0.2659 H   0  0  0  0  0  0  0  0  0  0  0  0
   -1.9350    3.1876    2.6868 H   0  0  0  0  0  0  0  0  0  0  0  0
   -1.2047    1.5578    2.8011 H   0  0  0  0  0  0  0  0  0  0  0  0
   -3.1910    2.4069    0.7628 H   0  0  0  0  0  0  0  0  0  0  0  0
   -2.5421    0.9122    0.8770 H   0  0  0  0  0  0  0  0  0  0  0  0
    4.3490   -0.0046    2.1131 H   0  0  0  0  0  0  0  0  0  0  0  0
    5.5539    0.0127   -0.0651 H   0  0  0  0  0  0  0  0  0  0  0  0
    4.2789    0.0411   -2.1975 H   0  0  0  0  0  0  0  0  0  0  0  0
    1.7896    0.0391   -2.1616 H   0  0  0  0  0  0  0  0  0  0  0  0
  1  2  1  0  0  0  0
  2  3  2  0  0  0  0
  3  4  1  0  0  0  0
  4  5  1  6  0  0  0
  4  7  1  0  0  0  0
  4  6  1  0  0  0  0
  7 11  1  0  0  0  0
  8  7  2  0  0  0  0
  8  9  1  0  0  0  0
  9 10  1  0  0  0  0
 10 12  1  0  0  0  0
 11 10  2  0  0  0  0
 11 27  1  0  0  0  0
 12 29  1  0  0  0  0
 12 13  1  0  0  0  0
 13 32  1  0  0  0  0
 13 31  1  0  0  0  0
 14  8  1  0  0  0  0
 15 14  1  0  0  0  0
 15 20  1  0  0  0  0
 16 15  2  0  0  0  0
 17 16  1  0  0  0  0
 17 18  2  0  0  0  0
 18 14  1  0  0  0  0
 19 18  1  0  0  0  0
 19 35  1  0  0  0  0
 19 33  1  0  0  0  0
 20 36  1  0  0  0  0
 20 37  1  0  0  0  0
 21 20  1  0  0  0  0
 22  3  1  0  0  0  0
 22 40  1  0  0  0  0
 23 22  2  0  0  0  0
 24 25  2  0  0  0  0
 24 23  1  0  0  0  0
 25  2  1  0  0  0  0
 26  6  1  0  0  0  0
 28 12  1  0  0  0  0
 30 13  1  0  0  0  0
 34 19  1  0  0  0  0
 38 21  1  0  0  0  0
 39 21  1  0  0  0  0
 41 23  1  0  0  0  0
 42 24  1  0  0  0  0
 43 25  1  0  0  0  0
M  END
$$$$
