43
rmsd39.gzmat
Cl         0.00000        0.00000        0.00000
C          1.71300        0.00000        0.00000
C          2.40280        0.00000        1.20780
C          1.70510        0.04780        2.54450
H          2.42900       -0.07890        3.39630
O          1.21530        1.34380        2.79310
C          0.60960       -0.97110        2.64620
C          0.72870       -2.30770        2.35660
S         -0.80120       -3.14420        2.58970
C         -1.59210       -1.65850        3.07110
C         -0.71200       -0.61490        3.06900
C         -3.03310       -1.59750        3.39560
C         -3.83410       -1.17750        2.15770
N          1.86660       -2.99380        1.94350
C          2.14880       -3.48780        0.65660
N          3.41810       -3.94450        0.66520
N          3.95730       -3.75780        1.88200
C          3.04860       -3.18040        2.69460
C          3.20860       -2.84640        4.11740
C          1.21260       -3.51730       -0.50730
N          1.90180       -3.35980       -1.79800
C          3.79810       -0.03590        1.16570
C          4.46520       -0.07890       -0.05720
C          3.74790       -0.06700       -1.25240
C          2.35490       -0.02320       -1.23070
H          0.65400        1.66650        2.05450
H         -0.95830        0.40140        3.35170
H         -3.20900       -0.86690        4.21800
H         -3.42360       -2.56000        3.78850
H         -3.47220       -0.22430        1.75220
H         -4.89550       -1.05260        2.39680
H         -3.76080       -1.92160        1.35550
H          2.46230       -2.12380        4.48040
H          4.21340       -2.43060        4.31670
H          3.11540       -3.75190        4.74620
H          0.43360       -2.72260       -0.42450
H          0.66040       -4.49220       -0.52230
H          2.38870       -2.47620       -1.84680
H          2.58080       -4.09710       -1.94220
H          4.37290       -0.03860        2.09330
H          5.55470       -0.12970       -0.07630
H          4.27550       -0.09300       -2.20600
H          1.78630       -0.01140       -2.16230
