rmsd68.gzmat
 OpenBabel08211713403D

 43 45  0  0  1  0  0  0  0  0999 V2000
    0.0000    0.0000    0.0000 Cl  0  0  0  0  0  0  0  0  0  0  0  0
    1.7074    0.0000    0.0000 C   0  0  0  0  0  0  0  0  0  0  0  0
    2.3964    0.0000    1.2069 C   0  0  0  0  0  0  0  0  0  0  0  0
    1.7080    0.0203    2.5471 C   0  0  1  0  0  0  0  0  0  0  0  0
    0.6293   -0.2803    2.5016 H   0  0  0  0  0  0  0  0  0  0  0  0
    2.3481   -0.9012    3.4186 O   0  0  0  0  0  0  0  0  0  0  0  0
    1.8470    1.3636    3.1948 C   0  0  0  0  0  0  0  0  0  0  0  0
    1.4043    2.5543    2.6776 C   0  0  0  0  0  0  0  0  0  0  0  0
    1.7465    3.8883    3.7774 S   0  0  0  0  0  0  0  0  0  0  0  0
    2.5106    2.8078    4.9236 C   0  0  0  0  0  0  0  0  0  0  0  0
    2.4754    1.5196    4.4752 C   0  0  0  0  0  0  0  0  0  0  0  0
    3.1094    3.3018    6.1818 C   0  0  0  0  0  0  0  0  0  0  0  0
    4.4555    3.9838    5.9143 C   0  0  0  0  0  0  0  0  0  0  0  0
    0.7773    2.8093    1.4629 N   0  0  0  0  0  0  0  0  0  0  0  0
   -0.5966    2.7094    1.1759 C   0  0  0  0  0  0  0  0  0  0  0  0
   -0.7707    3.0663   -0.1123 N   0  0  0  0  0  0  0  0  0  0  0  0
    0.4195    3.3743   -0.6594 N   0  0  0  0  0  0  0  0  0  0  0  0
    1.3922    3.2346    0.2639 C   0  0  0  0  0  0  0  0  0  0  0  0
    2.8343    3.4661    0.1076 C   0  0  0  0  0  0  0  0  0  0  0  0
   -1.6445    2.2670    2.1439 C   0  0  0  0  0  0  0  0  0  0  0  0
   -2.8271    1.6823    1.4940 N   0  0  0  0  0  0  0  0  0  0  0  0
    3.7934   -0.0037    1.1706 C   0  0  0  0  0  0  0  0  0  0  0  0
    4.4647    0.0067   -0.0489 C   0  0  0  0  0  0  0  0  0  0  0  0
    3.7488    0.0226   -1.2466 C   0  0  0  0  0  0  0  0  0  0  0  0
    2.3558    0.0167   -1.2292 C   0  0  0  0  0  0  0  0  0  0  0  0
    2.3979   -1.7837    2.9927 H   0  0  0  0  0  0  0  0  0  0  0  0
    2.8782    0.6640    5.0069 H   0  0  0  0  0  0  0  0  0  0  0  0
    3.2580    2.4577    6.8937 H   0  0  0  0  0  0  0  0  0  0  0  0
    2.4296    4.0022    6.7150 H   0  0  0  0  0  0  0  0  0  0  0  0
    5.1261    3.3327    5.3401 H   0  0  0  0  0  0  0  0  0  0  0  0
    4.9637    4.2333    6.8523 H   0  0  0  0  0  0  0  0  0  0  0  0
    4.3386    4.9153    5.3483 H   0  0  0  0  0  0  0  0  0  0  0  0
    3.1766    4.3452    0.6787 H   0  0  0  0  0  0  0  0  0  0  0  0
    3.0912    3.6489   -0.9522 H   0  0  0  0  0  0  0  0  0  0  0  0
    3.4295    2.5986    0.4435 H   0  0  0  0  0  0  0  0  0  0  0  0
   -1.9794    3.1389    2.7622 H   0  0  0  0  0  0  0  0  0  0  0  0
   -1.2272    1.5184    2.8619 H   0  0  0  0  0  0  0  0  0  0  0  0
   -3.2581    2.3407    0.8570 H   0  0  0  0  0  0  0  0  0  0  0  0
   -2.5912    0.8539    0.9677 H   0  0  0  0  0  0  0  0  0  0  0  0
    4.3510   -0.0109    2.1104 H   0  0  0  0  0  0  0  0  0  0  0  0
    5.5536    0.0045   -0.0672 H   0  0  0  0  0  0  0  0  0  0  0  0
    4.2789    0.0412   -2.1984 H   0  0  0  0  0  0  0  0  0  0  0  0
    1.7888    0.0368   -2.1627 H   0  0  0  0  0  0  0  0  0  0  0  0
  1  2  1  0  0  0  0
  2  3  2  0  0  0  0
  3  4  1  0  0  0  0
  4  5  1  6  0  0  0
  4  7  1  0  0  0  0
  4  6  1  0  0  0  0
  7 11  1  0  0  0  0
  8  7  2  0  0  0  0
  8  9  1  0  0  0  0
  9 10  1  0  0  0  0
 10 12  1  0  0  0  0
 11 10  2  0  0  0  0
 11 27  1  0  0  0  0
 12 29  1  0  0  0  0
 12 28  1  0  0  0  0
 13 12  1  0  0  0  0
 13 31  1  0  0  0  0
 14  8  1  0  0  0  0
 15 14  1  0  0  0  0
 15 20  1  0  0  0  0
 16 15  2  0  0  0  0
 17 16  1  0  0  0  0
 17 18  2  0  0  0  0
 18 14  1  0  0  0  0
 19 18  1  0  0  0  0
 19 35  1  0  0  0  0
 19 33  1  0  0  0  0
 20 36  1  0  0  0  0
 20 37  1  0  0  0  0
 21 20  1  0  0  0  0
 22  3  1  0  0  0  0
 22 40  1  0  0  0  0
 23 22  2  0  0  0  0
 24 25  2  0  0  0  0
 24 23  1  0  0  0  0
 25  2  1  0  0  0  0
 26  6  1  0  0  0  0
 30 13  1  0  0  0  0
 32 13  1  0  0  0  0
 34 19  1  0  0  0  0
 38 21  1  0  0  0  0
 39 21  1  0  0  0  0
 41 23  1  0  0  0  0
 42 24  1  0  0  0  0
 43 25  1  0  0  0  0
M  END
$$$$
