43

Cl         0.07990       -0.33510       -0.18660
C          1.82110       -0.16630       -0.07930
C          2.46160       -0.06190        1.16270
C          1.72330       -0.04410        2.49420
H          0.65360       -0.22930        2.29920
O          2.24460       -1.02460        3.37610
C          1.86310        1.29740        3.18350
C          1.42740        2.49500        2.66320
S          1.76760        3.83300        3.73860
C          2.51350        2.76910        4.90090
C          2.48140        1.46750        4.46200
C          3.11660        3.30700        6.16560
C          4.36170        4.17410        5.93640
N          0.76270        2.72420        1.44800
C         -0.59910        2.63420        1.20670
N         -0.85110        2.99540       -0.02140
N          0.34230        3.33900       -0.62350
C          1.30110        3.18300        0.25040
C          2.74900        3.44630        0.04510
C         -1.60780        2.16510        2.21680
N         -2.96790        2.10460        1.71710
C          3.86260        0.02770        1.17360
C          4.60000        0.02900       -0.00800
C          3.93620       -0.04890       -1.23790
C          2.54670       -0.14730       -1.27610
H          2.19170       -1.87940        2.92950
H          2.88320        0.63070        5.03110
H          3.37130        2.44440        6.80200
H          2.36110        3.88870        6.72180
H          5.14630        3.60360        5.41540
H          4.77230        4.53210        6.89340
H          4.12430        5.05490        5.31910
H          3.12930        4.17840        0.77510
H          2.88880        3.84150       -0.96870
H          3.34190        2.52680        0.15710
H         -1.56340        2.82330        3.10290
H         -1.30530        1.16830        2.58410
H         -3.22720        3.02870        1.36800
H         -2.97780        1.51680        0.88170
H          4.36380        0.09670        2.14150
H          5.68910        0.10130        0.02620
H          4.50060       -0.03420       -2.17280
H          2.01080       -0.20920       -2.22370
