43
rmsd186.gzmat
Cl         0.00000        0.00000        0.00000
C          1.70760        0.00000        0.00000
C          2.39520        0.00000        1.20740
C          1.70270        0.01810        2.54470
H          0.62880       -0.30050        2.49700
O          2.35220       -0.89120        3.42320
C          1.81550        1.36410        3.19190
C          1.42200        2.56020        2.64850
S          1.70750        3.88970        3.77170
C          2.38010        2.79900        4.96410
C          2.35910        1.51200        4.51160
C          2.89770        3.27650        6.26420
C          4.24440        3.98780        6.09280
N          0.87670        2.82910        1.39770
C         -0.47940        2.75830        1.02700
N         -0.56820        3.12400       -0.26730
N          0.65830        3.41230       -0.73880
C          1.57060        3.24930        0.24050
C          3.02260        3.45870        0.16390
C         -1.59530        2.33380        1.92500
N         -2.80020        1.90810        1.19710
C          3.79240       -0.00320        1.17400
C          4.46540        0.00140       -0.04470
C          3.75090        0.01480       -1.24330
C          2.35780        0.01540       -1.22790
H          2.44890       -1.76510        2.98790
H          2.71630        0.65170        5.06820
H          3.02220        2.41810        6.96380
H          2.17360        3.95060        6.77210
H          4.95080        3.37460        5.51890
H          4.70610        4.19710        7.06450
H          4.13920        4.94440        5.56800
H          3.35350        4.30060        0.79420
H          3.33180        3.68870       -0.87300
H          3.58590        2.56290        0.48020
H         -1.87580        3.17840        2.60500
H         -1.26790        1.49540        2.58840
H         -3.15880        2.65460        0.61460
H         -2.61310        1.11600        0.59850
H          4.34790       -0.00510        2.11520
H          5.55440       -0.00260       -0.06160
H          4.28140        0.02720       -2.19530
H          1.79150        0.04160       -2.16130
