43
rmsd170.gzmat
Cl         0.00000        0.00000        0.00000
C          1.70710        0.00000        0.00000
C          2.39840        0.00000        1.20510
C          1.71220        0.01410        2.54670
H          0.63100       -0.27520        2.50030
O          2.34590       -0.91740        3.41190
C          1.87140        1.35300        3.19820
C          1.41020        2.54440        2.69860
S          1.80710        3.87770        3.78020
C          2.59720        2.79290        4.90340
C          2.54520        1.50500        4.45480
C          3.19590        3.27050        6.16820
C          2.16650        3.20220        7.30210
N          0.71290        2.78980        1.52050
C         -0.67640        2.67250        1.32240
N         -0.93590        3.01960        0.04620
N          0.21330        3.33340       -0.57820
C          1.24530        3.20880        0.28180
C          2.67110        3.45080        0.02410
C         -1.65790        2.22320        2.35480
N         -2.70030        1.33430        1.82080
C          3.79550        0.00750        1.16630
C          4.46430        0.02550       -0.05430
C          3.74580        0.03740       -1.25050
C          2.35290        0.02150       -1.23050
H          2.38070       -1.79980        2.98480
H          2.95930        0.64860        4.97630
H          3.59520        4.30380        6.08390
H          4.08180        2.64820        6.43140
H          1.29400        3.83420        7.09700
H          2.59950        3.53680        8.25090
H          1.80060        2.17790        7.44690
H          3.02480        4.37780        0.50600
H          2.86220        3.55770       -1.06030
H          3.30430        2.62230        0.38730
H         -2.16060        3.11770        2.80510
H         -1.14190        1.70090        3.19680
H         -3.21080        1.77790        1.06780
H         -2.31550        0.47030        1.47290
H          4.35410        0.00300        2.10560
H          5.55310        0.03110       -0.07600
H          4.27410        0.05950       -2.20320
H          1.78260        0.03870       -2.16140
