33
rmsd7.gzmat
S          0.00000        0.00000        0.00000
N          1.77700        0.00000        0.00000
C          2.31370        0.00000        1.30990
O          3.50260       -0.00270        1.50440
C          1.21280        0.00950        2.29320
C         -0.02690        0.01780        1.77100
C         -1.29820        0.02760        2.47050
C         -1.68550       -1.09090        3.21590
C         -2.90650       -1.08750        3.88510
C         -3.73910        0.02900        3.81630
C         -3.34890        1.14640        3.07970
C         -2.12900        1.15010        2.40780
C          2.56210        0.00160       -1.15130
C          2.08350        0.02480       -2.40950
C          2.96700        0.02620       -3.57020
C          2.58100       -0.67350       -4.72100
C          3.40310       -0.68260       -5.84370
C          4.61280        0.01130       -5.83280
C          5.00000        0.71000       -4.69100
C          4.18210        0.71980       -3.56350
H          1.46910        0.01820        3.34510
H         -1.03330       -1.96250        3.27040
H         -3.21240       -1.95830        4.46290
H         -4.69430        0.02800        4.33900
H         -3.99950        2.01850        3.02790
H         -1.82210        2.03090        1.84430
H          3.64610       -0.02560       -0.92970
H          1.02140        0.03310       -2.64490
H          1.63890       -1.21700       -4.73290
H          3.10160       -1.23360       -6.73210
H          5.24970        0.00700       -6.71380
H          5.94440        1.25110       -4.67910
H          4.48640        1.27710       -2.67940
