rmsd25.gzmat
 OpenBabel08211713393D

 33 35  0  0  0  0  0  0  0  0999 V2000
    0.0000    0.0000    0.0000 S   0  0  0  0  0  0  0  0  0  0  0  0
    1.7769    0.0000    0.0000 N   0  0  0  0  0  0  0  0  0  0  0  0
    2.3139    0.0000    1.3100 C   0  0  0  0  0  0  0  0  0  0  0  0
    3.5028   -0.0002    1.5049 O   0  0  0  0  0  0  0  0  0  0  0  0
    1.2135   -0.0032    2.2932 C   0  0  0  0  0  0  0  0  0  0  0  0
   -0.0264   -0.0100    1.7715 C   0  0  0  0  0  0  0  0  0  0  0  0
   -1.2965   -0.0123    2.4732 C   0  0  0  0  0  0  0  0  0  0  0  0
   -2.1369   -1.1277    2.4099 C   0  0  0  0  0  0  0  0  0  0  0  0
   -3.3498   -1.1187    3.0941 C   0  0  0  0  0  0  0  0  0  0  0  0
   -3.7267   -0.0013    3.8370 C   0  0  0  0  0  0  0  0  0  0  0  0
   -2.8870    1.1096    3.9027 C   0  0  0  0  0  0  0  0  0  0  0  0
   -1.6702    1.1059    3.2258 C   0  0  0  0  0  0  0  0  0  0  0  0
    2.5621   -0.0484   -1.1501 C   0  0  0  0  0  0  0  0  0  0  0  0
    2.0838   -0.0888   -2.4081 C   0  0  0  0  0  0  0  0  0  0  0  0
    2.9683   -0.1581   -3.5657 C   0  0  0  0  0  0  0  0  0  0  0  0
    4.1542   -0.8994   -3.5317 C   0  0  0  0  0  0  0  0  0  0  0  0
    4.9716   -0.9648   -4.6575 C   0  0  0  0  0  0  0  0  0  0  0  0
    4.6133   -0.2932   -5.8244 C   0  0  0  0  0  0  0  0  0  0  0  0
    3.4329    0.4483   -5.8629 C   0  0  0  0  0  0  0  0  0  0  0  0
    2.6116    0.5150   -4.7418 C   0  0  0  0  0  0  0  0  0  0  0  0
    1.4702   -0.0095    3.3448 H   0  0  0  0  0  0  0  0  0  0  0  0
   -1.8432   -2.0079    1.8385 H   0  0  0  0  0  0  0  0  0  0  0  0
   -4.0043   -1.9877    3.0521 H   0  0  0  0  0  0  0  0  0  0  0  0
   -4.6770    0.0028    4.3686 H   0  0  0  0  0  0  0  0  0  0  0  0
   -3.1828    1.9801    4.4860 H   0  0  0  0  0  0  0  0  0  0  0  0
   -1.0098    1.9713    3.2807 H   0  0  0  0  0  0  0  0  0  0  0  0
    3.6465   -0.0437   -0.9281 H   0  0  0  0  0  0  0  0  0  0  0  0
    1.0226   -0.0670   -2.6455 H   0  0  0  0  0  0  0  0  0  0  0  0
    4.4354   -1.4354   -2.6274 H   0  0  0  0  0  0  0  0  0  0  0  0
    5.8914   -1.5454   -4.6240 H   0  0  0  0  0  0  0  0  0  0  0  0
    5.2501   -0.3481   -6.7038 H   0  0  0  0  0  0  0  0  0  0  0  0
    3.1528    0.9753   -6.7725 H   0  0  0  0  0  0  0  0  0  0  0  0
    1.6930    1.0962   -4.7735 H   0  0  0  0  0  0  0  0  0  0  0  0
  1  6  1  0  0  0  0
  2  1  1  0  0  0  0
  2  3  1  0  0  0  0
  3  4  2  0  0  0  0
  3  5  1  0  0  0  0
  5 21  1  0  0  0  0
  6  5  2  0  0  0  0
  6  7  1  0  0  0  0
  7 12  1  0  0  0  0
  8  7  2  0  0  0  0
  8  9  1  0  0  0  0
  9 10  2  0  0  0  0
 10 11  1  0  0  0  0
 10 24  1  0  0  0  0
 11 25  1  0  0  0  0
 12 26  1  0  0  0  0
 12 11  2  0  0  0  0
 13 27  1  0  0  0  0
 13  2  1  0  0  0  0
 14 13  2  0  0  0  0
 15 16  1  0  0  0  0
 15 14  1  0  0  0  0
 16 29  1  0  0  0  0
 17 30  1  0  0  0  0
 17 16  2  0  0  0  0
 18 17  1  0  0  0  0
 19 18  2  0  0  0  0
 19 20  1  0  0  0  0
 20 15  2  0  0  0  0
 22  8  1  0  0  0  0
 23  9  1  0  0  0  0
 28 14  1  0  0  0  0
 31 18  1  0  0  0  0
 32 19  1  0  0  0  0
 33 20  1  0  0  0  0
M  END
$$$$
