33
rmsd20.gzmat
S          0.00000        0.00000        0.00000
N          1.77690        0.00000        0.00000
C          2.31470        0.00000        1.30950
O          3.50370       -0.00250        1.50330
C          1.21420       -0.00290        2.29340
C         -0.02500       -0.01250        1.77050
C         -1.29800       -0.02020        2.46600
C         -2.11560       -1.15380        2.42750
C         -3.33600       -1.14740        3.09820
C         -3.74110       -0.01670        3.80580
C         -2.92050        1.10960        3.85180
C         -1.69840        1.11090        3.18440
C          2.55660       -0.00930       -1.15500
C          2.06680       -0.01490       -2.40940
C          2.94200       -0.02670       -3.57630
C          4.11290       -0.79210       -3.59890
C          4.93020       -0.78680       -4.72680
C          4.58650       -0.02020       -5.83840
C          3.41740        0.74020       -5.82210
C          2.59440        0.73430       -4.70010
H          1.46960       -0.00490        3.34580
H         -1.79790       -2.04420        1.88500
H         -3.97350       -2.02990        3.07220
H         -4.69830       -0.01360        4.32520
H         -3.23420        1.98850        4.41300
H         -1.05510        1.99010        3.21990
H          3.64220       -0.00360       -0.94130
H          1.00340        0.00190       -2.63740
H          4.38210       -1.40050       -2.73780
H          5.83970       -1.38480       -4.73840
H          5.22600       -0.01510       -6.71750
H          3.14910        1.34080       -6.68850
H          1.68260        1.32730       -4.69140
