rmsd27.gzmat
 OpenBabel08211713393D

 33 35  0  0  0  0  0  0  0  0999 V2000
    0.0000    0.0000    0.0000 S   0  0  0  0  0  0  0  0  0  0  0  0
    1.7772    0.0000    0.0000 N   0  0  0  0  0  0  0  0  0  0  0  0
    2.3135    0.0000    1.3103 C   0  0  0  0  0  0  0  0  0  0  0  0
    3.5024    0.0056    1.5056 O   0  0  0  0  0  0  0  0  0  0  0  0
    1.2126   -0.0109    2.2922 C   0  0  0  0  0  0  0  0  0  0  0  0
   -0.0280   -0.0218    1.7704 C   0  0  0  0  0  0  0  0  0  0  0  0
   -1.2912   -0.0353    2.4837 C   0  0  0  0  0  0  0  0  0  0  0  0
   -2.1767   -1.1081    2.3430 C   0  0  0  0  0  0  0  0  0  0  0  0
   -3.3750   -1.1142    3.0530 C   0  0  0  0  0  0  0  0  0  0  0  0
   -3.6926   -0.0548    3.9012 C   0  0  0  0  0  0  0  0  0  0  0  0
   -2.8093    1.0144    4.0426 C   0  0  0  0  0  0  0  0  0  0  0  0
   -1.6080    1.0258    3.3391 C   0  0  0  0  0  0  0  0  0  0  0  0
    2.5621   -0.0693   -1.1494 C   0  0  0  0  0  0  0  0  0  0  0  0
    2.0803   -0.1191   -2.4058 C   0  0  0  0  0  0  0  0  0  0  0  0
    2.9515   -0.2134   -3.5709 C   0  0  0  0  0  0  0  0  0  0  0  0
    4.1632   -0.9115   -3.5274 C   0  0  0  0  0  0  0  0  0  0  0  0
    4.9592   -1.0043   -4.6669 C   0  0  0  0  0  0  0  0  0  0  0  0
    4.5547   -0.4030   -5.8567 C   0  0  0  0  0  0  0  0  0  0  0  0
    3.3482    0.2948   -5.9055 C   0  0  0  0  0  0  0  0  0  0  0  0
    2.5489    0.3884   -4.7708 C   0  0  0  0  0  0  0  0  0  0  0  0
    1.4682   -0.0222    3.3441 H   0  0  0  0  0  0  0  0  0  0  0  0
   -1.9286   -1.9473    1.6936 H   0  0  0  0  0  0  0  0  0  0  0  0
   -4.0630   -1.9518    2.9482 H   0  0  0  0  0  0  0  0  0  0  0  0
   -4.6289   -0.0639    4.4573 H   0  0  0  0  0  0  0  0  0  0  0  0
   -3.0564    1.8400    4.7080 H   0  0  0  0  0  0  0  0  0  0  0  0
   -0.9135    1.8578    3.4564 H   0  0  0  0  0  0  0  0  0  0  0  0
    3.6462   -0.0727   -0.9279 H   0  0  0  0  0  0  0  0  0  0  0  0
    1.0170   -0.0869   -2.6357 H   0  0  0  0  0  0  0  0  0  0  0  0
    4.4820   -1.3947   -2.6060 H   0  0  0  0  0  0  0  0  0  0  0  0
    5.8989   -1.5521   -4.6275 H   0  0  0  0  0  0  0  0  0  0  0  0
    5.1765   -0.4778   -6.7452 H   0  0  0  0  0  0  0  0  0  0  0  0
    3.0304    0.7661   -6.8331 H   0  0  0  0  0  0  0  0  0  0  0  0
    1.6091    0.9342   -4.8120 H   0  0  0  0  0  0  0  0  0  0  0  0
  1  6  1  0  0  0  0
  2  1  1  0  0  0  0
  2  3  1  0  0  0  0
  3  4  2  0  0  0  0
  3  5  1  0  0  0  0
  5 21  1  0  0  0  0
  6  5  2  0  0  0  0
  6  7  1  0  0  0  0
  7 12  1  0  0  0  0
  8  7  2  0  0  0  0
  8  9  1  0  0  0  0
  9 10  2  0  0  0  0
 10 11  1  0  0  0  0
 10 24  1  0  0  0  0
 11 25  1  0  0  0  0
 12 26  1  0  0  0  0
 12 11  2  0  0  0  0
 13 27  1  0  0  0  0
 13  2  1  0  0  0  0
 14 13  2  0  0  0  0
 15 16  1  0  0  0  0
 15 14  1  0  0  0  0
 16 29  1  0  0  0  0
 17 30  1  0  0  0  0
 17 16  2  0  0  0  0
 18 17  1  0  0  0  0
 19 18  2  0  0  0  0
 19 20  1  0  0  0  0
 20 15  2  0  0  0  0
 22  8  1  0  0  0  0
 23  9  1  0  0  0  0
 28 14  1  0  0  0  0
 31 18  1  0  0  0  0
 32 19  1  0  0  0  0
 33 20  1  0  0  0  0
M  END
$$$$
