rmsd70.gzmat
 OpenBabel08211713393D

 33 35  0  0  0  0  0  0  0  0999 V2000
    0.0000    0.0000    0.0000 S   0  0  0  0  0  0  0  0  0  0  0  0
    1.7766    0.0000    0.0000 N   0  0  0  0  0  0  0  0  0  0  0  0
    2.3142    0.0000    1.3096 C   0  0  0  0  0  0  0  0  0  0  0  0
    3.5034   -0.0005    1.5027 O   0  0  0  0  0  0  0  0  0  0  0  0
    1.2138   -0.0027    2.2942 C   0  0  0  0  0  0  0  0  0  0  0  0
   -0.0248   -0.0039    1.7710 C   0  0  0  0  0  0  0  0  0  0  0  0
   -1.3024    0.0046    2.4589 C   0  0  0  0  0  0  0  0  0  0  0  0
   -2.0726   -1.1597    2.5260 C   0  0  0  0  0  0  0  0  0  0  0  0
   -3.3029   -1.1366    3.1783 C   0  0  0  0  0  0  0  0  0  0  0  0
   -3.7632    0.0418    3.7636 C   0  0  0  0  0  0  0  0  0  0  0  0
   -2.9905    1.2006    3.7017 C   0  0  0  0  0  0  0  0  0  0  0  0
   -1.7586    1.1846    3.0529 C   0  0  0  0  0  0  0  0  0  0  0  0
    2.5585    0.0131   -1.1530 C   0  0  0  0  0  0  0  0  0  0  0  0
    2.0752   -0.0157   -2.4098 C   0  0  0  0  0  0  0  0  0  0  0  0
    2.9538   -0.0007   -3.5735 C   0  0  0  0  0  0  0  0  0  0  0  0
    4.2033   -0.6302   -3.5555 C   0  0  0  0  0  0  0  0  0  0  0  0
    5.0190   -0.6005   -4.6841 C   0  0  0  0  0  0  0  0  0  0  0  0
    4.5943    0.0516   -5.8397 C   0  0  0  0  0  0  0  0  0  0  0  0
    3.3475    0.6763   -5.8647 C   0  0  0  0  0  0  0  0  0  0  0  0
    2.5292    0.6498   -4.7398 C   0  0  0  0  0  0  0  0  0  0  0  0
    1.4697   -0.0076    3.3463 H   0  0  0  0  0  0  0  0  0  0  0  0
   -1.7113   -2.0845    2.0772 H   0  0  0  0  0  0  0  0  0  0  0  0
   -3.9068   -2.0416    3.2293 H   0  0  0  0  0  0  0  0  0  0  0  0
   -4.7275    0.0575    4.2693 H   0  0  0  0  0  0  0  0  0  0  0  0
   -3.3510    2.1195    4.1614 H   0  0  0  0  0  0  0  0  0  0  0  0
   -1.1514    2.0888    3.0079 H   0  0  0  0  0  0  0  0  0  0  0  0
    3.6428    0.0562   -0.9357 H   0  0  0  0  0  0  0  0  0  0  0  0
    1.0121   -0.0403   -2.6403 H   0  0  0  0  0  0  0  0  0  0  0  0
    4.5385   -1.1534   -2.6618 H   0  0  0  0  0  0  0  0  0  0  0  0
    5.9910   -1.0899   -4.6607 H   0  0  0  0  0  0  0  0  0  0  0  0
    5.2322    0.0741   -6.7197 H   0  0  0  0  0  0  0  0  0  0  0  0
    3.0140    1.1859   -6.7662 H   0  0  0  0  0  0  0  0  0  0  0  0
    1.5591    1.1412   -4.7622 H   0  0  0  0  0  0  0  0  0  0  0  0
  1  2  1  0  0  0  0
  1  6  1  0  0  0  0
  2  3  1  0  0  0  0
  3  4  2  0  0  0  0
  3  5  1  0  0  0  0
  5 21  1  0  0  0  0
  6  5  2  0  0  0  0
  6  7  1  0  0  0  0
  7  8  2  0  0  0  0
  7 12  1  0  0  0  0
  8  9  1  0  0  0  0
  9 23  1  0  0  0  0
  9 10  2  0  0  0  0
 10 24  1  0  0  0  0
 11 10  1  0  0  0  0
 11 25  1  0  0  0  0
 12 11  2  0  0  0  0
 13 27  1  0  0  0  0
 13  2  1  0  0  0  0
 14 13  2  0  0  0  0
 15 16  1  0  0  0  0
 15 14  1  0  0  0  0
 16 29  1  0  0  0  0
 17 30  1  0  0  0  0
 17 16  2  0  0  0  0
 18 17  1  0  0  0  0
 19 18  2  0  0  0  0
 19 20  1  0  0  0  0
 20 15  2  0  0  0  0
 22  8  1  0  0  0  0
 26 12  1  0  0  0  0
 28 14  1  0  0  0  0
 31 18  1  0  0  0  0
 32 19  1  0  0  0  0
 33 20  1  0  0  0  0
M  END
$$$$
