33

S          0.07570        0.01690        0.03020
N          1.79730        0.03050        0.06970
C          2.36250       -0.02940        1.37320
O          3.56260       -0.03470        1.56540
C          1.26530       -0.06700        2.33670
C          0.02250       -0.03830        1.78820
C         -1.28410       -0.06500        2.45650
C         -1.41310       -0.63810        3.73530
C         -2.64930       -0.66060        4.37840
C         -3.77850       -0.11880        3.75550
C         -3.66300        0.44860        2.48360
C         -2.42620        0.47750        1.83960
C          2.58430        0.08480       -1.07220
C          2.13290        0.15130       -2.34020
C          2.96540        0.20560       -3.54400
C          2.33920        0.27960       -4.80360
C          3.08510        0.33420       -5.98170
C          4.48060        0.31630       -5.93040
C          5.11950        0.24270       -4.68670
C          4.37560        0.18790       -3.51090
H          1.47150       -0.08260        3.40510
H         -0.54100       -1.08520        4.21550
H         -2.73460       -1.11240        5.36930
H         -4.74690       -0.14070        4.26040
H         -4.53880        0.87830        1.99250
H         -2.33970        0.94870        0.85720
H          3.64370        0.06660       -0.80770
H          1.05240        0.16880       -2.51800
H          1.24700        0.29420       -4.85300
H          2.57230        0.39110       -6.94500
H          5.06830        0.35880       -6.85030
H          6.21100        0.22760       -4.63390
H          4.89810        0.13020       -2.55400
