33
rmsd26.gzmat
S          0.00000        0.00000        0.00000
N          1.77700        0.00000        0.00000
C          2.31440        0.00000        1.30960
O          3.50330       -0.00380        1.50390
C          1.21400       -0.00190        2.29380
C         -0.02490       -0.00540        1.77100
C         -1.29740       -0.03500        2.46810
C         -1.74070       -1.23440        3.03460
C         -2.96170       -1.27380        3.70220
C         -3.73570       -0.11910        3.81320
C         -3.28790        1.07800        3.25610
C         -2.07080        1.12350        2.58010
C          2.56210       -0.01150       -1.15130
C          2.08470        0.00990       -2.40990
C          2.97760       -0.00010       -3.56420
C          4.11920       -0.80830       -3.59160
C          4.95740       -0.79650       -4.70400
C          4.66330        0.01920       -5.79490
C          3.52290        0.82170       -5.77410
C          2.67920        0.80990       -4.66750
H          1.46990        0.00000        3.34600
H         -1.13070       -2.13420        2.95470
H         -3.31020       -2.20770        4.14080
H         -4.68870       -0.15180        4.33910
H         -3.88850        1.98110        3.35340
H         -1.72160        2.06200        2.15030
H          3.64690       -0.03030       -0.93090
H          1.02510        0.05010       -2.65100
H          4.34850       -1.45490       -2.74690
H          5.84420       -1.42720       -4.72060
H          5.32040        0.02970       -6.66090
H          3.29280        1.46030       -6.62430
H          1.79010        1.43610       -4.65470
