
     RDKit          3D

 33 35  0  0  0  0  0  0  0  0999 V2000
    0.0958   -0.0380    0.0406 S   0  0  0  0  0  0  0  0  0  0  0  0
    1.8171   -0.0622    0.0893 N   0  0  0  0  0  0  0  0  0  0  0  0
    2.3756   -0.0120    1.3960 C   0  0  0  0  0  0  0  0  0  0  0  0
    3.5747   -0.0149    1.5947 O   0  0  0  0  0  0  0  0  0  0  0  0
    1.2735    0.0276    2.3538 C   0  0  0  0  0  0  0  0  0  0  0  0
    0.0335    0.0092    1.7985 C   0  0  0  0  0  0  0  0  0  0  0  0
   -1.2765    0.0405    2.4600 C   0  0  0  0  0  0  0  0  0  0  0  0
   -2.4186   -0.4920    1.8344 C   0  0  0  0  0  0  0  0  0  0  0  0
   -3.6585   -0.4588    2.4719 C   0  0  0  0  0  0  0  0  0  0  0  0
   -3.7775    0.1031    3.7459 C   0  0  0  0  0  0  0  0  0  0  0  0
   -2.6483    0.6350    4.3775 C   0  0  0  0  0  0  0  0  0  0  0  0
   -1.4089    0.6081    3.7409 C   0  0  0  0  0  0  0  0  0  0  0  0
    2.6099   -0.1159   -1.0486 C   0  0  0  0  0  0  0  0  0  0  0  0
    2.1649   -0.1734   -2.3194 C   0  0  0  0  0  0  0  0  0  0  0  0
    3.0034   -0.2270   -3.5189 C   0  0  0  0  0  0  0  0  0  0  0  0
    4.4135   -0.2183   -3.4783 C   0  0  0  0  0  0  0  0  0  0  0  0
    5.1634   -0.2720   -4.6504 C   0  0  0  0  0  0  0  0  0  0  0  0
    4.5307   -0.3354   -5.8978 C   0  0  0  0  0  0  0  0  0  0  0  0
    3.1353   -0.3444   -5.9566 C   0  0  0  0  0  0  0  0  0  0  0  0
    2.3835   -0.2908   -4.7822 C   0  0  0  0  0  0  0  0  0  0  0  0
    1.4740    0.0368    3.4234 H   0  0  0  0  0  0  0  0  0  0  0  0
   -2.3296   -0.9589    0.8501 H   0  0  0  0  0  0  0  0  0  0  0  0
   -4.5343   -0.8807    1.9740 H   0  0  0  0  0  0  0  0  0  0  0  0
   -4.7484    0.1284    4.2458 H   0  0  0  0  0  0  0  0  0  0  0  0
   -2.7362    1.0824    5.3701 H   0  0  0  0  0  0  0  0  0  0  0  0
   -0.5367    1.0476    4.2280 H   0  0  0  0  0  0  0  0  0  0  0  0
    3.6679   -0.1054   -0.7784 H   0  0  0  0  0  0  0  0  0  0  0  0
    1.0852   -0.1833   -2.5030 H   0  0  0  0  0  0  0  0  0  0  0  0
    4.9312   -0.1686   -2.5183 H   0  0  0  0  0  0  0  0  0  0  0  0
    6.2546   -0.2641   -4.5917 H   0  0  0  0  0  0  0  0  0  0  0  0
    5.1230   -0.3771   -6.8148 H   0  0  0  0  0  0  0  0  0  0  0  0
    2.6274   -0.3933   -6.9229 H   0  0  0  0  0  0  0  0  0  0  0  0
    1.2915   -0.2983   -4.8375 H   0  0  0  0  0  0  0  0  0  0  0  0
  1  2  1  0
  1  6  1  0
  2  3  1  0
  2 13  1  0
  3  4  2  0
  3  5  1  0
  5  6  2  0
  5 21  1  0
  6  7  1  0
  7  8  2  0
  7 12  1  0
  8  9  1  0
  8 22  1  0
  9 10  2  0
  9 23  1  0
 10 11  1  0
 10 24  1  0
 11 12  2  0
 11 25  1  0
 12 26  1  0
 13 14  2  0
 13 27  1  0
 14 15  1  0
 14 28  1  0
 15 16  2  0
 15 20  1  0
 16 17  1  0
 16 29  1  0
 17 18  2  0
 17 30  1  0
 18 19  1  0
 18 31  1  0
 19 20  2  0
 19 32  1  0
 20 33  1  0
M  END

