rmsd21.gzmat
 OpenBabel08211713393D

 33 35  0  0  0  0  0  0  0  0999 V2000
    0.0000    0.0000    0.0000 S   0  0  0  0  0  0  0  0  0  0  0  0
    1.7765    0.0000    0.0000 N   0  0  0  0  0  0  0  0  0  0  0  0
    2.3150    0.0000    1.3092 C   0  0  0  0  0  0  0  0  0  0  0  0
    3.5042   -0.0020    1.5015 O   0  0  0  0  0  0  0  0  0  0  0  0
    1.2143    0.0068    2.2930 C   0  0  0  0  0  0  0  0  0  0  0  0
   -0.0251    0.0123    1.7700 C   0  0  0  0  0  0  0  0  0  0  0  0
   -1.3002    0.0123    2.4614 C   0  0  0  0  0  0  0  0  0  0  0  0
   -2.1443    1.1244    2.3865 C   0  0  0  0  0  0  0  0  0  0  0  0
   -3.3657    1.1111    3.0550 C   0  0  0  0  0  0  0  0  0  0  0  0
   -3.7488   -0.0084    3.7921 C   0  0  0  0  0  0  0  0  0  0  0  0
   -2.9061   -1.1164    3.8675 C   0  0  0  0  0  0  0  0  0  0  0  0
   -1.6794   -1.1073    3.2091 C   0  0  0  0  0  0  0  0  0  0  0  0
    2.5536    0.0042   -1.1564 C   0  0  0  0  0  0  0  0  0  0  0  0
    2.0580    0.0569   -2.4076 C   0  0  0  0  0  0  0  0  0  0  0  0
    2.9163    0.0577   -3.5857 C   0  0  0  0  0  0  0  0  0  0  0  0
    2.4573   -0.5548   -4.7597 C   0  0  0  0  0  0  0  0  0  0  0  0
    3.2519   -0.5641   -5.9015 C   0  0  0  0  0  0  0  0  0  0  0  0
    4.5085    0.0403   -5.8859 C   0  0  0  0  0  0  0  0  0  0  0  0
    4.9677    0.6543   -4.7226 C   0  0  0  0  0  0  0  0  0  0  0  0
    4.1759    0.6668   -3.5768 C   0  0  0  0  0  0  0  0  0  0  0  0
    1.4698    0.0149    3.3451 H   0  0  0  0  0  0  0  0  0  0  0  0
   -1.8469    2.0046    1.8169 H   0  0  0  0  0  0  0  0  0  0  0  0
   -4.0228    1.9775    3.0019 H   0  0  0  0  0  0  0  0  0  0  0  0
   -4.7068   -0.0166    4.3096 H   0  0  0  0  0  0  0  0  0  0  0  0
   -3.2071   -1.9901    4.4435 H   0  0  0  0  0  0  0  0  0  0  0  0
   -1.0157   -1.9694    3.2741 H   0  0  0  0  0  0  0  0  0  0  0  0
    3.6381   -0.0463   -0.9455 H   0  0  0  0  0  0  0  0  0  0  0  0
    0.9918    0.0905   -2.6224 H   0  0  0  0  0  0  0  0  0  0  0  0
    1.4787   -1.0291   -4.7754 H   0  0  0  0  0  0  0  0  0  0  0  0
    2.8918   -1.0439   -6.8093 H   0  0  0  0  0  0  0  0  0  0  0  0
    5.1261    0.0333   -6.7804 H   0  0  0  0  0  0  0  0  0  0  0  0
    5.9476    1.1280   -4.7083 H   0  0  0  0  0  0  0  0  0  0  0  0
    4.5361    1.1616   -2.6770 H   0  0  0  0  0  0  0  0  0  0  0  0
  1  2  1  0  0  0  0
  1  6  1  0  0  0  0
  2  3  1  0  0  0  0
  3  4  2  0  0  0  0
  3  5  1  0  0  0  0
  5 21  1  0  0  0  0
  6  5  2  0  0  0  0
  6  7  1  0  0  0  0
  7 12  1  0  0  0  0
  8  7  2  0  0  0  0
  8  9  1  0  0  0  0
  9 10  2  0  0  0  0
 10 11  1  0  0  0  0
 10 24  1  0  0  0  0
 11 25  1  0  0  0  0
 12 26  1  0  0  0  0
 12 11  2  0  0  0  0
 13 27  1  0  0  0  0
 13  2  1  0  0  0  0
 14 13  2  0  0  0  0
 15 20  1  0  0  0  0
 15 14  1  0  0  0  0
 16 15  2  0  0  0  0
 17 18  2  0  0  0  0
 17 16  1  0  0  0  0
 18 19  1  0  0  0  0
 19 32  1  0  0  0  0
 19 20  2  0  0  0  0
 20 33  1  0  0  0  0
 22  8  1  0  0  0  0
 23  9  1  0  0  0  0
 28 14  1  0  0  0  0
 29 16  1  0  0  0  0
 30 17  1  0  0  0  0
 31 18  1  0  0  0  0
M  END
$$$$
