27

N          0.02980       -0.22180        0.10990
H          1.02540       -0.40850        0.16050
C         -0.74950       -0.07210       -1.01570
C         -0.18730       -0.08580       -2.39810
C          0.40670        1.27070       -2.81530
C          0.94860        1.27060       -4.24480
C          1.53440        2.61780       -4.66360
N         -2.01400        0.14810       -0.69800
C         -2.05890        0.13240        0.66810
C         -3.21170        0.35070        1.55440
O         -4.34230        0.66320        1.24240
N         -2.86970        0.16290        2.89740
H         -3.52430        0.57010        3.55920
N         -1.56810        0.02410        3.39170
H         -1.50940       -0.30760        4.35030
C         -0.46190       -0.22170        2.60120
O          0.63070       -0.51590        3.06220
C         -0.79500       -0.08960        1.19180
H         -1.00680       -0.35800       -3.07900
H          0.58320       -0.87180       -2.48110
H          1.21270        1.55090       -2.11310
H         -0.37360        2.04340       -2.70880
H          0.13640        0.98540       -4.93680
H          1.71750        0.48280       -4.34220
H          0.77620        3.41610       -4.60740
H          1.91420        2.58940       -5.69680
H          2.37110        2.91070       -4.00780
