rmsd8.gzmat
 OpenBabel08211713373D

 27 28  0  0  1  0  0  0  0  0999 V2000
    0.0000    0.0000    0.0000 N   0  0  0  0  0  0  0  0  0  0  0  0
    0.9991    0.0000    0.0000 H   0  0  0  0  0  0  0  0  0  0  0  0
   -0.8654    0.0000   -1.1025 C   0  0  0  0  0  0  0  0  0  0  0  0
   -0.3998    0.0077   -2.5079 C   0  0  0  0  0  0  0  0  0  0  0  0
    0.4571   -1.2255   -2.8287 C   0  0  0  0  0  0  0  0  0  0  0  0
   -0.3342   -2.5241   -2.6233 C   0  0  0  0  0  0  0  0  0  0  0  0
    0.5387   -3.7435   -2.9087 C   0  0  0  0  0  0  0  0  0  0  0  0
   -2.1572   -0.0212   -0.6965 N   0  0  0  0  0  0  0  0  0  0  0  0
   -2.1326   -0.0478    0.6768 C   0  0  0  0  0  0  0  0  0  0  0  0
   -3.2373   -0.0714    1.6288 C   0  0  0  0  0  0  0  0  0  0  0  0
   -4.4242   -0.0267    1.4213 O   0  0  0  0  0  0  0  0  0  0  0  0
   -2.8381   -0.2702    2.9836 N   0  0  0  0  0  0  0  0  0  0  0  0
   -3.5287   -0.0136    3.7000 H   0  0  0  0  0  0  0  0  0  0  0  0
   -1.5277    0.0122    3.4169 N   0  0  0  0  0  0  0  0  0  0  0  0
   -1.3728   -0.2915    4.3848 H   0  0  0  0  0  0  0  0  0  0  0  0
   -0.4376   -0.0860    2.5320 C   0  0  0  0  0  0  0  0  0  0  0  0
    0.6835   -0.1217    2.9915 O   0  0  0  0  0  0  0  0  0  0  0  0
   -0.7982   -0.0360    1.1275 C   0  0  1  0  0  0  0  0  0  0  0  0
    0.1607    0.9403   -2.7322 H   0  0  0  0  0  0  0  0  0  0  0  0
   -1.2892    0.0346   -3.1858 H   0  0  0  0  0  0  0  0  0  0  0  0
    1.3728   -1.2371   -2.2102 H   0  0  0  0  0  0  0  0  0  0  0  0
    0.8100   -1.1653   -3.8771 H   0  0  0  0  0  0  0  0  0  0  0  0
   -1.2290   -2.5321   -3.2761 H   0  0  0  0  0  0  0  0  0  0  0  0
   -0.7300   -2.5760   -1.5896 H   0  0  0  0  0  0  0  0  0  0  0  0
    0.9107   -3.7429   -3.9391 H   0  0  0  0  0  0  0  0  0  0  0  0
   -0.0232   -4.6745   -2.7656 H   0  0  0  0  0  0  0  0  0  0  0  0
    1.4080   -3.7837   -2.2421 H   0  0  0  0  0  0  0  0  0  0  0  0
  1  2  1  0  0  0  0
  1 18  1  0  0  0  0
  3  8  2  0  0  0  0
  3  1  1  0  0  0  0
  4  3  1  0  0  0  0
  5  6  1  0  0  0  0
  5  4  1  0  0  0  0
  5 21  1  0  0  0  0
  6 24  1  0  0  0  0
  7 26  1  0  0  0  0
  7  6  1  0  0  0  0
  7 27  1  0  0  0  0
  8  9  2  0  0  0  0
  9 10  1  0  0  0  0
 10 12  1  0  0  0  0
 11 10  2  0  0  0  0
 12 14  1  0  0  0  0
 12 13  1  0  0  0  0
 14 15  1  0  0  0  0
 16 17  2  0  0  0  0
 16 14  1  0  0  0  0
 18  9  1  6  0  0  0
 18 16  1  0  0  0  0
 19  4  1  0  0  0  0
 20  4  1  0  0  0  0
 22  5  1  0  0  0  0
 23  6  1  0  0  0  0
 25  7  1  0  0  0  0
M  RAD  1  18   2
M  END
$$$$
