rmsd64.gzmat
 OpenBabel08211713373D

 27 28  0  0  1  0  0  0  0  0999 V2000
    0.0000    0.0000    0.0000 N   0  0  0  0  0  0  0  0  0  0  0  0
    0.9994    0.0000    0.0000 H   0  0  0  0  0  0  0  0  0  0  0  0
   -0.8676    0.0000   -1.1022 C   0  0  0  0  0  0  0  0  0  0  0  0
   -0.3932    0.0058   -2.5038 C   0  0  0  0  0  0  0  0  0  0  0  0
   -0.1788   -1.4323   -3.0033 C   0  0  0  0  0  0  0  0  0  0  0  0
    0.3442   -1.4272   -4.4445 C   0  0  0  0  0  0  0  0  0  0  0  0
    0.5321   -2.8555   -4.9550 C   0  0  0  0  0  0  0  0  0  0  0  0
   -2.1582   -0.0121   -0.6948 N   0  0  0  0  0  0  0  0  0  0  0  0
   -2.1320   -0.0203    0.6793 C   0  0  0  0  0  0  0  0  0  0  0  0
   -3.2352   -0.0515    1.6326 C   0  0  0  0  0  0  0  0  0  0  0  0
   -4.4210   -0.1182    1.4256 O   0  0  0  0  0  0  0  0  0  0  0  0
   -2.8387    0.1110    2.9935 N   0  0  0  0  0  0  0  0  0  0  0  0
   -3.5213   -0.1885    3.7008 H   0  0  0  0  0  0  0  0  0  0  0  0
   -1.5212   -0.1540    3.4158 N   0  0  0  0  0  0  0  0  0  0  0  0
   -1.3720    0.1207    4.3936 H   0  0  0  0  0  0  0  0  0  0  0  0
   -0.4355   -0.0006    2.5339 C   0  0  0  0  0  0  0  0  0  0  0  0
    0.6854    0.0453    2.9933 O   0  0  0  0  0  0  0  0  0  0  0  0
   -0.7972   -0.0150    1.1284 C   0  0  2  0  0  0  0  0  0  0  0  0
    0.5360    0.6011   -2.6160 H   0  0  0  0  0  0  0  0  0  0  0  0
   -1.1519    0.5137   -3.1481 H   0  0  0  0  0  0  0  0  0  0  0  0
   -1.1351   -1.9928   -2.9487 H   0  0  0  0  0  0  0  0  0  0  0  0
    0.5240   -1.9739   -2.3442 H   0  0  0  0  0  0  0  0  0  0  0  0
    1.3023   -0.8768   -4.5031 H   0  0  0  0  0  0  0  0  0  0  0  0
   -0.3599   -0.8832   -5.1036 H   0  0  0  0  0  0  0  0  0  0  0  0
    1.2454   -3.4141   -4.3390 H   0  0  0  0  0  0  0  0  0  0  0  0
    0.9101   -2.8639   -5.9838 H   0  0  0  0  0  0  0  0  0  0  0  0
   -0.4133   -3.4115   -4.9497 H   0  0  0  0  0  0  0  0  0  0  0  0
  1  2  1  0  0  0  0
  1 18  1  0  0  0  0
  3  8  2  0  0  0  0
  3  1  1  0  0  0  0
  4  3  1  0  0  0  0
  5 21  1  0  0  0  0
  5  4  1  0  0  0  0
  5 22  1  0  0  0  0
  6  5  1  0  0  0  0
  7 27  1  0  0  0  0
  7  6  1  0  0  0  0
  7 25  1  0  0  0  0
  8  9  2  0  0  0  0
  9 10  1  0  0  0  0
 10 12  1  0  0  0  0
 11 10  2  0  0  0  0
 12 14  1  0  0  0  0
 12 13  1  0  0  0  0
 14 15  1  0  0  0  0
 16 17  2  0  0  0  0
 16 14  1  0  0  0  0
 18  9  1  6  0  0  0
 18 16  1  0  0  0  0
 19  4  1  0  0  0  0
 20  4  1  0  0  0  0
 23  6  1  0  0  0  0
 24  6  1  0  0  0  0
 26  7  1  0  0  0  0
M  RAD  1  18   2
M  END
$$$$
