rmsd59.gzmat
 OpenBabel08211713373D

 27 28  0  0  1  0  0  0  0  0999 V2000
    0.0000    0.0000    0.0000 N   0  0  0  0  0  0  0  0  0  0  0  0
    0.9993    0.0000    0.0000 H   0  0  0  0  0  0  0  0  0  0  0  0
   -0.8651    0.0000   -1.1038 C   0  0  0  0  0  0  0  0  0  0  0  0
   -0.3874    0.0056   -2.5047 C   0  0  0  0  0  0  0  0  0  0  0  0
    0.4666   -1.2354   -2.8020 C   0  0  0  0  0  0  0  0  0  0  0  0
    0.9848   -1.2035   -4.2447 C   0  0  0  0  0  0  0  0  0  0  0  0
    1.8414   -2.4362   -4.5312 C   0  0  0  0  0  0  0  0  0  0  0  0
   -2.1566   -0.0053   -0.6983 N   0  0  0  0  0  0  0  0  0  0  0  0
   -2.1328   -0.0127    0.6761 C   0  0  0  0  0  0  0  0  0  0  0  0
   -3.2366   -0.0336    1.6295 C   0  0  0  0  0  0  0  0  0  0  0  0
   -4.4233   -0.0731    1.4208 O   0  0  0  0  0  0  0  0  0  0  0  0
   -2.8373    0.1053    2.9928 N   0  0  0  0  0  0  0  0  0  0  0  0
   -3.5236   -0.1911    3.6974 H   0  0  0  0  0  0  0  0  0  0  0  0
   -1.5240   -0.1877    3.4102 N   0  0  0  0  0  0  0  0  0  0  0  0
   -1.3719    0.0639    4.3934 H   0  0  0  0  0  0  0  0  0  0  0  0
   -0.4361   -0.0311    2.5318 C   0  0  0  0  0  0  0  0  0  0  0  0
    0.6860   -0.0107    2.9899 O   0  0  0  0  0  0  0  0  0  0  0  0
   -0.7986   -0.0175    1.1269 C   0  0  2  0  0  0  0  0  0  0  0  0
    0.1806    0.9351   -2.7250 H   0  0  0  0  0  0  0  0  0  0  0  0
   -1.2663    0.0343   -3.1949 H   0  0  0  0  0  0  0  0  0  0  0  0
   -0.1336   -2.1532   -2.6382 H   0  0  0  0  0  0  0  0  0  0  0  0
    1.3192   -1.3032   -2.1018 H   0  0  0  0  0  0  0  0  0  0  0  0
    1.5753   -0.2843   -4.4211 H   0  0  0  0  0  0  0  0  0  0  0  0
    0.1365   -1.1601   -4.9550 H   0  0  0  0  0  0  0  0  0  0  0  0
    2.7096   -2.4891   -3.8642 H   0  0  0  0  0  0  0  0  0  0  0  0
    2.2200   -2.4269   -5.5595 H   0  0  0  0  0  0  0  0  0  0  0  0
    1.2701   -3.3629   -4.4024 H   0  0  0  0  0  0  0  0  0  0  0  0
  1  2  1  0  0  0  0
  1 18  1  0  0  0  0
  3  8  2  0  0  0  0
  3  1  1  0  0  0  0
  4  3  1  0  0  0  0
  5 21  1  0  0  0  0
  5  4  1  0  0  0  0
  5 22  1  0  0  0  0
  6  5  1  0  0  0  0
  7 27  1  0  0  0  0
  7  6  1  0  0  0  0
  7 25  1  0  0  0  0
  8  9  2  0  0  0  0
  9 10  1  0  0  0  0
 10 12  1  0  0  0  0
 11 10  2  0  0  0  0
 12 14  1  0  0  0  0
 12 13  1  0  0  0  0
 14 15  1  0  0  0  0
 16 17  2  0  0  0  0
 16 14  1  0  0  0  0
 18  9  1  1  0  0  0
 18 16  1  0  0  0  0
 19  4  1  0  0  0  0
 20  4  1  0  0  0  0
 23  6  1  0  0  0  0
 24  6  1  0  0  0  0
 26  7  1  0  0  0  0
M  RAD  1  18   2
M  END
$$$$
