27
rmsd12.gzmat
N          0.00000        0.00000        0.00000
H          0.99920        0.00000        0.00000
C         -0.86460        0.00000       -1.10350
C         -0.39170       -0.00220       -2.50640
C          0.43730        1.25210       -2.82200
C         -0.39580        2.52840       -2.64190
C          0.43630        3.76950       -2.95540
N         -2.15660        0.01880       -0.69840
C         -2.13310        0.04370        0.67540
C         -3.23760        0.06560        1.62750
O         -4.42450        0.02500        1.42000
N         -2.83810        0.25680        2.98400
H         -3.52790       -0.00630        3.69880
N         -1.52780       -0.02950        3.41520
H         -1.37260        0.26800        4.38490
C         -0.43750        0.07190        2.53150
O          0.68410        0.10030        2.99030
C         -0.79890        0.03170        1.12660
H         -1.27380       -0.05270       -3.19160
H          0.19410       -0.92080       -2.72450
H          0.81180        1.19400       -3.86300
H          1.33900        1.29490       -2.18460
H         -0.79080        2.58830       -1.60830
H         -1.29050        2.49350       -3.29320
H          1.30810        3.85000       -2.29660
H         -0.15600        4.68370       -2.82530
H          0.80060        3.76150       -3.98850
