27

N          0.04010        0.24670        0.11920
H          1.03340        0.44400        0.17610
C         -0.73060        0.09000       -1.01130
C         -0.16020        0.11130       -2.39020
C          0.44890       -1.23890       -2.80600
C          0.99940       -1.23150       -4.23210
C          1.60040       -2.57240       -4.64950
N         -1.99460       -0.14420       -0.70160
C         -2.04800       -0.13060        0.66420
C         -3.20380       -0.36240        1.54320
O         -4.32900       -0.68670        1.22400
N         -2.87190       -0.17260        2.88860
H         -3.52610       -0.58760        3.54590
N         -1.57500       -0.02050        3.39090
H         -1.52560        0.31070        4.35020
C         -0.46670        0.23820        2.60740
O          0.61990        0.54360        3.07550
C         -0.78980        0.10420        1.19590
H          0.60330        0.90460       -2.46740
H         -0.97820        0.37680       -3.07570
H         -0.32470       -2.01910       -2.70530
H          1.25340       -1.51270       -2.09930
H          1.76140       -0.43630       -4.32370
H          0.18870       -0.95290       -4.92860
H          2.43590       -2.85850       -3.98900
H          1.98610       -2.53880       -5.68030
H          0.84950       -3.37790       -4.59910
