27
rmsd8.gzmat
N          0.00000        0.00000        0.00000
H          0.99910        0.00000        0.00000
C         -0.86540        0.00000       -1.10250
C         -0.39980        0.00770       -2.50790
C          0.45710       -1.22550       -2.82870
C         -0.33420       -2.52410       -2.62330
C          0.53870       -3.74350       -2.90870
N         -2.15720       -0.02120       -0.69650
C         -2.13260       -0.04780        0.67680
C         -3.23730       -0.07140        1.62880
O         -4.42420       -0.02670        1.42130
N         -2.83810       -0.27020        2.98360
H         -3.52870       -0.01360        3.70000
N         -1.52770        0.01220        3.41690
H         -1.37280       -0.29150        4.38480
C         -0.43760       -0.08600        2.53200
O          0.68350       -0.12170        2.99150
C         -0.79820       -0.03600        1.12750
H          0.16070        0.94030       -2.73220
H         -1.28920        0.03460       -3.18580
H          1.37280       -1.23710       -2.21020
H          0.81000       -1.16530       -3.87710
H         -1.22900       -2.53210       -3.27610
H         -0.73000       -2.57600       -1.58960
H          0.91070       -3.74290       -3.93910
H         -0.02320       -4.67450       -2.76560
H          1.40800       -3.78370       -2.24210
