
     RDKit          3D

 27 28  0  0  0  0  0  0  0  0999 V2000
    0.0401    0.2467    0.1192 N   0  0  0  0  0  0  0  0  0  0  0  0
    1.0334    0.4440    0.1761 H   0  0  0  0  0  0  0  0  0  0  0  0
   -0.7306    0.0900   -1.0113 C   0  0  0  0  0  0  0  0  0  0  0  0
   -0.1602    0.1113   -2.3902 C   0  0  0  0  0  0  0  0  0  0  0  0
    0.4489   -1.2389   -2.8060 C   0  0  0  0  0  0  0  0  0  0  0  0
    0.9994   -1.2315   -4.2321 C   0  0  0  0  0  0  0  0  0  0  0  0
    1.6004   -2.5724   -4.6495 C   0  0  0  0  0  0  0  0  0  0  0  0
   -1.9946   -0.1442   -0.7016 N   0  0  0  0  0  0  0  0  0  0  0  0
   -2.0480   -0.1306    0.6642 C   0  0  0  0  0  0  0  0  0  0  0  0
   -3.2038   -0.3624    1.5432 C   0  0  0  0  0  0  0  0  0  0  0  0
   -4.3290   -0.6867    1.2240 O   0  0  0  0  0  0  0  0  0  0  0  0
   -2.8719   -0.1726    2.8886 N   0  0  0  0  0  0  0  0  0  0  0  0
   -3.5261   -0.5876    3.5459 H   0  0  0  0  0  0  0  0  0  0  0  0
   -1.5750   -0.0205    3.3909 N   0  0  0  0  0  0  0  0  0  0  0  0
   -1.5256    0.3107    4.3502 H   0  0  0  0  0  0  0  0  0  0  0  0
   -0.4667    0.2382    2.6074 C   0  0  0  0  0  0  0  0  0  0  0  0
    0.6199    0.5436    3.0755 O   0  0  0  0  0  0  0  0  0  0  0  0
   -0.7898    0.1042    1.1959 C   0  0  0  0  0  0  0  0  0  0  0  0
    0.6033    0.9046   -2.4674 H   0  0  0  0  0  0  0  0  0  0  0  0
   -0.9782    0.3768   -3.0757 H   0  0  0  0  0  0  0  0  0  0  0  0
   -0.3247   -2.0191   -2.7053 H   0  0  0  0  0  0  0  0  0  0  0  0
    1.2534   -1.5127   -2.0993 H   0  0  0  0  0  0  0  0  0  0  0  0
    1.7614   -0.4363   -4.3237 H   0  0  0  0  0  0  0  0  0  0  0  0
    0.1887   -0.9529   -4.9286 H   0  0  0  0  0  0  0  0  0  0  0  0
    2.4359   -2.8585   -3.9890 H   0  0  0  0  0  0  0  0  0  0  0  0
    1.9861   -2.5388   -5.6803 H   0  0  0  0  0  0  0  0  0  0  0  0
    0.8495   -3.3779   -4.5991 H   0  0  0  0  0  0  0  0  0  0  0  0
  1  2  1  0
  1  3  1  0
  1 18  1  0
  3  4  1  0
  3  8  2  0
  4  5  1  0
  4 19  1  0
  4 20  1  0
  5  6  1  0
  5 21  1  0
  5 22  1  0
  6  7  1  0
  6 23  1  0
  6 24  1  0
  7 25  1  0
  7 26  1  0
  7 27  1  0
  8  9  1  0
  9 10  1  0
  9 18  2  0
 10 11  2  0
 10 12  1  0
 12 13  1  0
 12 14  1  0
 14 15  1  0
 14 16  1  0
 16 17  2  0
 16 18  1  0
M  END

