rmsd36.gzmat
 OpenBabel08211713373D

 27 28  0  0  1  0  0  0  0  0999 V2000
    0.0000    0.0000    0.0000 N   0  0  0  0  0  0  0  0  0  0  0  0
    0.9991    0.0000    0.0000 H   0  0  0  0  0  0  0  0  0  0  0  0
   -0.8673    0.0000   -1.1022 C   0  0  0  0  0  0  0  0  0  0  0  0
   -0.3905   -0.0178   -2.5038 C   0  0  0  0  0  0  0  0  0  0  0  0
    0.1426   -1.4099   -2.8808 C   0  0  0  0  0  0  0  0  0  0  0  0
   -0.9980   -2.4314   -2.9868 C   0  0  0  0  0  0  0  0  0  0  0  0
   -0.4501   -3.8532   -3.0859 C   0  0  0  0  0  0  0  0  0  0  0  0
   -2.1579   -0.0088   -0.6943 N   0  0  0  0  0  0  0  0  0  0  0  0
   -2.1317   -0.0268    0.6801 C   0  0  0  0  0  0  0  0  0  0  0  0
   -3.2344   -0.0371    1.6347 C   0  0  0  0  0  0  0  0  0  0  0  0
   -4.4215    0.0086    1.4293 O   0  0  0  0  0  0  0  0  0  0  0  0
   -2.8334   -0.2220    2.9912 N   0  0  0  0  0  0  0  0  0  0  0  0
   -3.5207    0.0456    3.7068 H   0  0  0  0  0  0  0  0  0  0  0  0
   -1.5211    0.0607    3.4175 N   0  0  0  0  0  0  0  0  0  0  0  0
   -1.3664   -0.2271    4.3898 H   0  0  0  0  0  0  0  0  0  0  0  0
   -0.4333   -0.0561    2.5328 C   0  0  0  0  0  0  0  0  0  0  0  0
    0.6892   -0.0920    2.9888 O   0  0  0  0  0  0  0  0  0  0  0  0
   -0.7971   -0.0205    1.1284 C   0  0  1  0  0  0  0  0  0  0  0  0
    0.3881    0.7554   -2.6720 H   0  0  0  0  0  0  0  0  0  0  0  0
   -1.2309    0.2615   -3.1855 H   0  0  0  0  0  0  0  0  0  0  0  0
    0.8899   -1.7510   -2.1405 H   0  0  0  0  0  0  0  0  0  0  0  0
    0.6824   -1.3517   -3.8452 H   0  0  0  0  0  0  0  0  0  0  0  0
   -1.6319   -2.2032   -3.8651 H   0  0  0  0  0  0  0  0  0  0  0  0
   -1.6732   -2.3477   -2.1101 H   0  0  0  0  0  0  0  0  0  0  0  0
    0.2206   -3.9705   -3.9435 H   0  0  0  0  0  0  0  0  0  0  0  0
   -1.2619   -4.5814   -3.2030 H   0  0  0  0  0  0  0  0  0  0  0  0
    0.1073   -4.1333   -2.1849 H   0  0  0  0  0  0  0  0  0  0  0  0
  1  2  1  0  0  0  0
  1 18  1  0  0  0  0
  3  8  2  0  0  0  0
  3  1  1  0  0  0  0
  4  3  1  0  0  0  0
  5  4  1  0  0  0  0
  5 21  1  0  0  0  0
  6  5  1  0  0  0  0
  6 24  1  0  0  0  0
  7  6  1  0  0  0  0
  7 27  1  0  0  0  0
  8  9  2  0  0  0  0
  9 10  1  0  0  0  0
 10 12  1  0  0  0  0
 11 10  2  0  0  0  0
 12 14  1  0  0  0  0
 12 13  1  0  0  0  0
 14 15  1  0  0  0  0
 16 17  2  0  0  0  0
 16 14  1  0  0  0  0
 18  9  1  6  0  0  0
 18 16  1  0  0  0  0
 19  4  1  0  0  0  0
 20  4  1  0  0  0  0
 22  5  1  0  0  0  0
 23  6  1  0  0  0  0
 25  7  1  0  0  0  0
 26  7  1  0  0  0  0
M  RAD  1  18   2
M  END
$$$$
