
     RDKit          3D

 27 28  0  0  0  0  0  0  0  0999 V2000
   -0.0303    0.1312    0.0643 N   0  0  0  0  0  0  0  0  0  0  0  0
    0.9764    0.2544    0.0778 H   0  0  0  0  0  0  0  0  0  0  0  0
   -0.8564    0.0082   -1.0315 C   0  0  0  0  0  0  0  0  0  0  0  0
   -0.3402   -0.0036   -2.4331 C   0  0  0  0  0  0  0  0  0  0  0  0
    0.4647   -1.2711   -2.7749 C   0  0  0  0  0  0  0  0  0  0  0  0
   -0.3511   -2.5614   -2.6846 C   0  0  0  0  0  0  0  0  0  0  0  0
    0.4645   -3.8075   -3.0229 C   0  0  0  0  0  0  0  0  0  0  0  0
   -2.1176   -0.1463   -0.6653 N   0  0  0  0  0  0  0  0  0  0  0  0
   -2.1108   -0.1233    0.7020 C   0  0  0  0  0  0  0  0  0  0  0  0
   -3.2473   -0.2152    1.6302 C   0  0  0  0  0  0  0  0  0  0  0  0
   -4.4292   -0.2627    1.3586 O   0  0  0  0  0  0  0  0  0  0  0  0
   -2.8212   -0.2388    2.9625 N   0  0  0  0  0  0  0  0  0  0  0  0
   -3.5452   -0.0139    3.6390 H   0  0  0  0  0  0  0  0  0  0  0  0
   -1.5219    0.0357    3.4029 N   0  0  0  0  0  0  0  0  0  0  0  0
   -1.3370   -0.2155    4.3698 H   0  0  0  0  0  0  0  0  0  0  0  0
   -0.4188    0.0943    2.5735 C   0  0  0  0  0  0  0  0  0  0  0  0
    0.7262    0.1595    2.9953 O   0  0  0  0  0  0  0  0  0  0  0  0
   -0.8212    0.0551    1.1765 C   0  0  0  0  0  0  0  0  0  0  0  0
    0.2857    0.8894   -2.6026 H   0  0  0  0  0  0  0  0  0  0  0  0
   -1.2155    0.0807   -3.0927 H   0  0  0  0  0  0  0  0  0  0  0  0
    1.3423   -1.3425   -2.1056 H   0  0  0  0  0  0  0  0  0  0  0  0
    0.8737   -1.1603   -3.7939 H   0  0  0  0  0  0  0  0  0  0  0  0
   -1.2197   -2.4839   -3.3619 H   0  0  0  0  0  0  0  0  0  0  0  0
   -0.7767   -2.6573   -1.6710 H   0  0  0  0  0  0  0  0  0  0  0  0
    0.8727   -3.7547   -4.0460 H   0  0  0  0  0  0  0  0  0  0  0  0
   -0.1480   -4.7199   -2.9550 H   0  0  0  0  0  0  0  0  0  0  0  0
    1.3173   -3.9267   -2.3337 H   0  0  0  0  0  0  0  0  0  0  0  0
  1  2  1  0
  1  3  1  0
  1 18  1  0
  3  4  1  0
  3  8  2  0
  4  5  1  0
  4 19  1  0
  4 20  1  0
  5  6  1  0
  5 21  1  0
  5 22  1  0
  6  7  1  0
  6 23  1  0
  6 24  1  0
  7 25  1  0
  7 26  1  0
  7 27  1  0
  8  9  1  0
  9 10  1  0
  9 18  2  0
 10 11  2  0
 10 12  1  0
 12 13  1  0
 12 14  1  0
 14 15  1  0
 14 16  1  0
 16 17  2  0
 16 18  1  0
M  END

