27

N         -0.07650        0.01250       -0.00190
H          0.93720        0.04360       -0.01530
C         -0.93840       -0.04100       -1.07480
C         -0.47170        0.00030       -2.49180
C         -0.17310        1.42760       -2.98210
C          0.26850        1.47600       -4.44480
C          0.56090        2.89250       -4.93610
N         -2.19900       -0.06530       -0.67670
C         -2.15520       -0.02530        0.68900
C         -3.26900       -0.07050        1.64780
O         -4.45040       -0.21680        1.41090
N         -2.81930        0.07430        2.96440
H         -3.48330       -0.23020        3.67070
N         -1.48290        0.02000        3.37500
H         -1.31530        0.33800        4.32530
C         -0.40440        0.09640        2.51490
O          0.74680        0.22400        2.90400
C         -0.84210        0.01600        1.13040
H         -1.26600       -0.44610       -3.10750
H          0.42710       -0.62980       -2.60850
H          0.60760        1.88020       -2.34390
H         -1.07730        2.04390       -2.84150
H         -0.51660        1.01780       -5.07230
H          1.16520        0.84330       -4.57500
H         -0.32990        3.53600       -4.84800
H          0.87380        2.89730       -5.99180
H          1.36620        3.36150       -4.34660
