rmsd22.gzmat
 OpenBabel08211713373D

 27 28  0  0  1  0  0  0  0  0999 V2000
    0.0000    0.0000    0.0000 N   0  0  0  0  0  0  0  0  0  0  0  0
    0.9991    0.0000    0.0000 H   0  0  0  0  0  0  0  0  0  0  0  0
   -0.8676    0.0000   -1.1018 C   0  0  0  0  0  0  0  0  0  0  0  0
   -0.3933    0.0221   -2.5043 C   0  0  0  0  0  0  0  0  0  0  0  0
    0.1615   -1.3456   -2.9335 C   0  0  0  0  0  0  0  0  0  0  0  0
   -0.9583   -2.3882   -3.0466 C   0  0  0  0  0  0  0  0  0  0  0  0
   -0.3978   -3.7534   -3.4388 C   0  0  0  0  0  0  0  0  0  0  0  0
   -2.1582   -0.0175   -0.6932 N   0  0  0  0  0  0  0  0  0  0  0  0
   -2.1312   -0.0356    0.6811 C   0  0  0  0  0  0  0  0  0  0  0  0
   -3.2332   -0.0461    1.6366 C   0  0  0  0  0  0  0  0  0  0  0  0
   -4.4211   -0.0149    1.4315 O   0  0  0  0  0  0  0  0  0  0  0  0
   -2.8294   -0.2127    2.9949 N   0  0  0  0  0  0  0  0  0  0  0  0
   -3.5190    0.0556    3.7077 H   0  0  0  0  0  0  0  0  0  0  0  0
   -1.5193    0.0866    3.4177 N   0  0  0  0  0  0  0  0  0  0  0  0
   -1.3624   -0.1864    4.3946 H   0  0  0  0  0  0  0  0  0  0  0  0
   -0.4316   -0.0383    2.5337 C   0  0  0  0  0  0  0  0  0  0  0  0
    0.6910   -0.0604    2.9902 O   0  0  0  0  0  0  0  0  0  0  0  0
   -0.7961   -0.0219    1.1292 C   0  0  1  0  0  0  0  0  0  0  0  0
    0.3715    0.8136   -2.6516 H   0  0  0  0  0  0  0  0  0  0  0  0
   -1.2415    0.3102   -3.1732 H   0  0  0  0  0  0  0  0  0  0  0  0
    0.9324   -1.6944   -2.2222 H   0  0  0  0  0  0  0  0  0  0  0  0
    0.6785   -1.2451   -3.9077 H   0  0  0  0  0  0  0  0  0  0  0  0
   -1.7112   -2.0589   -3.7884 H   0  0  0  0  0  0  0  0  0  0  0  0
   -1.5076   -2.4640   -2.0861 H   0  0  0  0  0  0  0  0  0  0  0  0
    0.1068   -3.7196   -4.4104 H   0  0  0  0  0  0  0  0  0  0  0  0
   -1.1969   -4.5012   -3.5125 H   0  0  0  0  0  0  0  0  0  0  0  0
    0.3243   -4.1215   -2.7015 H   0  0  0  0  0  0  0  0  0  0  0  0
  1  2  1  0  0  0  0
  1 18  1  0  0  0  0
  3  8  2  0  0  0  0
  3  1  1  0  0  0  0
  4  3  1  0  0  0  0
  5  4  1  0  0  0  0
  5 21  1  0  0  0  0
  6  5  1  0  0  0  0
  6 24  1  0  0  0  0
  7  6  1  0  0  0  0
  7 27  1  0  0  0  0
  8  9  2  0  0  0  0
  9 10  1  0  0  0  0
 10 12  1  0  0  0  0
 11 10  2  0  0  0  0
 12 14  1  0  0  0  0
 12 13  1  0  0  0  0
 14 15  1  0  0  0  0
 16 17  2  0  0  0  0
 16 14  1  0  0  0  0
 18  9  1  6  0  0  0
 18 16  1  0  0  0  0
 19  4  1  0  0  0  0
 20  4  1  0  0  0  0
 22  5  1  0  0  0  0
 23  6  1  0  0  0  0
 25  7  1  0  0  0  0
 26  7  1  0  0  0  0
M  RAD  1  18   2
M  END
$$$$
