rmsd202.gzmat
 OpenBabel08211713393D

 50 52  0  0  1  0  0  0  0  0999 V2000
    0.0000    0.0000    0.0000 N   0  0  0  0  0  0  0  0  0  0  0  0
    1.4947    0.0000    0.0000 C   0  0  1  0  0  0  0  0  0  0  0  0
    1.8931    0.0000    1.0433 H   0  0  0  0  0  0  0  0  0  0  0  0
    1.9096   -1.2986   -0.7488 C   0  0  2  0  0  0  0  0  0  0  0  0
    2.6982   -1.0735   -1.5035 H   0  0  0  0  0  0  0  0  0  0  0  0
    0.6027   -1.7461   -1.4397 C   0  0  1  0  0  0  0  0  0  0  0  0
    0.2275   -2.7421   -1.1046 H   0  0  0  0  0  0  0  0  0  0  0  0
   -0.4108   -0.7847   -1.0864 O   0  0  0  0  0  0  0  0  0  0  0  0
    0.7446   -1.7724   -2.9073 N   0  0  0  0  0  0  0  0  0  0  0  0
   -0.4944   -2.2842   -3.3844 O   0  0  0  0  0  0  0  0  0  0  0  0
    0.9174   -0.4704   -3.5140 C   0  0  0  0  0  0  0  0  0  0  0  0
    2.1916   -0.1953   -4.0223 C   0  0  0  0  0  0  0  0  0  0  0  0
    2.4333    1.0423   -4.6120 C   0  0  0  0  0  0  0  0  0  0  0  0
    1.4121    1.9870   -4.7055 C   0  0  0  0  0  0  0  0  0  0  0  0
    0.1397    1.6969   -4.2153 C   0  0  0  0  0  0  0  0  0  0  0  0
   -0.1161    0.4651   -3.6192 C   0  0  0  0  0  0  0  0  0  0  0  0
    2.4194   -2.3821    0.2056 C   0  0  0  0  0  0  0  0  0  0  0  0
    3.8016   -2.0355    0.7563 C   0  0  0  0  0  0  0  0  0  0  0  0
    1.9466    1.2809   -0.7174 C   0  0  0  0  0  0  0  0  0  0  0  0
    3.4595    1.4832   -0.6047 C   0  0  0  0  0  0  0  0  0  0  0  0
    3.8995    2.6698   -1.4623 C   0  0  0  0  0  0  0  0  0  0  0  0
   -0.5895   -0.4913    1.2135 C   0  0  0  0  0  0  0  0  0  0  0  0
   -0.2898    0.1832    2.4070 C   0  0  0  0  0  0  0  0  0  0  0  0
   -0.9160   -0.2014    3.5875 C   0  0  0  0  0  0  0  0  0  0  0  0
   -1.8383   -1.2467    3.5898 C   0  0  0  0  0  0  0  0  0  0  0  0
   -2.1479   -1.9004    2.3985 C   0  0  0  0  0  0  0  0  0  0  0  0
   -1.5320   -1.5266    1.2085 C   0  0  0  0  0  0  0  0  0  0  0  0
   -0.1989   -2.9840   -4.0343 H   0  0  0  0  0  0  0  0  0  0  0  0
    2.9792   -0.9435   -3.9561 H   0  0  0  0  0  0  0  0  0  0  0  0
    3.4219    1.2692   -5.0054 H   0  0  0  0  0  0  0  0  0  0  0  0
    1.6075    2.9533   -5.1654 H   0  0  0  0  0  0  0  0  0  0  0  0
   -0.6557    2.4365   -4.2903 H   0  0  0  0  0  0  0  0  0  0  0  0
   -1.1049    0.2302   -3.2196 H   0  0  0  0  0  0  0  0  0  0  0  0
    1.7043   -2.5307    1.0388 H   0  0  0  0  0  0  0  0  0  0  0  0
    2.4678   -3.3535   -0.3277 H   0  0  0  0  0  0  0  0  0  0  0  0
    3.7969   -1.0855    1.3025 H   0  0  0  0  0  0  0  0  0  0  0  0
    4.5446   -1.9515   -0.0452 H   0  0  0  0  0  0  0  0  0  0  0  0
    4.1550   -2.8072    1.4503 H   0  0  0  0  0  0  0  0  0  0  0  0
    1.6325    1.2554   -1.7803 H   0  0  0  0  0  0  0  0  0  0  0  0
    1.4087    2.1515   -0.2901 H   0  0  0  0  0  0  0  0  0  0  0  0
    3.9975    0.5706   -0.9250 H   0  0  0  0  0  0  0  0  0  0  0  0
    3.7457    1.6498    0.4506 H   0  0  0  0  0  0  0  0  0  0  0  0
    3.6845    2.4946   -2.5241 H   0  0  0  0  0  0  0  0  0  0  0  0
    4.9741    2.8547   -1.3674 H   0  0  0  0  0  0  0  0  0  0  0  0
    3.3779    3.5889   -1.1721 H   0  0  0  0  0  0  0  0  0  0  0  0
    0.4113    1.0143    2.4059 H   0  0  0  0  0  0  0  0  0  0  0  0
   -0.6849    0.3204    4.5148 H   0  0  0  0  0  0  0  0  0  0  0  0
   -2.3207   -1.5451    4.5163 H   0  0  0  0  0  0  0  0  0  0  0  0
   -2.8795   -2.7071    2.3962 H   0  0  0  0  0  0  0  0  0  0  0  0
   -1.7916   -2.0271    0.2767 H   0  0  0  0  0  0  0  0  0  0  0  0
  1  2  1  0  0  0  0
  1 22  1  0  0  0  0
  2  4  1  0  0  0  0
  2  3  1  1  0  0  0
  4  6  1  0  0  0  0
  4 17  1  0  0  0  0
  4  5  1  6  0  0  0
  6  7  1  1  0  0  0
  6  8  1  0  0  0  0
  8  1  1  0  0  0  0
  9  6  1  0  0  0  0
 10  9  1  0  0  0  0
 11  9  1  0  0  0  0
 12 29  1  0  0  0  0
 12 11  2  0  0  0  0
 13 12  1  0  0  0  0
 14 13  2  0  0  0  0
 14 15  1  0  0  0  0
 15 16  2  0  0  0  0
 16 11  1  0  0  0  0
 16 33  1  0  0  0  0
 17 18  1  0  0  0  0
 17 34  1  0  0  0  0
 18 36  1  0  0  0  0
 18 38  1  0  0  0  0
 19 20  1  0  0  0  0
 19 40  1  0  0  0  0
 19  2  1  0  0  0  0
 20 42  1  0  0  0  0
 21 44  1  0  0  0  0
 21 45  1  0  0  0  0
 21 20  1  0  0  0  0
 22 23  1  0  0  0  0
 23 24  2  0  0  0  0
 24 25  1  0  0  0  0
 24 47  1  0  0  0  0
 25 48  1  0  0  0  0
 26 25  2  0  0  0  0
 27 22  2  0  0  0  0
 27 26  1  0  0  0  0
 28 10  1  0  0  0  0
 30 13  1  0  0  0  0
 31 14  1  0  0  0  0
 32 15  1  0  0  0  0
 35 17  1  0  0  0  0
 37 18  1  0  0  0  0
 39 19  1  0  0  0  0
 41 20  1  0  0  0  0
 43 21  1  0  0  0  0
 46 23  1  0  0  0  0
 49 26  1  0  0  0  0
 50 27  1  0  0  0  0
M  END
$$$$
