50
rmsd170.gzmat
N          0.00000        0.00000        0.00000
C          1.49390        0.00000        0.00000
H          1.89180        0.00000        1.04410
C          1.91690       -1.29300       -0.75190
H          2.68770       -1.05500       -1.52230
C          0.60960       -1.76750       -1.41890
H          0.26890       -2.77840       -1.09060
O         -0.42630       -0.84610       -1.03370
N          0.72440       -1.76810       -2.89070
O         -0.49630       -2.33680       -3.35080
C          0.82040       -0.45110       -3.48190
C          2.06820       -0.10660       -4.01400
C          2.23810        1.15150       -4.58560
C          1.17210        2.04860       -4.63810
C         -0.07400        1.68830       -4.12640
C         -0.25800        0.43550       -3.54760
C          2.47690       -2.34640        0.20810
C          3.04310       -3.54030       -0.55820
C          1.94620        1.28360       -0.71270
C          3.45680        1.49220       -0.58230
C          3.89380        2.70670       -1.40200
C         -0.58730       -0.41280        1.24320
C         -0.30880        0.36250        2.37970
C         -0.94230        0.06750        3.58190
C         -1.84770       -0.99000        3.66200
C         -2.12900       -1.75010        2.52790
C         -1.50700       -1.46560        1.31620
H         -0.18000       -2.99650       -4.03180
H          2.89240       -0.81660       -3.97870
H          3.20600        1.43200       -4.99530
H          1.31260        3.03170       -5.08190
H         -0.90620        2.38950       -4.17080
H         -1.22530        0.14810       -3.12970
H          3.27310       -1.89610        0.83370
H          1.69460       -2.68090        0.91750
H          3.85750       -3.23890       -1.22690
H          2.27980       -4.02330       -1.18030
H          3.44020       -4.29870        0.12460
H          1.64360        1.25880       -1.77900
H          1.39880        2.15110       -0.29070
H          4.00480        0.59340       -0.92390
H          3.73340        1.63090        0.48000
H          3.74250        2.53820       -2.47520
H          4.95320        2.93460       -1.24660
H          3.32070        3.60010       -1.12940
H          0.37940        1.20200        2.31480
H         -0.73220        0.66980        4.46440
H         -2.33740       -1.21660        4.60480
H         -2.84280       -2.57050        2.58760
H         -1.74380       -2.04960        0.42790
