rmsd37.gzmat
 OpenBabel08211713393D

 50 52  0  0  1  0  0  0  0  0999 V2000
    0.0000    0.0000    0.0000 N   0  0  0  0  0  0  0  0  0  0  0  0
    1.4942    0.0000    0.0000 C   0  0  1  0  0  0  0  0  0  0  0  0
    1.8920    0.0000    1.0440 H   0  0  0  0  0  0  0  0  0  0  0  0
    1.9173   -1.2939   -0.7516 C   0  0  2  0  0  0  0  0  0  0  0  0
    2.6815   -1.0543   -1.5275 H   0  0  0  0  0  0  0  0  0  0  0  0
    0.6072   -1.7761   -1.4079 C   0  0  1  0  0  0  0  0  0  0  0  0
    0.2697   -2.7836   -1.0659 H   0  0  0  0  0  0  0  0  0  0  0  0
   -0.4269   -0.8500   -1.0297 O   0  0  0  0  0  0  0  0  0  0  0  0
    0.7088   -1.7937   -2.8806 N   0  0  0  0  0  0  0  0  0  0  0  0
   -0.5323   -2.3313   -3.3234 O   0  0  0  0  0  0  0  0  0  0  0  0
    0.8353   -0.4842   -3.4822 C   0  0  0  0  0  0  0  0  0  0  0  0
    2.0890   -0.1779   -4.0233 C   0  0  0  0  0  0  0  0  0  0  0  0
    2.2908    1.0721   -4.6022 C   0  0  0  0  0  0  0  0  0  0  0  0
    1.2501    1.9981   -4.6537 C   0  0  0  0  0  0  0  0  0  0  0  0
   -0.0031    1.6753   -4.1349 C   0  0  0  0  0  0  0  0  0  0  0  0
   -0.2188    0.4311   -3.5484 C   0  0  0  0  0  0  0  0  0  0  0  0
    2.4889   -2.3420    0.2074 C   0  0  0  0  0  0  0  0  0  0  0  0
    3.0480   -3.5414   -0.5558 C   0  0  0  0  0  0  0  0  0  0  0  0
    1.9450    1.2836   -0.7144 C   0  0  0  0  0  0  0  0  0  0  0  0
    3.4520    1.5073   -0.5671 C   0  0  0  0  0  0  0  0  0  0  0  0
    3.8826    2.7420   -1.3595 C   0  0  0  0  0  0  0  0  0  0  0  0
   -0.5870   -0.4076    1.2448 C   0  0  0  0  0  0  0  0  0  0  0  0
   -0.3191    0.3824    2.3737 C   0  0  0  0  0  0  0  0  0  0  0  0
   -0.9516    0.0920    3.5773 C   0  0  0  0  0  0  0  0  0  0  0  0
   -1.8422   -0.9770    3.6669 C   0  0  0  0  0  0  0  0  0  0  0  0
   -2.1153   -1.7498    2.5396 C   0  0  0  0  0  0  0  0  0  0  0  0
   -1.4962   -1.4688    1.3256 C   0  0  0  0  0  0  0  0  0  0  0  0
   -0.2424   -3.0015   -4.0057 H   0  0  0  0  0  0  0  0  0  0  0  0
    2.8926   -0.9113   -3.9904 H   0  0  0  0  0  0  0  0  0  0  0  0
    3.2639    1.3231   -5.0184 H   0  0  0  0  0  0  0  0  0  0  0  0
    1.4151    2.9745   -5.1038 H   0  0  0  0  0  0  0  0  0  0  0  0
   -0.8148    2.3998   -4.1799 H   0  0  0  0  0  0  0  0  0  0  0  0
   -1.1913    0.1725   -3.1241 H   0  0  0  0  0  0  0  0  0  0  0  0
    3.2915   -1.8875    0.8218 H   0  0  0  0  0  0  0  0  0  0  0  0
    1.7145   -2.6738    0.9268 H   0  0  0  0  0  0  0  0  0  0  0  0
    3.8556   -3.2466   -1.2359 H   0  0  0  0  0  0  0  0  0  0  0  0
    2.2782   -4.0309   -1.1651 H   0  0  0  0  0  0  0  0  0  0  0  0
    3.4533   -4.2932    0.1300 H   0  0  0  0  0  0  0  0  0  0  0  0
    1.6557    1.2476   -1.7843 H   0  0  0  0  0  0  0  0  0  0  0  0
    1.3860    2.1496   -0.3051 H   0  0  0  0  0  0  0  0  0  0  0  0
    4.0117    0.6209   -0.9212 H   0  0  0  0  0  0  0  0  0  0  0  0
    3.7185    1.6313    0.4998 H   0  0  0  0  0  0  0  0  0  0  0  0
    3.6248    2.6463   -2.4212 H   0  0  0  0  0  0  0  0  0  0  0  0
    4.9637    2.9003   -1.2954 H   0  0  0  0  0  0  0  0  0  0  0  0
    3.3909    3.6471   -0.9860 H   0  0  0  0  0  0  0  0  0  0  0  0
    0.3605    1.2284    2.3008 H   0  0  0  0  0  0  0  0  0  0  0  0
   -0.7531    0.7061    4.4541 H   0  0  0  0  0  0  0  0  0  0  0  0
   -2.3280   -1.2006    4.6123 H   0  0  0  0  0  0  0  0  0  0  0  0
   -2.8205   -2.5768    2.6062 H   0  0  0  0  0  0  0  0  0  0  0  0
   -1.7280   -2.0603    0.4411 H   0  0  0  0  0  0  0  0  0  0  0  0
  1  2  1  0  0  0  0
  1 22  1  0  0  0  0
  2  4  1  0  0  0  0
  2  3  1  1  0  0  0
  4  6  1  0  0  0  0
  4 17  1  0  0  0  0
  4  5  1  6  0  0  0
  6  7  1  1  0  0  0
  6  8  1  0  0  0  0
  8  1  1  0  0  0  0
  9  6  1  0  0  0  0
 10  9  1  0  0  0  0
 11  9  1  0  0  0  0
 12 29  1  0  0  0  0
 12 11  2  0  0  0  0
 13 12  1  0  0  0  0
 14 13  2  0  0  0  0
 14 15  1  0  0  0  0
 15 16  2  0  0  0  0
 16 11  1  0  0  0  0
 16 33  1  0  0  0  0
 17 34  1  0  0  0  0
 17 35  1  0  0  0  0
 18 38  1  0  0  0  0
 18 17  1  0  0  0  0
 19 20  1  0  0  0  0
 19 40  1  0  0  0  0
 19  2  1  0  0  0  0
 20 42  1  0  0  0  0
 21 44  1  0  0  0  0
 21 45  1  0  0  0  0
 21 20  1  0  0  0  0
 22 27  2  0  0  0  0
 22 23  1  0  0  0  0
 23 24  2  0  0  0  0
 24 25  1  0  0  0  0
 24 47  1  0  0  0  0
 25 48  1  0  0  0  0
 26 49  1  0  0  0  0
 26 25  2  0  0  0  0
 27 26  1  0  0  0  0
 28 10  1  0  0  0  0
 30 13  1  0  0  0  0
 31 14  1  0  0  0  0
 32 15  1  0  0  0  0
 36 18  1  0  0  0  0
 37 18  1  0  0  0  0
 39 19  1  0  0  0  0
 41 20  1  0  0  0  0
 43 21  1  0  0  0  0
 46 23  1  0  0  0  0
 50 27  1  0  0  0  0
M  END
$$$$
