
     RDKit          3D

 50 52  0  0  0  0  0  0  0  0999 V2000
   -0.0650    0.1377    0.2359 N   0  0  0  0  0  0  0  0  0  0  0  0
    1.3938    0.2509    0.0923 C   0  0  1  0  0  0  0  0  0  0  0  0
    1.8333    0.2988    1.0952 H   0  0  0  0  0  0  0  0  0  0  0  0
    1.7877   -1.0726   -0.6141 C   0  0  2  0  0  0  0  0  0  0  0  0
    2.5466   -0.8772   -1.3815 H   0  0  0  0  0  0  0  0  0  0  0  0
    0.4681   -1.5065   -1.2893 C   0  0  1  0  0  0  0  0  0  0  0  0
    0.1082   -2.4647   -0.8842 H   0  0  0  0  0  0  0  0  0  0  0  0
   -0.4950   -0.4758   -0.9558 O   0  0  0  0  0  0  0  0  0  0  0  0
    0.5480   -1.6896   -2.7139 N   0  0  0  0  0  0  0  0  0  0  0  0
   -0.6933   -2.2523   -3.1450 O   0  0  0  0  0  0  0  0  0  0  0  0
    0.8576   -0.5233   -3.4921 C   0  0  0  0  0  0  0  0  0  0  0  0
   -0.1209    0.4258   -3.8217 C   0  0  0  0  0  0  0  0  0  0  0  0
    0.2388    1.5698   -4.5326 C   0  0  0  0  0  0  0  0  0  0  0  0
    1.5702    1.7799   -4.9131 C   0  0  0  0  0  0  0  0  0  0  0  0
    2.5398    0.8250   -4.6006 C   0  0  0  0  0  0  0  0  0  0  0  0
    2.1806   -0.3329   -3.9044 C   0  0  0  0  0  0  0  0  0  0  0  0
    2.3124   -2.1633    0.3274 C   0  0  0  0  0  0  0  0  0  0  0  0
    3.6731   -1.8523    0.9447 C   0  0  0  0  0  0  0  0  0  0  0  0
    1.7476    1.5207   -0.6906 C   0  0  0  0  0  0  0  0  0  0  0  0
    3.2457    1.7846   -0.8624 C   0  0  0  0  0  0  0  0  0  0  0  0
    3.9890    2.0889    0.4392 C   0  0  0  0  0  0  0  0  0  0  0  0
   -0.6087   -0.4566    1.3937 C   0  0  0  0  0  0  0  0  0  0  0  0
   -1.6650   -1.3813    1.3077 C   0  0  0  0  0  0  0  0  0  0  0  0
   -2.2162   -1.9254    2.4685 C   0  0  0  0  0  0  0  0  0  0  0  0
   -1.7407   -1.5612    3.7309 C   0  0  0  0  0  0  0  0  0  0  0  0
   -0.7059   -0.6248    3.8173 C   0  0  0  0  0  0  0  0  0  0  0  0
   -0.1468   -0.0693    2.6671 C   0  0  0  0  0  0  0  0  0  0  0  0
   -0.4129   -2.9889   -3.7066 H   0  0  0  0  0  0  0  0  0  0  0  0
   -1.1477    0.2556   -3.5018 H   0  0  0  0  0  0  0  0  0  0  0  0
   -0.5229    2.3128   -4.7811 H   0  0  0  0  0  0  0  0  0  0  0  0
    1.8471    2.6837   -5.4609 H   0  0  0  0  0  0  0  0  0  0  0  0
    3.5773    0.9733   -4.9090 H   0  0  0  0  0  0  0  0  0  0  0  0
    2.9206   -1.1010   -3.6727 H   0  0  0  0  0  0  0  0  0  0  0  0
    1.5691   -2.3420    1.1231 H   0  0  0  0  0  0  0  0  0  0  0  0
    2.3798   -3.1035   -0.2472 H   0  0  0  0  0  0  0  0  0  0  0  0
    3.6323   -0.9670    1.5985 H   0  0  0  0  0  0  0  0  0  0  0  0
    4.4302   -1.6538    0.1678 H   0  0  0  0  0  0  0  0  0  0  0  0
    4.0329   -2.6931    1.5576 H   0  0  0  0  0  0  0  0  0  0  0  0
    1.2667    1.4674   -1.6773 H   0  0  0  0  0  0  0  0  0  0  0  0
    1.2797    2.3700   -0.1650 H   0  0  0  0  0  0  0  0  0  0  0  0
    3.3637    2.6345   -1.5552 H   0  0  0  0  0  0  0  0  0  0  0  0
    3.7214    0.9290   -1.3725 H   0  0  0  0  0  0  0  0  0  0  0  0
    3.5349    2.9460    0.9637 H   0  0  0  0  0  0  0  0  0  0  0  0
    5.0455    2.3358    0.2495 H   0  0  0  0  0  0  0  0  0  0  0  0
    3.9768    1.2337    1.1329 H   0  0  0  0  0  0  0  0  0  0  0  0
   -2.0447   -1.6568    0.3251 H   0  0  0  0  0  0  0  0  0  0  0  0
   -3.0325   -2.6471    2.3798 H   0  0  0  0  0  0  0  0  0  0  0  0
   -2.1760   -1.9918    4.6350 H   0  0  0  0  0  0  0  0  0  0  0  0
   -0.3296   -0.3131    4.7950 H   0  0  0  0  0  0  0  0  0  0  0  0
    0.6392    0.6818    2.7588 H   0  0  0  0  0  0  0  0  0  0  0  0
  1  2  1  0
  1  8  1  0
  1 22  1  0
  2  3  1  1
  2  4  1  0
  2 19  1  0
  4  5  1  6
  4  6  1  0
  4 17  1  0
  6  7  1  1
  6  8  1  0
  6  9  1  0
  9 10  1  0
  9 11  1  0
 10 28  1  0
 11 12  2  0
 11 16  1  0
 12 13  1  0
 12 29  1  0
 13 14  2  0
 13 30  1  0
 14 15  1  0
 14 31  1  0
 15 16  2  0
 15 32  1  0
 16 33  1  0
 17 18  1  0
 17 34  1  0
 17 35  1  0
 18 36  1  0
 18 37  1  0
 18 38  1  0
 19 20  1  0
 19 39  1  0
 19 40  1  0
 20 21  1  0
 20 41  1  0
 20 42  1  0
 21 43  1  0
 21 44  1  0
 21 45  1  0
 22 23  2  0
 22 27  1  0
 23 24  1  0
 23 46  1  0
 24 25  2  0
 24 47  1  0
 25 26  1  0
 25 48  1  0
 26 27  2  0
 26 49  1  0
 27 50  1  0
M  END

