50
rmsd111.gzmat
N          0.00000        0.00000        0.00000
C          1.49410        0.00000        0.00000
H          1.89290        0.00000        1.04340
C          1.91460       -1.29580       -0.74970
H          2.68680       -1.06200       -1.51950
C          0.60540       -1.76480       -1.41930
H          0.24850       -2.76460       -1.07620
O         -0.41780       -0.81700       -1.05980
N          0.72790       -1.79290       -2.88980
O         -0.50970       -2.32740       -3.34540
C          0.86580       -0.48740       -3.49840
C         -0.18790        0.42740       -3.58120
C          0.03330        1.66770       -4.17310
C          1.29160        1.98780       -4.68090
C          2.33190        1.06160       -4.61380
C          2.12440       -0.18480       -4.02910
C          2.46200       -2.36460        0.20060
C          3.85350       -1.99210        0.71040
C          1.94460        1.28100       -0.71860
C          3.46060        1.47260       -0.62730
C          3.89780        2.64570       -1.50420
C         -0.59580       -0.44650        1.22680
C         -0.29740        0.26750        2.39750
C         -0.93680       -0.06770        3.58610
C         -1.87040       -1.10230        3.61890
C         -2.17800       -1.79600        2.44960
C         -1.54880       -1.47260        1.25180
H         -0.21430       -3.00570       -4.01680
H         -1.16520        0.17050       -3.16710
H         -0.77910        2.39030       -4.23040
H          1.46220        2.96210       -5.13350
H          3.30890        1.31010       -5.02270
H          2.92680       -0.91880       -3.98440
H          1.77090       -2.51570        1.05310
H          2.51040       -3.34000       -0.32510
H          3.85100       -1.03200        1.23910
H          4.57500       -1.91320       -0.11120
H          4.23530       -2.74650        1.40800
H          1.61390        1.26000       -1.77710
H          1.41870        2.15360       -0.28110
H          3.98880        0.55290       -0.94470
H          3.76190        1.64840        0.42230
H          3.66640        2.45970       -2.56080
H          4.97490        2.82360       -1.42610
H          3.38610        3.57120       -1.21770
H          0.41120        1.09180        2.37150
H         -0.70770        0.48450        4.49600
H         -2.36350       -1.36120        4.55170
H         -2.91810       -2.59440        2.47130
H         -1.80550       -2.00430        0.33650
