50
rmsd114.gzmat
N          0.00000        0.00000        0.00000
C          1.49360        0.00000        0.00000
H          1.89320        0.00000        1.04360
C          1.91700       -1.29630       -0.74510
H          2.68530       -1.06210       -1.51870
C          0.60770       -1.77740       -1.40500
H          0.26650       -2.78380       -1.06550
O         -0.42670       -0.85080       -1.03030
N          0.72210       -1.79470       -2.87730
O         -0.50160       -2.36150       -3.33110
C          0.82160       -0.48150       -3.47620
C          2.07920       -0.12720       -3.97770
C          2.25260        1.13260       -4.54460
C          1.18080        2.02070       -4.62340
C         -0.07550        1.64960       -4.14590
C         -0.26400        0.39500       -3.57270
C          2.47170       -2.36070        0.20620
C          3.85530       -1.97450        0.72580
C          1.94080        1.28460       -0.71470
C          3.45060        1.50080       -0.58680
C          3.88870        2.68970       -1.44220
C         -0.59390       -0.39800        1.24340
C         -0.28130        0.35530        2.38570
C         -0.92110        0.07530        3.58810
C         -1.86690       -0.94590        3.66320
C         -2.18560       -1.68110        2.52260
C         -1.55750       -1.41180        1.31080
H         -0.18730       -3.05570       -3.97800
H          2.90830       -0.82990       -3.92160
H          3.22850        1.42170       -4.92890
H          1.32500        3.00570       -5.06200
H         -0.91130        2.34450       -4.21120
H         -1.23890        0.09720       -3.18100
H          1.77750       -2.52170        1.05440
H          2.53500       -3.33400       -0.32230
H          3.83330       -1.03150        1.28430
H          4.57390       -1.85520       -0.09380
H          4.25230       -2.74240        1.40030
H          1.63530        1.25540       -1.78020
H          1.39140        2.15100       -0.29350
H          4.00030        0.59250       -0.89930
H          3.72350        1.67190        0.47160
H          3.65370        2.52500       -2.50120
H          4.96660        2.86300       -1.36500
H          3.38190        3.61160       -1.13570
H          0.43890        1.16740        2.32640
H         -0.68290        0.66030        4.47490
H         -2.35870       -1.16310        4.60690
H         -2.93370       -2.47040        2.57800
H         -1.82180       -1.97580        0.41740
