rmsd114.gzmat
 OpenBabel08211713393D

 50 52  0  0  1  0  0  0  0  0999 V2000
    0.0000    0.0000    0.0000 N   0  0  0  0  0  0  0  0  0  0  0  0
    1.4936    0.0000    0.0000 C   0  0  1  0  0  0  0  0  0  0  0  0
    1.8932    0.0000    1.0436 H   0  0  0  0  0  0  0  0  0  0  0  0
    1.9170   -1.2963   -0.7451 C   0  0  2  0  0  0  0  0  0  0  0  0
    2.6853   -1.0621   -1.5187 H   0  0  0  0  0  0  0  0  0  0  0  0
    0.6077   -1.7774   -1.4050 C   0  0  1  0  0  0  0  0  0  0  0  0
    0.2665   -2.7838   -1.0655 H   0  0  0  0  0  0  0  0  0  0  0  0
   -0.4267   -0.8508   -1.0303 O   0  0  0  0  0  0  0  0  0  0  0  0
    0.7221   -1.7947   -2.8773 N   0  0  0  0  0  0  0  0  0  0  0  0
   -0.5016   -2.3615   -3.3311 O   0  0  0  0  0  0  0  0  0  0  0  0
    0.8216   -0.4815   -3.4762 C   0  0  0  0  0  0  0  0  0  0  0  0
    2.0792   -0.1272   -3.9777 C   0  0  0  0  0  0  0  0  0  0  0  0
    2.2526    1.1326   -4.5446 C   0  0  0  0  0  0  0  0  0  0  0  0
    1.1808    2.0207   -4.6234 C   0  0  0  0  0  0  0  0  0  0  0  0
   -0.0755    1.6496   -4.1459 C   0  0  0  0  0  0  0  0  0  0  0  0
   -0.2640    0.3950   -3.5727 C   0  0  0  0  0  0  0  0  0  0  0  0
    2.4717   -2.3607    0.2062 C   0  0  0  0  0  0  0  0  0  0  0  0
    3.8553   -1.9745    0.7258 C   0  0  0  0  0  0  0  0  0  0  0  0
    1.9408    1.2846   -0.7147 C   0  0  0  0  0  0  0  0  0  0  0  0
    3.4506    1.5008   -0.5868 C   0  0  0  0  0  0  0  0  0  0  0  0
    3.8887    2.6897   -1.4422 C   0  0  0  0  0  0  0  0  0  0  0  0
   -0.5939   -0.3980    1.2434 C   0  0  0  0  0  0  0  0  0  0  0  0
   -0.2813    0.3553    2.3857 C   0  0  0  0  0  0  0  0  0  0  0  0
   -0.9211    0.0753    3.5881 C   0  0  0  0  0  0  0  0  0  0  0  0
   -1.8669   -0.9459    3.6632 C   0  0  0  0  0  0  0  0  0  0  0  0
   -2.1856   -1.6811    2.5226 C   0  0  0  0  0  0  0  0  0  0  0  0
   -1.5575   -1.4118    1.3108 C   0  0  0  0  0  0  0  0  0  0  0  0
   -0.1873   -3.0557   -3.9780 H   0  0  0  0  0  0  0  0  0  0  0  0
    2.9083   -0.8299   -3.9216 H   0  0  0  0  0  0  0  0  0  0  0  0
    3.2285    1.4217   -4.9289 H   0  0  0  0  0  0  0  0  0  0  0  0
    1.3250    3.0057   -5.0620 H   0  0  0  0  0  0  0  0  0  0  0  0
   -0.9113    2.3445   -4.2112 H   0  0  0  0  0  0  0  0  0  0  0  0
   -1.2389    0.0972   -3.1810 H   0  0  0  0  0  0  0  0  0  0  0  0
    1.7775   -2.5217    1.0544 H   0  0  0  0  0  0  0  0  0  0  0  0
    2.5350   -3.3340   -0.3223 H   0  0  0  0  0  0  0  0  0  0  0  0
    3.8333   -1.0315    1.2843 H   0  0  0  0  0  0  0  0  0  0  0  0
    4.5739   -1.8552   -0.0938 H   0  0  0  0  0  0  0  0  0  0  0  0
    4.2523   -2.7424    1.4003 H   0  0  0  0  0  0  0  0  0  0  0  0
    1.6353    1.2554   -1.7802 H   0  0  0  0  0  0  0  0  0  0  0  0
    1.3914    2.1510   -0.2935 H   0  0  0  0  0  0  0  0  0  0  0  0
    4.0003    0.5925   -0.8993 H   0  0  0  0  0  0  0  0  0  0  0  0
    3.7235    1.6719    0.4716 H   0  0  0  0  0  0  0  0  0  0  0  0
    3.6537    2.5250   -2.5012 H   0  0  0  0  0  0  0  0  0  0  0  0
    4.9666    2.8630   -1.3650 H   0  0  0  0  0  0  0  0  0  0  0  0
    3.3819    3.6116   -1.1357 H   0  0  0  0  0  0  0  0  0  0  0  0
    0.4389    1.1674    2.3264 H   0  0  0  0  0  0  0  0  0  0  0  0
   -0.6829    0.6603    4.4749 H   0  0  0  0  0  0  0  0  0  0  0  0
   -2.3587   -1.1631    4.6069 H   0  0  0  0  0  0  0  0  0  0  0  0
   -2.9337   -2.4704    2.5780 H   0  0  0  0  0  0  0  0  0  0  0  0
   -1.8218   -1.9758    0.4174 H   0  0  0  0  0  0  0  0  0  0  0  0
  1  2  1  0  0  0  0
  1 22  1  0  0  0  0
  2  4  1  0  0  0  0
  2  3  1  1  0  0  0
  4  6  1  0  0  0  0
  4 17  1  0  0  0  0
  4  5  1  6  0  0  0
  6  7  1  1  0  0  0
  6  8  1  0  0  0  0
  8  1  1  0  0  0  0
  9  6  1  0  0  0  0
 10  9  1  0  0  0  0
 11  9  1  0  0  0  0
 12 29  1  0  0  0  0
 12 11  2  0  0  0  0
 13 12  1  0  0  0  0
 14 13  2  0  0  0  0
 14 15  1  0  0  0  0
 15 16  2  0  0  0  0
 16 11  1  0  0  0  0
 16 33  1  0  0  0  0
 17 18  1  0  0  0  0
 17 34  1  0  0  0  0
 18 36  1  0  0  0  0
 18 38  1  0  0  0  0
 19 20  1  0  0  0  0
 19 40  1  0  0  0  0
 19  2  1  0  0  0  0
 20 42  1  0  0  0  0
 21 44  1  0  0  0  0
 21 45  1  0  0  0  0
 21 20  1  0  0  0  0
 22 27  2  0  0  0  0
 22 23  1  0  0  0  0
 23 24  2  0  0  0  0
 24 25  1  0  0  0  0
 24 47  1  0  0  0  0
 25 48  1  0  0  0  0
 26 49  1  0  0  0  0
 26 25  2  0  0  0  0
 27 26  1  0  0  0  0
 28 10  1  0  0  0  0
 30 13  1  0  0  0  0
 31 14  1  0  0  0  0
 32 15  1  0  0  0  0
 35 17  1  0  0  0  0
 37 18  1  0  0  0  0
 39 19  1  0  0  0  0
 41 20  1  0  0  0  0
 43 21  1  0  0  0  0
 46 23  1  0  0  0  0
 50 27  1  0  0  0  0
M  END
$$$$
