50
rmsd202.gzmat
N          0.00000        0.00000        0.00000
C          1.49470        0.00000        0.00000
H          1.89310        0.00000        1.04330
C          1.90960       -1.29860       -0.74880
H          2.69820       -1.07350       -1.50350
C          0.60270       -1.74610       -1.43970
H          0.22750       -2.74210       -1.10460
O         -0.41080       -0.78470       -1.08640
N          0.74460       -1.77240       -2.90730
O         -0.49440       -2.28420       -3.38440
C          0.91740       -0.47040       -3.51400
C          2.19160       -0.19530       -4.02230
C          2.43330        1.04230       -4.61200
C          1.41210        1.98700       -4.70550
C          0.13970        1.69690       -4.21530
C         -0.11610        0.46510       -3.61920
C          2.41940       -2.38210        0.20560
C          3.80160       -2.03550        0.75630
C          1.94660        1.28090       -0.71740
C          3.45950        1.48320       -0.60470
C          3.89950        2.66980       -1.46230
C         -0.58950       -0.49130        1.21350
C         -0.28980        0.18320        2.40700
C         -0.91600       -0.20140        3.58750
C         -1.83830       -1.24670        3.58980
C         -2.14790       -1.90040        2.39850
C         -1.53200       -1.52660        1.20850
H         -0.19890       -2.98400       -4.03430
H          2.97920       -0.94350       -3.95610
H          3.42190        1.26920       -5.00540
H          1.60750        2.95330       -5.16540
H         -0.65570        2.43650       -4.29030
H         -1.10490        0.23020       -3.21960
H          1.70430       -2.53070        1.03880
H          2.46780       -3.35350       -0.32770
H          3.79690       -1.08550        1.30250
H          4.54460       -1.95150       -0.04520
H          4.15500       -2.80720        1.45030
H          1.63250        1.25540       -1.78030
H          1.40870        2.15150       -0.29010
H          3.99750        0.57060       -0.92500
H          3.74570        1.64980        0.45060
H          3.68450        2.49460       -2.52410
H          4.97410        2.85470       -1.36740
H          3.37790        3.58890       -1.17210
H          0.41130        1.01430        2.40590
H         -0.68490        0.32040        4.51480
H         -2.32070       -1.54510        4.51630
H         -2.87950       -2.70710        2.39620
H         -1.79160       -2.02710        0.27670
