
     RDKit          3D

 50 52  0  0  0  0  0  0  0  0999 V2000
   -0.0183    0.1210    0.2054 N   0  0  0  0  0  0  0  0  0  0  0  0
    1.4423    0.1955    0.0559 C   0  0  1  0  0  0  0  0  0  0  0  0
    1.8919    0.2174    1.0570 H   0  0  0  0  0  0  0  0  0  0  0  0
    1.7983   -1.1278   -0.6706 C   0  0  2  0  0  0  0  0  0  0  0  0
    2.5466   -0.9377   -1.4492 H   0  0  0  0  0  0  0  0  0  0  0  0
    0.4627   -1.5280   -1.3313 C   0  0  1  0  0  0  0  0  0  0  0  0
    0.0822   -2.4788   -0.9269 H   0  0  0  0  0  0  0  0  0  0  0  0
   -0.4708   -0.4742   -0.9871 O   0  0  0  0  0  0  0  0  0  0  0  0
    0.5278   -1.7041   -2.7576 N   0  0  0  0  0  0  0  0  0  0  0  0
   -0.7336   -2.2235   -3.1847 O   0  0  0  0  0  0  0  0  0  0  0  0
    0.8698   -0.5430   -3.5306 C   0  0  0  0  0  0  0  0  0  0  0  0
   -0.0783    0.4418   -3.8443 C   0  0  0  0  0  0  0  0  0  0  0  0
    0.3120    1.5743   -4.5576 C   0  0  0  0  0  0  0  0  0  0  0  0
    1.6444    1.7377   -4.9568 C   0  0  0  0  0  0  0  0  0  0  0  0
    2.5841    0.7489   -4.6579 C   0  0  0  0  0  0  0  0  0  0  0  0
    2.1937   -0.3969   -3.9584 C   0  0  0  0  0  0  0  0  0  0  0  0
    2.3276   -2.2277    0.2561 C   0  0  0  0  0  0  0  0  0  0  0  0
    3.7216   -1.9413    0.8088 C   0  0  0  0  0  0  0  0  0  0  0  0
    1.8404    1.4643   -0.7007 C   0  0  0  0  0  0  0  0  0  0  0  0
    3.3490    1.6582   -0.8459 C   0  0  0  0  0  0  0  0  0  0  0  0
    3.7048    2.9386   -1.5996 C   0  0  0  0  0  0  0  0  0  0  0  0
   -0.5746   -0.4632    1.3626 C   0  0  0  0  0  0  0  0  0  0  0  0
   -1.6549   -1.3595    1.2757 C   0  0  0  0  0  0  0  0  0  0  0  0
   -2.2183   -1.8926    2.4358 C   0  0  0  0  0  0  0  0  0  0  0  0
   -1.7312   -1.5450    3.6984 C   0  0  0  0  0  0  0  0  0  0  0  0
   -0.6720   -0.6365    3.7858 C   0  0  0  0  0  0  0  0  0  0  0  0
   -0.1006   -0.0922    2.6363 C   0  0  0  0  0  0  0  0  0  0  0  0
   -0.4804   -2.9652   -3.7527 H   0  0  0  0  0  0  0  0  0  0  0  0
   -1.1064    0.3067   -3.5118 H   0  0  0  0  0  0  0  0  0  0  0  0
   -0.4262    2.3444   -4.7942 H   0  0  0  0  0  0  0  0  0  0  0  0
    1.9457    2.6321   -5.5070 H   0  0  0  0  0  0  0  0  0  0  0  0
    3.6222    0.8619   -4.9790 H   0  0  0  0  0  0  0  0  0  0  0  0
    2.9094   -1.1912   -3.7386 H   0  0  0  0  0  0  0  0  0  0  0  0
    1.6132   -2.3778    1.0837 H   0  0  0  0  0  0  0  0  0  0  0  0
    2.3474   -3.1753   -0.3099 H   0  0  0  0  0  0  0  0  0  0  0  0
    3.7411   -1.0185    1.4105 H   0  0  0  0  0  0  0  0  0  0  0  0
    4.4548   -1.8169   -0.0053 H   0  0  0  0  0  0  0  0  0  0  0  0
    4.0718   -2.7617    1.4542 H   0  0  0  0  0  0  0  0  0  0  0  0
    1.3675    1.4538   -1.6944 H   0  0  0  0  0  0  0  0  0  0  0  0
    1.4050    2.3223   -0.1618 H   0  0  0  0  0  0  0  0  0  0  0  0
    3.7876    0.7953   -1.3760 H   0  0  0  0  0  0  0  0  0  0  0  0
    3.8191    1.6681    0.1547 H   0  0  0  0  0  0  0  0  0  0  0  0
    3.2730    2.9247   -2.6131 H   0  0  0  0  0  0  0  0  0  0  0  0
    4.7949    3.0637   -1.6968 H   0  0  0  0  0  0  0  0  0  0  0  0
    3.3095    3.8286   -1.0827 H   0  0  0  0  0  0  0  0  0  0  0  0
   -2.0438   -1.6217    0.2930 H   0  0  0  0  0  0  0  0  0  0  0  0
   -3.0534   -2.5923    2.3463 H   0  0  0  0  0  0  0  0  0  0  0  0
   -2.1762   -1.9668    4.6020 H   0  0  0  0  0  0  0  0  0  0  0  0
   -0.2859   -0.3378    4.7638 H   0  0  0  0  0  0  0  0  0  0  0  0
    0.7049    0.6379    2.7288 H   0  0  0  0  0  0  0  0  0  0  0  0
  1  2  1  0
  1  8  1  0
  1 22  1  0
  2  3  1  1
  2  4  1  0
  2 19  1  0
  4  5  1  6
  4  6  1  0
  4 17  1  0
  6  7  1  1
  6  8  1  0
  6  9  1  0
  9 10  1  0
  9 11  1  0
 10 28  1  0
 11 12  2  0
 11 16  1  0
 12 13  1  0
 12 29  1  0
 13 14  2  0
 13 30  1  0
 14 15  1  0
 14 31  1  0
 15 16  2  0
 15 32  1  0
 16 33  1  0
 17 18  1  0
 17 34  1  0
 17 35  1  0
 18 36  1  0
 18 37  1  0
 18 38  1  0
 19 20  1  0
 19 39  1  0
 19 40  1  0
 20 21  1  0
 20 41  1  0
 20 42  1  0
 21 43  1  0
 21 44  1  0
 21 45  1  0
 22 23  2  0
 22 27  1  0
 23 24  1  0
 23 46  1  0
 24 25  2  0
 24 47  1  0
 25 26  1  0
 25 48  1  0
 26 27  2  0
 26 49  1  0
 27 50  1  0
M  END

