50
rmsd12.gzmat
N          0.00000        0.00000        0.00000
C          1.49410        0.00000        0.00000
H          1.89070        0.00000        1.04510
C          1.91640       -1.29770       -0.74320
H          2.68630       -1.06550       -1.51490
C          0.60660       -1.77790       -1.40410
H          0.26120       -2.78200       -1.06050
O         -0.42480       -0.84480       -1.03580
N          0.72580       -1.80300       -2.87470
O         -0.49310       -2.37920       -3.33010
C          0.82250       -0.49520       -3.48620
C         -0.25530        0.39100       -3.56680
C         -0.07090        1.63250       -4.16900
C          1.17380        1.98090       -4.69130
C          2.23970        1.08460       -4.62280
C          2.07030       -0.16140       -4.02580
C          2.46600       -2.36370        0.20950
C          3.85270       -1.98820        0.72910
C          1.94890        1.28410       -0.71240
C          3.45310        1.52560       -0.55870
C          3.81670        2.01060        0.84510
C         -0.59180       -0.41040        1.24100
C         -1.54660       -1.43310        1.30240
C         -2.17050       -1.71820        2.51300
C         -1.85730       -0.98800        3.65840
C         -0.92010        0.04170        3.58990
C         -0.28440        0.33710        2.38880
H         -0.17320       -3.06130       -3.98740
H         -1.22210        0.11210       -3.14300
H         -0.90130        2.33480       -4.22330
H          1.31320        2.95480       -5.15580
H          3.20670        1.35700       -5.04030
H          2.89310       -0.87200       -3.97800
H          1.77050       -2.51920        1.05800
H          2.52280       -3.33800       -0.31800
H          3.84320       -1.03020        1.26270
H          4.57900       -1.90230       -0.08740
H          4.23130       -2.74490        1.42620
H          1.67080        1.24310       -1.78520
H          1.37730        2.14650       -0.31210
H          3.77710        2.27730       -1.30580
H          4.01930        0.60640       -0.80120
H          3.27900        2.93130        1.10020
H          4.88840        2.22160        0.92560
H          3.57190        1.26600        1.60990
H         -1.80850       -1.99180        0.40520
H         -2.91080       -2.51540        2.56350
H         -2.34760       -1.21530        4.60070
H         -0.68560        0.62240        4.48060
H          0.42930        1.15560        2.33530
