50

N         -0.06500        0.13770        0.23590
C          1.39380        0.25090        0.09230
H          1.83330        0.29880        1.09520
C          1.78770       -1.07260       -0.61410
H          2.54660       -0.87720       -1.38150
C          0.46810       -1.50650       -1.28930
H          0.10820       -2.46470       -0.88420
O         -0.49500       -0.47580       -0.95580
N          0.54800       -1.68960       -2.71390
O         -0.69330       -2.25230       -3.14500
C          0.85760       -0.52330       -3.49210
C         -0.12090        0.42580       -3.82170
C          0.23880        1.56980       -4.53260
C          1.57020        1.77990       -4.91310
C          2.53980        0.82500       -4.60060
C          2.18060       -0.33290       -3.90440
C          2.31240       -2.16330        0.32740
C          3.67310       -1.85230        0.94470
C          1.74760        1.52070       -0.69060
C          3.24570        1.78460       -0.86240
C          3.98900        2.08890        0.43920
C         -0.60870       -0.45660        1.39370
C         -1.66500       -1.38130        1.30770
C         -2.21620       -1.92540        2.46850
C         -1.74070       -1.56120        3.73090
C         -0.70590       -0.62480        3.81730
C         -0.14680       -0.06930        2.66710
H         -0.41290       -2.98890       -3.70660
H         -1.14770        0.25560       -3.50180
H         -0.52290        2.31280       -4.78110
H          1.84710        2.68370       -5.46090
H          3.57730        0.97330       -4.90900
H          2.92060       -1.10100       -3.67270
H          1.56910       -2.34200        1.12310
H          2.37980       -3.10350       -0.24720
H          3.63230       -0.96700        1.59850
H          4.43020       -1.65380        0.16780
H          4.03290       -2.69310        1.55760
H          1.26670        1.46740       -1.67730
H          1.27970        2.37000       -0.16500
H          3.36370        2.63450       -1.55520
H          3.72140        0.92900       -1.37250
H          3.53490        2.94600        0.96370
H          5.04550        2.33580        0.24950
H          3.97680        1.23370        1.13290
H         -2.04470       -1.65680        0.32510
H         -3.03250       -2.64710        2.37980
H         -2.17600       -1.99180        4.63500
H         -0.32960       -0.31310        4.79500
H          0.63920        0.68180        2.75880
