24
rmsd127.gzmat
C          0.00000        0.00000        0.00000
C          1.42810        0.00000        0.00000
C          2.12110        0.00000        1.18690
C          1.43450       -0.01130        2.42470
C          0.06500       -0.02340        2.45260
C         -0.67820       -0.01710        1.24010
C         -2.10060       -0.02130        1.26410
C         -2.81570       -0.00270        0.09560
C         -2.13990        0.02380       -1.14930
C         -0.76990        0.02590       -1.19620
C          2.19110       -0.00250       -1.29120
C          2.23740        1.39130       -1.84390
O          2.80580        2.35860       -1.41890
O          1.51610        1.45670       -2.99640
H          3.21080        0.01810        1.19800
H          2.01410       -0.00810        3.34660
H         -0.47580       -0.03410        3.39740
H         -2.60600       -0.03700        2.22830
H         -3.90400       -0.00450        0.10460
H         -2.72780        0.04560       -2.06560
H         -0.25660        0.05970       -2.15890
H          1.73690       -0.71170       -2.02280
H          3.23400       -0.36930       -1.14600
H          1.48290        2.35950       -3.39620
