
     RDKit          3D

 24 25  0  0  0  0  0  0  0  0999 V2000
    0.0013   -0.0173    0.0275 C   0  0  0  0  0  0  0  0  0  0  0  0
    1.4348   -0.0048    0.0211 C   0  0  0  0  0  0  0  0  0  0  0  0
    2.1196    0.0415    1.2195 C   0  0  0  0  0  0  0  0  0  0  0  0
    1.4379    0.0885    2.4595 C   0  0  0  0  0  0  0  0  0  0  0  0
    0.0625    0.0885    2.4921 C   0  0  0  0  0  0  0  0  0  0  0  0
   -0.6887    0.0357    1.2858 C   0  0  0  0  0  0  0  0  0  0  0  0
   -2.1103    0.0292    1.2971 C   0  0  0  0  0  0  0  0  0  0  0  0
   -2.8304   -0.0320    0.1236 C   0  0  0  0  0  0  0  0  0  0  0  0
   -2.1531   -0.0914   -1.1179 C   0  0  0  0  0  0  0  0  0  0  0  0
   -0.7741   -0.0838   -1.1649 C   0  0  0  0  0  0  0  0  0  0  0  0
    2.1926   -0.0592   -1.2847 C   0  0  0  0  0  0  0  0  0  0  0  0
    2.1336   -1.4322   -1.9347 C   0  0  0  0  0  0  0  0  0  0  0  0
    2.3787   -2.4725   -1.3829 O   0  0  0  0  0  0  0  0  0  0  0  0
    1.7772   -1.3618   -3.2365 O   0  0  0  0  0  0  0  0  0  0  0  0
    3.2123    0.0405    1.2105 H   0  0  0  0  0  0  0  0  0  0  0  0
    2.0125    0.1250    3.3879 H   0  0  0  0  0  0  0  0  0  0  0  0
   -0.4731    0.1262    3.4440 H   0  0  0  0  0  0  0  0  0  0  0  0
   -2.6245    0.0716    2.2608 H   0  0  0  0  0  0  0  0  0  0  0  0
   -3.9226   -0.0376    0.1477 H   0  0  0  0  0  0  0  0  0  0  0  0
   -2.7275   -0.1448   -2.0458 H   0  0  0  0  0  0  0  0  0  0  0  0
   -0.2758   -0.1423   -2.1332 H   0  0  0  0  0  0  0  0  0  0  0  0
    3.2577    0.1444   -1.0933 H   0  0  0  0  0  0  0  0  0  0  0  0
    1.8371    0.6970   -1.9982 H   0  0  0  0  0  0  0  0  0  0  0  0
    1.7707   -2.2754   -3.5726 H   0  0  0  0  0  0  0  0  0  0  0  0
  1  2  2  0
  1  6  1  0
  1 10  1  0
  2  3  1  0
  2 11  1  0
  3  4  2  0
  3 15  1  0
  4  5  1  0
  4 16  1  0
  5  6  2  0
  5 17  1  0
  6  7  1  0
  7  8  2  0
  7 18  1  0
  8  9  1  0
  8 19  1  0
  9 10  2  0
  9 20  1  0
 10 21  1  0
 11 12  1  0
 11 22  1  0
 11 23  1  0
 12 13  2  0
 12 14  1  0
 14 24  1  0
M  END

