24
rmsd14.gzmat
C          0.00000        0.00000        0.00000
C          1.42800        0.00000        0.00000
C          2.12040        0.00000        1.18730
C          1.43480        0.00400        2.42560
C          0.06540        0.01050        2.45310
C         -0.67770        0.00690        1.24040
C         -2.10020        0.00300        1.26630
C         -2.81620       -0.01390        0.09830
C         -2.14130       -0.02500       -1.14740
C         -0.77120       -0.01600       -1.19550
C          2.19380       -0.00020       -1.28930
C          2.19590       -1.38200       -1.87350
O          2.69610       -2.38570       -1.44660
O          1.53410       -1.38500       -3.06340
H          3.20980       -0.01290        1.19720
H          2.01500       -0.00190        3.34730
H         -0.47720        0.01450        3.39700
H         -2.60300        0.01130        2.23210
H         -3.90450       -0.02110        0.10860
H         -2.72880       -0.04280       -2.06420
H         -0.25950       -0.03110       -2.15930
H          3.25090        0.32120       -1.13430
H          1.77030        0.74250       -2.00540
H          1.49720       -2.27320       -3.49560
