24
rmsd111.gzmat
C          0.00000        0.00000        0.00000
C          1.42800        0.00000        0.00000
C          2.12120        0.00000        1.18680
C          1.43480       -0.01210        2.42470
C          0.06540       -0.02590        2.45280
C         -0.67800       -0.01910        1.24030
C         -2.10050       -0.02520        1.26400
C         -2.81600       -0.00610        0.09560
C         -2.14070        0.02220       -1.14940
C         -0.77060        0.02620       -1.19610
C          2.19220       -0.00220       -1.29060
C          2.27240        1.39940       -1.81990
O          2.92660        2.32260       -1.41940
O          1.47220        1.53130       -2.91210
H          3.21110        0.01810        1.19710
H          2.01490       -0.00880        3.34620
H         -0.47520       -0.03870        3.39790
H         -2.60620       -0.04350        2.22790
H         -3.90430       -0.00890        0.10550
H         -2.72810        0.04380       -2.06620
H         -0.25840        0.06280       -2.15920
H          1.72330       -0.68910       -2.03330
H          3.22610       -0.39460       -1.14880
H          1.46180        2.44390       -3.29190
