rmsd127.gzmat
 OpenBabel08211713373D

 24 25  0  0  0  0  0  0  0  0999 V2000
    0.0000    0.0000    0.0000 C   0  0  0  0  0  0  0  0  0  0  0  0
    1.4281    0.0000    0.0000 C   0  0  0  0  0  0  0  0  0  0  0  0
    2.1211    0.0000    1.1869 C   0  0  0  0  0  0  0  0  0  0  0  0
    1.4345   -0.0113    2.4247 C   0  0  0  0  0  0  0  0  0  0  0  0
    0.0650   -0.0234    2.4526 C   0  0  0  0  0  0  0  0  0  0  0  0
   -0.6782   -0.0171    1.2401 C   0  0  0  0  0  0  0  0  0  0  0  0
   -2.1006   -0.0213    1.2641 C   0  0  0  0  0  0  0  0  0  0  0  0
   -2.8157   -0.0027    0.0956 C   0  0  0  0  0  0  0  0  0  0  0  0
   -2.1399    0.0238   -1.1493 C   0  0  0  0  0  0  0  0  0  0  0  0
   -0.7699    0.0259   -1.1962 C   0  0  0  0  0  0  0  0  0  0  0  0
    2.1911   -0.0025   -1.2912 C   0  0  0  0  0  0  0  0  0  0  0  0
    2.2374    1.3913   -1.8439 C   0  0  0  0  0  0  0  0  0  0  0  0
    2.8058    2.3586   -1.4189 O   0  0  0  0  0  0  0  0  0  0  0  0
    1.5161    1.4567   -2.9964 O   0  0  0  0  0  0  0  0  0  0  0  0
    3.2108    0.0181    1.1980 H   0  0  0  0  0  0  0  0  0  0  0  0
    2.0141   -0.0081    3.3466 H   0  0  0  0  0  0  0  0  0  0  0  0
   -0.4758   -0.0341    3.3974 H   0  0  0  0  0  0  0  0  0  0  0  0
   -2.6060   -0.0370    2.2283 H   0  0  0  0  0  0  0  0  0  0  0  0
   -3.9040   -0.0045    0.1046 H   0  0  0  0  0  0  0  0  0  0  0  0
   -2.7278    0.0456   -2.0656 H   0  0  0  0  0  0  0  0  0  0  0  0
   -0.2566    0.0597   -2.1589 H   0  0  0  0  0  0  0  0  0  0  0  0
    1.7369   -0.7117   -2.0228 H   0  0  0  0  0  0  0  0  0  0  0  0
    3.2340   -0.3693   -1.1460 H   0  0  0  0  0  0  0  0  0  0  0  0
    1.4829    2.3595   -3.3962 H   0  0  0  0  0  0  0  0  0  0  0  0
  1  6  1  0  0  0  0
  2  1  2  0  0  0  0
  2  3  1  0  0  0  0
  3 15  1  0  0  0  0
  3  4  2  0  0  0  0
  4  5  1  0  0  0  0
  4 16  1  0  0  0  0
  5 17  1  0  0  0  0
  6  7  1  0  0  0  0
  6  5  2  0  0  0  0
  7 18  1  0  0  0  0
  8 19  1  0  0  0  0
  8  7  2  0  0  0  0
  9  8  1  0  0  0  0
 10  9  2  0  0  0  0
 10  1  1  0  0  0  0
 11 23  1  0  0  0  0
 11  2  1  0  0  0  0
 12 13  2  0  0  0  0
 12 11  1  0  0  0  0
 14 12  1  0  0  0  0
 20  9  1  0  0  0  0
 21 10  1  0  0  0  0
 22 11  1  0  0  0  0
 24 14  1  0  0  0  0
M  END
$$$$
