24
rmsd117.gzmat
C          0.00000        0.00000        0.00000
C          1.42790        0.00000        0.00000
C          2.12090        0.00000        1.18690
C          1.43450       -0.01080        2.42470
C          0.06520       -0.02520        2.45290
C         -0.67790       -0.01990        1.24020
C         -2.10040       -0.02830        1.26410
C         -2.81620       -0.00790        0.09590
C         -2.14060        0.02510       -1.14900
C         -0.77060        0.02900       -1.19570
C          2.19280       -0.00070       -1.29020
C          2.27730        1.40210       -1.81530
O          2.94500        2.31740       -1.41920
O          1.46520        1.54730       -2.89700
H          3.21080        0.01760        1.19800
H          2.01390       -0.00540        3.34660
H         -0.47520       -0.03620        3.39800
H         -2.60530       -0.04910        2.22850
H         -3.90460       -0.01370        0.10570
H         -2.72750        0.05040       -2.06580
H         -0.25760        0.06820       -2.15830
H          1.72440       -0.68480       -2.03530
H          3.22610       -0.39470       -1.14710
H          1.46180        2.46160       -3.27230
