
     RDKit          3D

 24 25  0  0  0  0  0  0  0  0999 V2000
    0.0025    0.0142    0.0291 C   0  0  0  0  0  0  0  0  0  0  0  0
    1.4360    0.0026    0.0227 C   0  0  0  0  0  0  0  0  0  0  0  0
    2.1208   -0.0435    1.2211 C   0  0  0  0  0  0  0  0  0  0  0  0
    1.4391   -0.0912    2.4611 C   0  0  0  0  0  0  0  0  0  0  0  0
    0.0637   -0.0921    2.4937 C   0  0  0  0  0  0  0  0  0  0  0  0
   -0.6876   -0.0396    1.2873 C   0  0  0  0  0  0  0  0  0  0  0  0
   -2.1091   -0.0340    1.2987 C   0  0  0  0  0  0  0  0  0  0  0  0
   -2.8293    0.0270    0.1251 C   0  0  0  0  0  0  0  0  0  0  0  0
   -2.1520    0.0871   -1.1163 C   0  0  0  0  0  0  0  0  0  0  0  0
   -0.7730    0.0804   -1.1633 C   0  0  0  0  0  0  0  0  0  0  0  0
    2.1937    0.0577   -1.2831 C   0  0  0  0  0  0  0  0  0  0  0  0
    2.1338    1.4308   -1.9328 C   0  0  0  0  0  0  0  0  0  0  0  0
    2.3783    2.4712   -1.3807 O   0  0  0  0  0  0  0  0  0  0  0  0
    1.7775    1.3605   -3.2347 O   0  0  0  0  0  0  0  0  0  0  0  0
    3.2135   -0.0418    1.2121 H   0  0  0  0  0  0  0  0  0  0  0  0
    2.0137   -0.1276    3.3895 H   0  0  0  0  0  0  0  0  0  0  0  0
   -0.4719   -0.1303    3.4456 H   0  0  0  0  0  0  0  0  0  0  0  0
   -2.6233   -0.0770    2.2623 H   0  0  0  0  0  0  0  0  0  0  0  0
   -3.9215    0.0318    0.1492 H   0  0  0  0  0  0  0  0  0  0  0  0
   -2.7264    0.1403   -2.0443 H   0  0  0  0  0  0  0  0  0  0  0  0
   -0.2746    0.1394   -2.1316 H   0  0  0  0  0  0  0  0  0  0  0  0
    1.8387   -0.6985   -1.9967 H   0  0  0  0  0  0  0  0  0  0  0  0
    3.2590   -0.1452   -1.0917 H   0  0  0  0  0  0  0  0  0  0  0  0
    1.7705    2.2741   -3.5706 H   0  0  0  0  0  0  0  0  0  0  0  0
  1  2  2  0
  1  6  1  0
  1 10  1  0
  2  3  1  0
  2 11  1  0
  3  4  2  0
  3 15  1  0
  4  5  1  0
  4 16  1  0
  5  6  2  0
  5 17  1  0
  6  7  1  0
  7  8  2  0
  7 18  1  0
  8  9  1  0
  8 19  1  0
  9 10  2  0
  9 20  1  0
 10 21  1  0
 11 12  1  0
 11 22  1  0
 11 23  1  0
 12 13  2  0
 12 14  1  0
 14 24  1  0
M  END

