24
rmsd108.gzmat
C          0.00000        0.00000        0.00000
C          1.42790        0.00000        0.00000
C          2.12080        0.00000        1.18710
C          1.43400        0.01340        2.42460
C          0.06440        0.02840        2.45260
C         -0.67860        0.01970        1.23990
C         -2.10120        0.02140        1.26270
C         -2.81570       -0.00480        0.09400
C         -2.13910       -0.03360       -1.15010
C         -0.76930       -0.03040       -1.19590
C          2.19180       -0.00140       -1.29070
C          2.26160       -1.40270       -1.82210
O          2.89470       -2.33650       -1.41240
O          1.47960       -1.51980       -2.92930
H          3.21060       -0.01960        1.19790
H          2.01360        0.00950        3.34660
H         -0.47560        0.04290        3.39790
H         -2.60780        0.04010        2.22610
H         -3.90400       -0.00720        0.10260
H         -2.72490       -0.06160       -2.06710
H         -0.25650       -0.06530       -2.15870
H          3.22900        0.38090       -1.14770
H          1.72940        0.69030       -2.03280
H          1.46350       -2.43060       -3.31270
