24
rmsd116.gzmat
C          0.00000        0.00000        0.00000
C          1.42800        0.00000        0.00000
C          2.12050        0.00000        1.18700
C          1.43360       -0.02490        2.42450
C          0.06470       -0.05750        2.45230
C         -0.67820       -0.04460        1.23940
C         -2.10040       -0.06680        1.26250
C         -2.81520       -0.02780        0.09420
C         -2.13930        0.04030       -1.14910
C         -0.76930        0.05390       -1.19550
C          2.19010       -0.01260       -1.29120
C          2.28150        1.37980       -1.83980
O          2.81370        2.34860       -1.37340
O          1.66180        1.43960       -3.05070
H          3.20990        0.02630        1.19830
H          2.01200       -0.01850        3.34710
H         -0.47560       -0.08750        3.39700
H         -2.60560       -0.11260        2.22580
H         -3.90350       -0.04290        0.10250
H         -2.72600        0.08510       -2.06510
H         -0.25620        0.12120       -2.15640
H          1.71780       -0.70580       -2.02690
H          3.22250       -0.40940       -1.14840
H          1.68490        2.33580       -3.46640
