rmsd13.gzmat
 OpenBabel08211713373D

 24 25  0  0  0  0  0  0  0  0999 V2000
    0.0000    0.0000    0.0000 C   0  0  0  0  0  0  0  0  0  0  0  0
    1.4278    0.0000    0.0000 C   0  0  0  0  0  0  0  0  0  0  0  0
    2.1212    0.0000    1.1870 C   0  0  0  0  0  0  0  0  0  0  0  0
    1.4357   -0.0142    2.4252 C   0  0  0  0  0  0  0  0  0  0  0  0
    0.0664   -0.0348    2.4529 C   0  0  0  0  0  0  0  0  0  0  0  0
   -0.6773   -0.0314    1.2404 C   0  0  0  0  0  0  0  0  0  0  0  0
   -2.0996   -0.0562    1.2649 C   0  0  0  0  0  0  0  0  0  0  0  0
   -2.8163   -0.0388    0.0974 C   0  0  0  0  0  0  0  0  0  0  0  0
   -2.1418    0.0161   -1.1473 C   0  0  0  0  0  0  0  0  0  0  0  0
   -0.7720    0.0371   -1.1943 C   0  0  0  0  0  0  0  0  0  0  0  0
    2.1948   -0.0074   -1.2893 C   0  0  0  0  0  0  0  0  0  0  0  0
    2.3783    1.4044   -1.7623 C   0  0  0  0  0  0  0  0  0  0  0  0
    3.2003    2.2110   -1.4228 O   0  0  0  0  0  0  0  0  0  0  0  0
    1.4534    1.7064   -2.7116 O   0  0  0  0  0  0  0  0  0  0  0  0
    3.2113    0.0183    1.1965 H   0  0  0  0  0  0  0  0  0  0  0  0
    2.0147   -0.0098    3.3476 H   0  0  0  0  0  0  0  0  0  0  0  0
   -0.4747   -0.0510    3.3973 H   0  0  0  0  0  0  0  0  0  0  0  0
   -2.6040   -0.0887    2.2291 H   0  0  0  0  0  0  0  0  0  0  0  0
   -3.9045   -0.0614    0.1075 H   0  0  0  0  0  0  0  0  0  0  0  0
   -2.7297    0.0456   -2.0633 H   0  0  0  0  0  0  0  0  0  0  0  0
   -0.2611    0.1007   -2.1566 H   0  0  0  0  0  0  0  0  0  0  0  0
    1.6827   -0.6260   -2.0618 H   0  0  0  0  0  0  0  0  0  0  0  0
    3.1964   -0.4792   -1.1563 H   0  0  0  0  0  0  0  0  0  0  0  0
    1.5061    2.6388   -3.0366 H   0  0  0  0  0  0  0  0  0  0  0  0
  1  6  1  0  0  0  0
  2  1  2  0  0  0  0
  2  3  1  0  0  0  0
  3 15  1  0  0  0  0
  3  4  2  0  0  0  0
  4  5  1  0  0  0  0
  4 16  1  0  0  0  0
  5 17  1  0  0  0  0
  6  7  1  0  0  0  0
  6  5  2  0  0  0  0
  7 18  1  0  0  0  0
  8 19  1  0  0  0  0
  8  7  2  0  0  0  0
  9  8  1  0  0  0  0
 10  9  2  0  0  0  0
 10  1  1  0  0  0  0
 11 23  1  0  0  0  0
 11  2  1  0  0  0  0
 12 13  2  0  0  0  0
 12 11  1  0  0  0  0
 14 12  1  0  0  0  0
 20  9  1  0  0  0  0
 21 10  1  0  0  0  0
 22 11  1  0  0  0  0
 24 14  1  0  0  0  0
M  END
$$$$
