85
rmsd230.gzmat
C          0.00000        0.00000        0.00000
C          1.53100        0.00000        0.00000
C          2.05010        0.00000        1.41710
O          1.46890        0.48510        2.36110
N          3.31740       -0.55100        1.58030
C          3.99540       -0.45910        2.87180
H          3.22470       -0.33530        3.69100
C          4.86100       -1.71480        3.14330
C          5.77740       -1.46450        4.34280
C          3.94950       -2.91510        3.41230
C          4.88110        0.80740        2.90220
O          4.91670        1.50360        3.90310
N          5.63600        1.06730        1.78540
C          6.35960        2.32980        1.56920
H          6.81390        2.26130        0.53290
C          5.40780        3.53900        1.62110
C          4.33270        3.46230        0.58200
C          3.01510        3.76700        0.93870
C          1.99710        3.72400       -0.00910
C          2.31530        3.35380       -1.31530
C          3.62060        3.03680       -1.69300
C          4.62930        3.10820       -0.73810
O          1.33360        3.41560       -2.27650
C          0.77190        2.15040       -2.62080
C         -0.41530        1.85560       -1.69910
C         -0.56930        0.36300       -1.37770
C          7.52140        2.46420        2.59210
H          7.90750        1.45150        2.85510
O          7.08450        3.07230        3.78390
C          8.64440        3.39350        2.06570
N          9.90770        2.72450        1.73770
C         10.82140        2.52940        2.87420
C         10.34990        1.52660        3.94440
C         11.42230        1.35960        5.01770
S          9.86410        1.48620        0.50460
O          9.98800        0.19060        1.13740
O          8.69330        1.78480       -0.30540
C         11.30460        1.80340       -0.41600
C         11.27900        2.74620       -1.44740
C         12.42230        3.02110       -2.18010
C         13.62280        2.34100       -1.87600
C         13.64560        1.37610       -0.84320
C         12.48730        1.11580       -0.13000
N         14.76930        2.61810       -2.58520
H         -0.37590        0.71150        0.76810
H         -0.37600       -0.99130        0.31730
H          1.90920        0.92780       -0.49270
H          1.91630       -0.84530       -0.59630
H          3.79020       -1.03120        0.83680
H          5.49420       -1.92900        2.24800
H          5.22290       -1.06900        5.20400
H          6.56630       -0.73710        4.11000
H          6.27520       -2.38550        4.66380
H          3.35960       -2.77420        4.32650
H          4.53110       -3.83480        3.53760
H          3.24070       -3.07960        2.59300
H          5.52660        0.49650        0.96110
H          5.99290        4.47420        1.49520
H          4.96810        3.62210        2.64240
H          2.77720        4.03600        1.96920
H          0.97440        3.98080        0.25570
H          3.83950        2.76550       -2.72120
H          5.65860        2.89130       -1.02920
H          1.53960        1.36060       -2.60600
H          0.45600        2.32180       -3.66680
H         -1.34440        2.24540       -2.15490
H         -0.30190        2.44020       -0.76170
H         -1.64450        0.09460       -1.40000
H         -0.10220       -0.25980       -2.16160
H          6.24470        2.61960        4.07720
H          8.30690        3.95050        1.15980
H          8.83530        4.17570        2.84300
H         10.98250        3.52640        3.35050
H         11.81740        2.22330        2.48050
H         10.11960        0.54330        3.48350
H          9.40480        1.88090        4.40460
H         12.35530        0.96680        4.59930
H         11.09340        0.65740        5.79320
H         11.64920        2.30830        5.51540
H         10.34950        3.27650       -1.69410
H         12.39870        3.75200       -2.98010
H         14.56190        0.84310       -0.61650
H         12.51020        0.35200        0.65930
H         15.62240        2.14250       -2.39660
H         14.77270        3.28650       -3.32260
