rmsd205.gzmat
 OpenBabel08211713413D

 85 87  0  0  1  0  0  0  0  0999 V2000
    0.0000    0.0000    0.0000 C   0  0  0  0  0  0  0  0  0  0  0  0
    1.5295    0.0000    0.0000 C   0  0  0  0  0  0  0  0  0  0  0  0
    2.0616    0.0000    1.4134 C   0  0  0  0  0  0  0  0  0  0  0  0
    1.3858    0.0351    2.4155 O   0  0  0  0  0  0  0  0  0  0  0  0
    3.4501   -0.0385    1.4822 N   0  0  0  0  0  0  0  0  0  0  0  0
    4.1531    0.0963    2.7546 C   0  0  1  0  0  0  0  0  0  0  0  0
    3.3998    0.1746    3.5952 H   0  0  0  0  0  0  0  0  0  0  0  0
    5.0898   -1.1140    3.0060 C   0  0  0  0  0  0  0  0  0  0  0  0
    6.0421   -0.8074    4.1630 C   0  0  0  0  0  0  0  0  0  0  0  0
    4.2438   -2.3490    3.3260 C   0  0  0  0  0  0  0  0  0  0  0  0
    4.9488    1.4184    2.7220 C   0  0  0  0  0  0  0  0  0  0  0  0
    4.7647    2.2840    3.5599 O   0  0  0  0  0  0  0  0  0  0  0  0
    5.8435    1.5696    1.6902 N   0  0  0  0  0  0  0  0  0  0  0  0
    6.4737    2.8540    1.3534 C   0  0  1  0  0  0  0  0  0  0  0  0
    7.0465    2.6898    0.3901 H   0  0  0  0  0  0  0  0  0  0  0  0
    5.4265    3.9585    1.1191 C   0  0  0  0  0  0  0  0  0  0  0  0
    4.4115    3.6121    0.0746 C   0  0  0  0  0  0  0  0  0  0  0  0
    3.0812    3.9940    0.2824 C   0  0  0  0  0  0  0  0  0  0  0  0
    2.1103    3.7327   -0.6784 C   0  0  0  0  0  0  0  0  0  0  0  0
    2.4854    3.0646   -1.8442 C   0  0  0  0  0  0  0  0  0  0  0  0
    3.8014    2.6576   -2.0655 C   0  0  0  0  0  0  0  0  0  0  0  0
    4.7649    2.9505   -1.1049 C   0  0  0  0  0  0  0  0  0  0  0  0
    1.5577    2.9178   -2.8484 O   0  0  0  0  0  0  0  0  0  0  0  0
    0.9383    1.6344   -2.8989 C   0  0  0  0  0  0  0  0  0  0  0  0
   -0.2737    1.6076   -1.9622 C   0  0  0  0  0  0  0  0  0  0  0  0
   -0.5648    0.2051   -1.4123 C   0  0  0  0  0  0  0  0  0  0  0  0
    7.4808    3.2557    2.4676 C   0  0  2  0  0  0  0  0  0  0  0  0
    7.9186    2.3426    2.9350 H   0  0  0  0  0  0  0  0  0  0  0  0
    6.8443    3.9821    3.4905 O   0  0  0  0  0  0  0  0  0  0  0  0
    8.5843    4.1977    1.9264 C   0  0  0  0  0  0  0  0  0  0  0  0
    9.8979    3.5597    1.8014 N   0  0  0  0  0  0  0  0  0  0  0  0
   10.5805    3.3184    3.0866 C   0  0  0  0  0  0  0  0  0  0  0  0
   11.8825    4.1474    3.1111 C   0  0  0  0  0  0  0  0  0  0  0  0
   12.7136    3.7802    4.3365 C   0  0  0  0  0  0  0  0  0  0  0  0
   10.0974    2.3412    0.5641 S   0  0  0  0  0  0  0  0  0  0  0  0
   10.2774    1.0609    1.2178 O   0  0  0  0  0  0  0  0  0  0  0  0
    8.9862    2.5275   -0.3547 O   0  0  0  0  0  0  0  0  0  0  0  0
   11.5873    2.8005   -0.2012 C   0  0  0  0  0  0  0  0  0  0  0  0
   11.6271    3.9147   -1.0442 C   0  0  0  0  0  0  0  0  0  0  0  0
   12.8156    4.3084   -1.6367 C   0  0  0  0  0  0  0  0  0  0  0  0
   13.9949    3.5715   -1.3855 C   0  0  0  0  0  0  0  0  0  0  0  0
   13.9523    2.4367   -0.5441 C   0  0  0  0  0  0  0  0  0  0  0  0
   12.7514    2.0643    0.0361 C   0  0  0  0  0  0  0  0  0  0  0  0
   15.1882    3.9703   -1.9442 N   0  0  0  0  0  0  0  0  0  0  0  0
   -0.3776    0.7875    0.6856 H   0  0  0  0  0  0  0  0  0  0  0  0
   -0.3758   -0.9504    0.4277 H   0  0  0  0  0  0  0  0  0  0  0  0
    1.9055    0.9092   -0.5231 H   0  0  0  0  0  0  0  0  0  0  0  0
    1.9138   -0.8698   -0.5659 H   0  0  0  0  0  0  0  0  0  0  0  0
    4.0086   -0.0435    0.6466 H   0  0  0  0  0  0  0  0  0  0  0  0
    5.6884   -1.3169    2.0859 H   0  0  0  0  0  0  0  0  0  0  0  0
    5.5032   -0.4635    5.0549 H   0  0  0  0  0  0  0  0  0  0  0  0
    6.7718   -0.0310    3.9021 H   0  0  0  0  0  0  0  0  0  0  0  0
    6.6133   -1.6976    4.4505 H   0  0  0  0  0  0  0  0  0  0  0  0
    3.6957   -2.2298    4.2687 H   0  0  0  0  0  0  0  0  0  0  0  0
    4.8643   -3.2461    3.4162 H   0  0  0  0  0  0  0  0  0  0  0  0
    3.4983   -2.5377    2.5437 H   0  0  0  0  0  0  0  0  0  0  0  0
    6.0354    0.8140    1.0514 H   0  0  0  0  0  0  0  0  0  0  0  0
    5.9498    4.8966    0.8333 H   0  0  0  0  0  0  0  0  0  0  0  0
    4.9233    4.2039    2.0842 H   0  0  0  0  0  0  0  0  0  0  0  0
    2.8005    4.5021    1.2059 H   0  0  0  0  0  0  0  0  0  0  0  0
    1.0816    4.0547   -0.5378 H   0  0  0  0  0  0  0  0  0  0  0  0
    4.0658    2.1498   -2.9885 H   0  0  0  0  0  0  0  0  0  0  0  0
    5.8045    2.6728   -1.2865 H   0  0  0  0  0  0  0  0  0  0  0  0
    1.6698    0.8390   -2.6853 H   0  0  0  0  0  0  0  0  0  0  0  0
    0.6435    1.5720   -3.9633 H   0  0  0  0  0  0  0  0  0  0  0  0
   -1.1602    2.0026   -2.4929 H   0  0  0  0  0  0  0  0  0  0  0  0
   -0.1119    2.3201   -1.1273 H   0  0  0  0  0  0  0  0  0  0  0  0
   -1.6611    0.0439   -1.3832 H   0  0  0  0  0  0  0  0  0  0  0  0
   -0.1783   -0.5725   -2.0959 H   0  0  0  0  0  0  0  0  0  0  0  0
    6.0065    3.5042    3.7435 H   0  0  0  0  0  0  0  0  0  0  0  0
    8.2977    4.6306    0.9403 H   0  0  0  0  0  0  0  0  0  0  0  0
    8.6730    5.0728    2.6187 H   0  0  0  0  0  0  0  0  0  0  0  0
   10.8070    2.2396    3.2501 H   0  0  0  0  0  0  0  0  0  0  0  0
    9.9332    3.6149    3.9435 H   0  0  0  0  0  0  0  0  0  0  0  0
   11.6385    5.2258    3.1099 H   0  0  0  0  0  0  0  0  0  0  0  0
   12.4651    3.9796    2.1860 H   0  0  0  0  0  0  0  0  0  0  0  0
   12.1803    4.0016    5.2679 H   0  0  0  0  0  0  0  0  0  0  0  0
   13.6557    4.3384    4.3593 H   0  0  0  0  0  0  0  0  0  0  0  0
   12.9672    2.7136    4.3458 H   0  0  0  0  0  0  0  0  0  0  0  0
   10.7164    4.4922   -1.2479 H   0  0  0  0  0  0  0  0  0  0  0  0
   12.8438    5.1766   -2.2853 H   0  0  0  0  0  0  0  0  0  0  0  0
   14.8537    1.8651   -0.3540 H   0  0  0  0  0  0  0  0  0  0  0  0
   12.7260    1.1774    0.6849 H   0  0  0  0  0  0  0  0  0  0  0  0
   16.0184    3.4355   -1.8220 H   0  0  0  0  0  0  0  0  0  0  0  0
   15.2272    4.7275   -2.5890 H   0  0  0  0  0  0  0  0  0  0  0  0
  1  2  1  0  0  0  0
  1 46  1  0  0  0  0
  1 45  1  0  0  0  0
  2  3  1  0  0  0  0
  3  5  1  0  0  0  0
  3  4  2  0  0  0  0
  5  6  1  0  0  0  0
  6  8  1  0  0  0  0
  6  7  1  1  0  0  0
  8 10  1  0  0  0  0
  8  9  1  0  0  0  0
  9 53  1  0  0  0  0
  9 51  1  0  0  0  0
 10 55  1  0  0  0  0
 10 54  1  0  0  0  0
 11  6  1  0  0  0  0
 11 12  2  0  0  0  0
 13 11  1  0  0  0  0
 14 15  1  6  0  0  0
 14 13  1  0  0  0  0
 14 27  1  0  0  0  0
 16 14  1  0  0  0  0
 16 59  1  0  0  0  0
 17 18  1  0  0  0  0
 17 16  1  0  0  0  0
 18 60  1  0  0  0  0
 19 61  1  0  0  0  0
 19 18  2  0  0  0  0
 20 19  1  0  0  0  0
 21 20  2  0  0  0  0
 21 22  1  0  0  0  0
 22 17  2  0  0  0  0
 23 20  1  0  0  0  0
 24 23  1  0  0  0  0
 24 64  1  0  0  0  0
 24 25  1  0  0  0  0
 25 26  1  0  0  0  0
 25 67  1  0  0  0  0
 26 68  1  0  0  0  0
 26  1  1  0  0  0  0
 27 28  1  1  0  0  0
 27 29  1  0  0  0  0
 29 70  1  0  0  0  0
 30 27  1  0  0  0  0
 30 72  1  0  0  0  0
 31 30  1  0  0  0  0
 31 32  1  0  0  0  0
 32 33  1  0  0  0  0
 32 73  1  0  0  0  0
 32 74  1  0  0  0  0
 33 34  1  0  0  0  0
 34 79  1  0  0  0  0
 34 78  1  0  0  0  0
 34 77  1  0  0  0  0
 35 36  2  0  0  0  0
 35 31  1  0  0  0  0
 37 35  2  0  0  0  0
 38 43  1  0  0  0  0
 38 35  1  0  0  0  0
 39 38  2  0  0  0  0
 40 41  2  0  0  0  0
 40 39  1  0  0  0  0
 41 42  1  0  0  0  0
 42 82  1  0  0  0  0
 42 43  2  0  0  0  0
 43 83  1  0  0  0  0
 44 84  1  0  0  0  0
 44 41  1  0  0  0  0
 47  2  1  0  0  0  0
 48  2  1  0  0  0  0
 49  5  1  0  0  0  0
 50  8  1  0  0  0  0
 52  9  1  0  0  0  0
 56 10  1  0  0  0  0
 57 13  1  0  0  0  0
 58 16  1  0  0  0  0
 62 21  1  0  0  0  0
 63 22  1  0  0  0  0
 65 24  1  0  0  0  0
 66 25  1  0  0  0  0
 69 26  1  0  0  0  0
 71 30  1  0  0  0  0
 75 33  1  0  0  0  0
 76 33  1  0  0  0  0
 80 39  1  0  0  0  0
 81 40  1  0  0  0  0
 85 44  1  0  0  0  0
M  END
$$$$
