85
rmsd209.gzmat
C          0.00000        0.00000        0.00000
C          1.53020        0.00000        0.00000
C          2.04940        0.00000        1.41880
O          1.36260       -0.09720        2.40990
N          3.43270        0.11000        1.51140
C          4.09120        0.28450        2.80440
H          3.31140        0.31390        3.62370
C          5.09410       -0.86420        3.08680
C          5.98060       -0.49720        4.27840
C          4.31930       -2.15180        3.37760
C          4.80050        1.65460        2.78290
O          4.50680        2.53020        3.57840
N          5.72940        1.84410        1.78890
C          6.28180        3.16130        1.44340
H          6.90400        3.01280        0.50950
C          5.16810        4.18300        1.15000
C          4.20950        3.76800        0.07770
C          2.89580        4.25020        0.14690
C          1.96910        3.93040       -0.83810
C          2.36880        3.10500       -1.89060
C          3.66490        2.59760       -1.97240
C          4.58600        2.94750       -0.98810
O          1.48300        2.90170       -2.92100
C          0.88200        1.60900       -2.94160
C         -0.31220        1.57640       -1.98330
C         -0.57110        0.17450       -1.41280
C          7.21880        3.65930        2.58010
H          7.71500        2.79100        3.07210
O          6.49280        4.34090        3.57460
C          8.25490        4.68610        2.05790
N          9.64340        4.21960        2.12500
C         10.21510        4.25610        3.48420
C         11.05290        5.54570        3.62420
C         11.65700        5.62880        5.02290
S         10.11880        2.91750        1.06270
O         10.87900        1.97510        1.85600
O          8.91350        2.49170        0.36740
C         11.17430        3.68410       -0.08570
C         12.53670        3.81800        0.19630
C         13.39040        4.41950       -0.71370
C         12.87400        4.89650       -1.93990
C         11.49730        4.75920       -2.22730
C         10.66520        4.15440       -1.29970
N         13.71240        5.48970       -2.85610
H         -0.37710        0.80020        0.67070
H         -0.37260       -0.94220        0.44980
H          1.90810        0.90000       -0.53440
H          1.91650       -0.87850       -0.55220
H          3.99630        0.24850        0.68980
H          5.73590       -1.02760        2.18870
H          5.38510       -0.21740        5.15680
H          6.64760        0.34390        4.05420
H          6.61670       -1.34030        4.57210
H          3.70520       -2.05910        4.28190
H          4.99490       -3.00070        3.52190
H          3.63900       -2.40320        2.55480
H          6.05810        1.07720        1.22160
H          5.63440        5.15410        0.87620
H          4.61200        4.40050        2.09460
H          2.59410        4.88310        0.98240
H          0.95500        4.32090       -0.80590
H          3.95180        1.96760       -2.80890
H          5.61030        2.58410       -1.06580
H          1.62970        0.82890       -2.72780
H          0.57020        1.52850       -4.00020
H         -1.21430        1.95170       -2.50170
H         -0.14510        2.30110       -1.15970
H         -1.66410       -0.00910       -1.37920
H         -0.17000       -0.60420       -2.08650
H          5.67930        3.81130        3.79780
H          8.02770        4.99390        1.01320
H          8.16080        5.61960        2.67020
H         10.85520        3.36790        3.69310
H          9.41470        4.23890        4.25960
H         10.42070        6.43020        3.42160
H         11.84630        5.56750        2.85490
H         10.88000        5.64300        5.79660
H         12.25270        6.54010        5.14410
H         12.31530        4.77720        5.22990
H         12.95040        3.44080        1.14100
H         14.44670        4.51950       -0.49120
H         11.09840        5.12170       -3.16800
H          9.59840        4.04310       -1.53750
H         13.36870        5.83660       -3.72320
H         14.68350        5.60290       -2.67130
