
     RDKit          3D

 85 87  0  0  0  0  0  0  0  0999 V2000
    0.5024   -0.3028    0.1247 C   0  0  0  0  0  0  0  0  0  0  0  0
    2.0099   -0.1846    0.3662 C   0  0  0  0  0  0  0  0  0  0  0  0
    2.3428    0.3146    1.7619 C   0  0  0  0  0  0  0  0  0  0  0  0
    1.7696    1.2604    2.2724 O   0  0  0  0  0  0  0  0  0  0  0  0
    3.3871   -0.3202    2.3867 N   0  0  0  0  0  0  0  0  0  0  0  0
    3.8839    0.1222    3.6773 C   0  0  1  0  0  0  0  0  0  0  0  0
    3.0323    0.4910    4.2682 H   0  0  0  0  0  0  0  0  0  0  0  0
    4.5579   -1.0593    4.4169 C   0  0  0  0  0  0  0  0  0  0  0  0
    5.2894   -0.6288    5.6912 C   0  0  0  0  0  0  0  0  0  0  0  0
    3.5219   -2.1454    4.7291 C   0  0  0  0  0  0  0  0  0  0  0  0
    4.8241    1.3334    3.5525 C   0  0  0  0  0  0  0  0  0  0  0  0
    4.9341    2.1221    4.4898 O   0  0  0  0  0  0  0  0  0  0  0  0
    5.5413    1.3836    2.4107 N   0  0  0  0  0  0  0  0  0  0  0  0
    6.4576    2.4514    2.0001 C   0  0  1  0  0  0  0  0  0  0  0  0
    7.0390    1.9983    1.1870 H   0  0  0  0  0  0  0  0  0  0  0  0
    5.7065    3.6691    1.4401 C   0  0  0  0  0  0  0  0  0  0  0  0
    4.7932    3.3166    0.2890 C   0  0  0  0  0  0  0  0  0  0  0  0
    3.4211    3.5906    0.3491 C   0  0  0  0  0  0  0  0  0  0  0  0
    2.5719    3.2874   -0.7188 C   0  0  0  0  0  0  0  0  0  0  0  0
    3.0831    2.6661   -1.8629 C   0  0  0  0  0  0  0  0  0  0  0  0
    4.4531    2.3794   -1.9344 C   0  0  0  0  0  0  0  0  0  0  0  0
    5.2990    2.7111   -0.8759 C   0  0  0  0  0  0  0  0  0  0  0  0
    2.2670    2.3358   -2.9207 O   0  0  0  0  0  0  0  0  0  0  0  0
    1.6975    1.0300   -2.8552 C   0  0  0  0  0  0  0  0  0  0  0  0
    0.3657    0.9947   -2.0874 C   0  0  0  0  0  0  0  0  0  0  0  0
    0.0757   -0.3260   -1.3497 C   0  0  0  0  0  0  0  0  0  0  0  0
    7.4637    2.8171    3.1164 C   0  0  2  0  0  0  0  0  0  0  0  0
    7.7058    1.8707    3.6421 H   0  0  0  0  0  0  0  0  0  0  0  0
    6.9911    3.7775    4.0174 O   0  0  0  0  0  0  0  0  0  0  0  0
    8.7712    3.3882    2.5482 C   0  0  0  0  0  0  0  0  0  0  0  0
    9.4476    2.5396    1.5778 N   0  0  0  0  0  0  0  0  0  0  0  0
   10.1127    1.3073    1.9899 C   0  0  0  0  0  0  0  0  0  0  0  0
    9.2626    0.0307    1.9698 C   0  0  0  0  0  0  0  0  0  0  0  0
   10.0630   -1.1844    2.4327 C   0  0  0  0  0  0  0  0  0  0  0  0
    9.3054    2.8429   -0.0600 S   0  0  0  0  0  0  0  0  0  0  0  0
    8.7840    1.6408   -0.7358 O   0  0  0  0  0  0  0  0  0  0  0  0
    8.5898    4.1178   -0.1877 O   0  0  0  0  0  0  0  0  0  0  0  0
   10.9769    3.0608   -0.6123 C   0  0  0  0  0  0  0  0  0  0  0  0
   11.6569    4.2394   -0.2802 C   0  0  0  0  0  0  0  0  0  0  0  0
   12.9660    4.4199   -0.7010 C   0  0  0  0  0  0  0  0  0  0  0  0
   13.6239    3.4282   -1.4666 C   0  0  0  0  0  0  0  0  0  0  0  0
   12.9153    2.2527   -1.7972 C   0  0  0  0  0  0  0  0  0  0  0  0
   11.6028    2.0716   -1.3757 C   0  0  0  0  0  0  0  0  0  0  0  0
   14.9321    3.5943   -1.8501 N   0  0  0  0  0  0  0  0  0  0  0  0
    0.0225    0.5569    0.6193 H   0  0  0  0  0  0  0  0  0  0  0  0
    0.1266   -1.2056    0.6366 H   0  0  0  0  0  0  0  0  0  0  0  0
    2.4423    0.5832   -0.2939 H   0  0  0  0  0  0  0  0  0  0  0  0
    2.5287   -1.1304    0.1361 H   0  0  0  0  0  0  0  0  0  0  0  0
    3.7632   -1.1670    1.9776 H   0  0  0  0  0  0  0  0  0  0  0  0
    5.3117   -1.4789    3.7216 H   0  0  0  0  0  0  0  0  0  0  0  0
    4.6065   -0.1052    6.3780 H   0  0  0  0  0  0  0  0  0  0  0  0
    6.1251    0.0527    5.4837 H   0  0  0  0  0  0  0  0  0  0  0  0
    5.6887   -1.5144    6.2096 H   0  0  0  0  0  0  0  0  0  0  0  0
    2.7787   -1.7676    5.4500 H   0  0  0  0  0  0  0  0  0  0  0  0
    4.0048   -3.0292    5.1738 H   0  0  0  0  0  0  0  0  0  0  0  0
    2.9758   -2.4724    3.8317 H   0  0  0  0  0  0  0  0  0  0  0  0
    5.2164    0.7718    1.6707 H   0  0  0  0  0  0  0  0  0  0  0  0
    6.4591    4.3961    1.0995 H   0  0  0  0  0  0  0  0  0  0  0  0
    5.1386    4.1417    2.2523 H   0  0  0  0  0  0  0  0  0  0  0  0
    3.0030    4.0446    1.2502 H   0  0  0  0  0  0  0  0  0  0  0  0
    1.5096    3.5271   -0.6641 H   0  0  0  0  0  0  0  0  0  0  0  0
    4.8459    1.9116   -2.8399 H   0  0  0  0  0  0  0  0  0  0  0  0
    6.3685    2.5093   -0.9660 H   0  0  0  0  0  0  0  0  0  0  0  0
    2.4287    0.3346   -2.4065 H   0  0  0  0  0  0  0  0  0  0  0  0
    1.5477    0.7063   -3.8973 H   0  0  0  0  0  0  0  0  0  0  0  0
   -0.4497    1.2324   -2.7885 H   0  0  0  0  0  0  0  0  0  0  0  0
    0.3691    1.8109   -1.3503 H   0  0  0  0  0  0  0  0  0  0  0  0
   -1.0065   -0.5301   -1.3816 H   0  0  0  0  0  0  0  0  0  0  0  0
    0.5515   -1.1739   -1.8773 H   0  0  0  0  0  0  0  0  0  0  0  0
    6.1822    3.3833    4.4084 H   0  0  0  0  0  0  0  0  0  0  0  0
    8.5610    4.3582    2.0821 H   0  0  0  0  0  0  0  0  0  0  0  0
    9.4511    3.5726    3.3959 H   0  0  0  0  0  0  0  0  0  0  0  0
   10.5019    1.4866    3.0068 H   0  0  0  0  0  0  0  0  0  0  0  0
   11.0009    1.1585    1.3506 H   0  0  0  0  0  0  0  0  0  0  0  0
    8.8889   -0.1179    0.9458 H   0  0  0  0  0  0  0  0  0  0  0  0
    8.3774    0.1659    2.6113 H   0  0  0  0  0  0  0  0  0  0  0  0
   10.9418   -1.3548    1.7883 H   0  0  0  0  0  0  0  0  0  0  0  0
    9.4526   -2.1003    2.4081 H   0  0  0  0  0  0  0  0  0  0  0  0
   10.4310   -1.0579    3.4649 H   0  0  0  0  0  0  0  0  0  0  0  0
   11.1505    5.0154    0.2965 H   0  0  0  0  0  0  0  0  0  0  0  0
   13.4970    5.3404   -0.4454 H   0  0  0  0  0  0  0  0  0  0  0  0
   13.4051    1.4799   -2.3951 H   0  0  0  0  0  0  0  0  0  0  0  0
   11.0466    1.1720   -1.6422 H   0  0  0  0  0  0  0  0  0  0  0  0
   15.3005    2.9971   -2.5787 H   0  0  0  0  0  0  0  0  0  0  0  0
   15.3326    4.5224   -1.8092 H   0  0  0  0  0  0  0  0  0  0  0  0
  1  2  1  0
  1 26  1  0
  1 45  1  0
  1 46  1  0
  2  3  1  0
  2 47  1  0
  2 48  1  0
  3  4  2  0
  3  5  1  0
  5  6  1  0
  5 49  1  0
  6  7  1  1
  6  8  1  0
  6 11  1  0
  8  9  1  0
  8 10  1  0
  8 50  1  0
  9 51  1  0
  9 52  1  0
  9 53  1  0
 10 54  1  0
 10 55  1  0
 10 56  1  0
 11 12  2  0
 11 13  1  0
 13 14  1  0
 13 57  1  0
 14 15  1  6
 14 16  1  0
 14 27  1  0
 16 17  1  0
 16 58  1  0
 16 59  1  0
 17 18  2  0
 17 22  1  0
 18 19  1  0
 18 60  1  0
 19 20  2  0
 19 61  1  0
 20 21  1  0
 20 23  1  0
 21 22  2  0
 21 62  1  0
 22 63  1  0
 23 24  1  0
 24 25  1  0
 24 64  1  0
 24 65  1  0
 25 26  1  0
 25 66  1  0
 25 67  1  0
 26 68  1  0
 26 69  1  0
 27 28  1  1
 27 29  1  0
 27 30  1  0
 29 70  1  0
 30 31  1  0
 30 71  1  0
 30 72  1  0
 31 32  1  0
 35 31  1  0
 32 33  1  0
 32 73  1  0
 32 74  1  0
 33 34  1  0
 33 75  1  0
 33 76  1  0
 34 77  1  0
 34 78  1  0
 34 79  1  0
 35 36  2  0
 35 37  2  0
 35 38  1  0
 38 39  2  0
 38 43  1  0
 39 40  1  0
 39 80  1  0
 40 41  2  0
 40 81  1  0
 41 42  1  0
 41 44  1  0
 42 43  2  0
 42 82  1  0
 43 83  1  0
 44 84  1  0
 44 85  1  0
M  END

