85
rmsd133.gzmat
C          0.00000        0.00000        0.00000
C          1.53030        0.00000        0.00000
C          2.04630        0.00000        1.42020
O          1.37760       -0.23730        2.40040
N          3.40360        0.27810        1.52740
C          4.02910        0.48080        2.83460
H          3.23590        0.46740        3.64150
C          5.08190       -0.61830        3.13070
C          5.95730       -0.19720        4.31270
C          4.36320       -1.93300        3.44540
C          4.66030        1.88760        2.81590
O          4.26620        2.76600        3.56420
N          5.60640        2.11410        1.84630
C          6.11330        3.45550        1.52450
H          6.77110        3.33480        0.61510
C          4.96970        4.42710        1.18000
C          4.06770        3.95740        0.08100
C          2.74390        4.41670        0.07670
C          1.86410        4.03610       -0.92880
C          2.32020        3.17160       -1.92580
C          3.62890        2.69180       -1.93740
C          4.50310        3.10370       -0.93440
O          1.47570        2.89660       -2.97450
C          0.89750        1.59340       -2.94100
C         -0.29770        1.57650       -1.98370
C         -0.57110        0.17820       -1.41240
C          6.98200        3.98400        2.70140
H          7.47570        3.12930        3.22020
O          6.18520        4.64790        3.65310
C          8.02160        5.03100        2.23380
N          9.40940        4.55800        2.27410
C          9.98840        4.53690        3.63050
C         10.63440        5.91120        3.91290
C         11.29150        5.90480        5.29040
S          9.87670        3.30070        1.15440
O         11.05740        2.67400        1.70750
O          8.69330        2.50300        0.86710
C         10.28810        4.19750       -0.27740
C         11.51170        4.87010       -0.34890
C         11.85000        5.60340       -1.47420
C         10.94860        5.66360       -2.56120
C          9.71620        4.97490       -2.49440
C          9.40160        4.25040       -1.35670
N         11.26990        6.39750       -3.67990
H         -0.37720        0.79910        0.67140
H         -0.37280       -0.94340        0.44820
H          1.90730        0.89420       -0.54260
H          1.91820       -0.88380       -0.54310
H          3.94510        0.54750        0.72180
H          5.72470       -0.76800        2.23080
H          5.35400        0.07990        5.18670
H          6.59680        0.65940        4.07040
H          6.62060       -1.01360        4.62210
H          3.79250       -1.86860        4.38000
H          5.07070       -2.76190        3.54520
H          3.64810       -2.19640        2.65520
H          6.09120        1.35340        1.38740
H          5.40470        5.41340        0.90970
H          4.36990        4.63310        2.09980
H          2.39780        5.07790        0.87230
H          0.84240        4.40770       -0.95550
H          3.96160        2.03340       -2.73400
H          5.53500        2.75580       -0.95440
H          1.66140        0.83910       -2.69310
H          0.59090        1.46190       -3.99560
H         -1.19440        1.96250       -2.50350
H         -0.12280        2.29880       -1.15940
H         -1.66550        0.00420       -1.37650
H         -0.17850       -0.60470       -2.08630
H          5.37830        4.09350        3.83640
H          7.79370        5.40320        1.21150
H          7.92840        5.92990        2.89710
H         10.76400        3.74100        3.72950
H          9.21530        4.31640        4.40100
H          9.87360        6.71090        3.84900
H         11.37850        6.14390        3.12870
H         10.56100        5.71410        6.08530
H         11.76610        6.86780        5.50890
H         12.06910        5.13520        5.36110
H         12.22360        4.82250        0.48500
H         12.79800        6.12730       -1.52340
H          9.02460        5.01440       -3.32860
H          8.44530        3.71180       -1.31920
H         10.66380        6.43150       -4.46840
H         12.14150        6.87220       -3.75370
