rmsd230.gzmat
 OpenBabel08211713413D

 85 87  0  0  1  0  0  0  0  0999 V2000
    0.0000    0.0000    0.0000 C   0  0  0  0  0  0  0  0  0  0  0  0
    1.5310    0.0000    0.0000 C   0  0  0  0  0  0  0  0  0  0  0  0
    2.0501    0.0000    1.4171 C   0  0  0  0  0  0  0  0  0  0  0  0
    1.4689    0.4851    2.3611 O   0  0  0  0  0  0  0  0  0  0  0  0
    3.3174   -0.5510    1.5803 N   0  0  0  0  0  0  0  0  0  0  0  0
    3.9954   -0.4591    2.8718 C   0  0  1  0  0  0  0  0  0  0  0  0
    3.2247   -0.3353    3.6910 H   0  0  0  0  0  0  0  0  0  0  0  0
    4.8610   -1.7148    3.1433 C   0  0  0  0  0  0  0  0  0  0  0  0
    5.7774   -1.4645    4.3428 C   0  0  0  0  0  0  0  0  0  0  0  0
    3.9495   -2.9151    3.4123 C   0  0  0  0  0  0  0  0  0  0  0  0
    4.8811    0.8074    2.9022 C   0  0  0  0  0  0  0  0  0  0  0  0
    4.9167    1.5036    3.9031 O   0  0  0  0  0  0  0  0  0  0  0  0
    5.6360    1.0673    1.7854 N   0  0  0  0  0  0  0  0  0  0  0  0
    6.3596    2.3298    1.5692 C   0  0  1  0  0  0  0  0  0  0  0  0
    6.8139    2.2613    0.5329 H   0  0  0  0  0  0  0  0  0  0  0  0
    5.4078    3.5390    1.6211 C   0  0  0  0  0  0  0  0  0  0  0  0
    4.3327    3.4623    0.5820 C   0  0  0  0  0  0  0  0  0  0  0  0
    3.0151    3.7670    0.9387 C   0  0  0  0  0  0  0  0  0  0  0  0
    1.9971    3.7240   -0.0091 C   0  0  0  0  0  0  0  0  0  0  0  0
    2.3153    3.3538   -1.3153 C   0  0  0  0  0  0  0  0  0  0  0  0
    3.6206    3.0368   -1.6930 C   0  0  0  0  0  0  0  0  0  0  0  0
    4.6293    3.1082   -0.7381 C   0  0  0  0  0  0  0  0  0  0  0  0
    1.3336    3.4156   -2.2765 O   0  0  0  0  0  0  0  0  0  0  0  0
    0.7719    2.1504   -2.6208 C   0  0  0  0  0  0  0  0  0  0  0  0
   -0.4153    1.8556   -1.6991 C   0  0  0  0  0  0  0  0  0  0  0  0
   -0.5693    0.3630   -1.3777 C   0  0  0  0  0  0  0  0  0  0  0  0
    7.5214    2.4642    2.5921 C   0  0  2  0  0  0  0  0  0  0  0  0
    7.9075    1.4515    2.8551 H   0  0  0  0  0  0  0  0  0  0  0  0
    7.0845    3.0723    3.7839 O   0  0  0  0  0  0  0  0  0  0  0  0
    8.6444    3.3935    2.0657 C   0  0  0  0  0  0  0  0  0  0  0  0
    9.9077    2.7245    1.7377 N   0  0  0  0  0  0  0  0  0  0  0  0
   10.8214    2.5294    2.8742 C   0  0  0  0  0  0  0  0  0  0  0  0
   10.3499    1.5266    3.9444 C   0  0  0  0  0  0  0  0  0  0  0  0
   11.4223    1.3596    5.0177 C   0  0  0  0  0  0  0  0  0  0  0  0
    9.8641    1.4862    0.5046 S   0  0  0  0  0  0  0  0  0  0  0  0
    9.9880    0.1906    1.1374 O   0  0  0  0  0  0  0  0  0  0  0  0
    8.6933    1.7848   -0.3054 O   0  0  0  0  0  0  0  0  0  0  0  0
   11.3046    1.8034   -0.4160 C   0  0  0  0  0  0  0  0  0  0  0  0
   11.2790    2.7462   -1.4474 C   0  0  0  0  0  0  0  0  0  0  0  0
   12.4223    3.0211   -2.1801 C   0  0  0  0  0  0  0  0  0  0  0  0
   13.6228    2.3410   -1.8760 C   0  0  0  0  0  0  0  0  0  0  0  0
   13.6456    1.3761   -0.8432 C   0  0  0  0  0  0  0  0  0  0  0  0
   12.4873    1.1158   -0.1300 C   0  0  0  0  0  0  0  0  0  0  0  0
   14.7693    2.6181   -2.5852 N   0  0  0  0  0  0  0  0  0  0  0  0
   -0.3759    0.7115    0.7681 H   0  0  0  0  0  0  0  0  0  0  0  0
   -0.3760   -0.9913    0.3173 H   0  0  0  0  0  0  0  0  0  0  0  0
    1.9092    0.9278   -0.4927 H   0  0  0  0  0  0  0  0  0  0  0  0
    1.9163   -0.8453   -0.5963 H   0  0  0  0  0  0  0  0  0  0  0  0
    3.7902   -1.0312    0.8368 H   0  0  0  0  0  0  0  0  0  0  0  0
    5.4942   -1.9290    2.2480 H   0  0  0  0  0  0  0  0  0  0  0  0
    5.2229   -1.0690    5.2040 H   0  0  0  0  0  0  0  0  0  0  0  0
    6.5663   -0.7371    4.1100 H   0  0  0  0  0  0  0  0  0  0  0  0
    6.2752   -2.3855    4.6638 H   0  0  0  0  0  0  0  0  0  0  0  0
    3.3596   -2.7742    4.3265 H   0  0  0  0  0  0  0  0  0  0  0  0
    4.5311   -3.8348    3.5376 H   0  0  0  0  0  0  0  0  0  0  0  0
    3.2407   -3.0796    2.5930 H   0  0  0  0  0  0  0  0  0  0  0  0
    5.5266    0.4965    0.9611 H   0  0  0  0  0  0  0  0  0  0  0  0
    5.9929    4.4742    1.4952 H   0  0  0  0  0  0  0  0  0  0  0  0
    4.9681    3.6221    2.6424 H   0  0  0  0  0  0  0  0  0  0  0  0
    2.7772    4.0360    1.9692 H   0  0  0  0  0  0  0  0  0  0  0  0
    0.9744    3.9808    0.2557 H   0  0  0  0  0  0  0  0  0  0  0  0
    3.8395    2.7655   -2.7212 H   0  0  0  0  0  0  0  0  0  0  0  0
    5.6586    2.8913   -1.0292 H   0  0  0  0  0  0  0  0  0  0  0  0
    1.5396    1.3606   -2.6060 H   0  0  0  0  0  0  0  0  0  0  0  0
    0.4560    2.3218   -3.6668 H   0  0  0  0  0  0  0  0  0  0  0  0
   -1.3444    2.2454   -2.1549 H   0  0  0  0  0  0  0  0  0  0  0  0
   -0.3019    2.4402   -0.7617 H   0  0  0  0  0  0  0  0  0  0  0  0
   -1.6445    0.0946   -1.4000 H   0  0  0  0  0  0  0  0  0  0  0  0
   -0.1022   -0.2598   -2.1616 H   0  0  0  0  0  0  0  0  0  0  0  0
    6.2447    2.6196    4.0772 H   0  0  0  0  0  0  0  0  0  0  0  0
    8.3069    3.9505    1.1598 H   0  0  0  0  0  0  0  0  0  0  0  0
    8.8353    4.1757    2.8430 H   0  0  0  0  0  0  0  0  0  0  0  0
   10.9825    3.5264    3.3505 H   0  0  0  0  0  0  0  0  0  0  0  0
   11.8174    2.2233    2.4805 H   0  0  0  0  0  0  0  0  0  0  0  0
   10.1196    0.5433    3.4835 H   0  0  0  0  0  0  0  0  0  0  0  0
    9.4048    1.8809    4.4046 H   0  0  0  0  0  0  0  0  0  0  0  0
   12.3553    0.9668    4.5993 H   0  0  0  0  0  0  0  0  0  0  0  0
   11.0934    0.6574    5.7932 H   0  0  0  0  0  0  0  0  0  0  0  0
   11.6492    2.3083    5.5154 H   0  0  0  0  0  0  0  0  0  0  0  0
   10.3495    3.2765   -1.6941 H   0  0  0  0  0  0  0  0  0  0  0  0
   12.3987    3.7520   -2.9801 H   0  0  0  0  0  0  0  0  0  0  0  0
   14.5619    0.8431   -0.6165 H   0  0  0  0  0  0  0  0  0  0  0  0
   12.5102    0.3520    0.6593 H   0  0  0  0  0  0  0  0  0  0  0  0
   15.6224    2.1425   -2.3966 H   0  0  0  0  0  0  0  0  0  0  0  0
   14.7727    3.2865   -3.3226 H   0  0  0  0  0  0  0  0  0  0  0  0
  1 46  1  0  0  0  0
  1 45  1  0  0  0  0
  2  1  1  0  0  0  0
  2  3  1  0  0  0  0
  3  5  1  0  0  0  0
  3  4  2  0  0  0  0
  5  6  1  0  0  0  0
  6 11  1  0  0  0  0
  6  8  1  0  0  0  0
  6  7  1  1  0  0  0
  8 10  1  0  0  0  0
  8  9  1  0  0  0  0
  9 53  1  0  0  0  0
  9 51  1  0  0  0  0
 10 55  1  0  0  0  0
 10 54  1  0  0  0  0
 11 12  2  0  0  0  0
 13 11  1  0  0  0  0
 14 15  1  6  0  0  0
 14 16  1  0  0  0  0
 14 13  1  0  0  0  0
 14 27  1  0  0  0  0
 16 59  1  0  0  0  0
 17 18  1  0  0  0  0
 17 16  1  0  0  0  0
 18 60  1  0  0  0  0
 19 61  1  0  0  0  0
 19 18  2  0  0  0  0
 20 19  1  0  0  0  0
 21 20  2  0  0  0  0
 21 22  1  0  0  0  0
 22 17  2  0  0  0  0
 23 20  1  0  0  0  0
 24 64  1  0  0  0  0
 24 23  1  0  0  0  0
 24 25  1  0  0  0  0
 25 26  1  0  0  0  0
 25 67  1  0  0  0  0
 26  1  1  0  0  0  0
 27 28  1  1  0  0  0
 27 29  1  0  0  0  0
 29 70  1  0  0  0  0
 30 27  1  0  0  0  0
 30 72  1  0  0  0  0
 31 30  1  0  0  0  0
 31 32  1  0  0  0  0
 32 73  1  0  0  0  0
 32 33  1  0  0  0  0
 33 76  1  0  0  0  0
 33 34  1  0  0  0  0
 34 79  1  0  0  0  0
 34 78  1  0  0  0  0
 35 36  2  0  0  0  0
 35 31  1  0  0  0  0
 37 35  2  0  0  0  0
 38 43  1  0  0  0  0
 38 35  1  0  0  0  0
 39 38  2  0  0  0  0
 40 41  2  0  0  0  0
 40 39  1  0  0  0  0
 41 42  1  0  0  0  0
 42 82  1  0  0  0  0
 42 43  2  0  0  0  0
 43 83  1  0  0  0  0
 44 84  1  0  0  0  0
 44 41  1  0  0  0  0
 47  2  1  0  0  0  0
 48  2  1  0  0  0  0
 49  5  1  0  0  0  0
 50  8  1  0  0  0  0
 52  9  1  0  0  0  0
 56 10  1  0  0  0  0
 57 13  1  0  0  0  0
 58 16  1  0  0  0  0
 62 21  1  0  0  0  0
 63 22  1  0  0  0  0
 65 24  1  0  0  0  0
 66 25  1  0  0  0  0
 68 26  1  0  0  0  0
 69 26  1  0  0  0  0
 71 30  1  0  0  0  0
 74 32  1  0  0  0  0
 75 33  1  0  0  0  0
 77 34  1  0  0  0  0
 80 39  1  0  0  0  0
 81 40  1  0  0  0  0
 85 44  1  0  0  0  0
M  END
$$$$
