85

C          0.22630       -0.20040       -0.13270
C          1.71700       -0.08380        0.16210
C          2.05630       -0.02950        1.64500
O          1.28050       -0.33180        2.53390
N          3.34730        0.37060        1.87930
C          3.87930        0.59770        3.21760
H          3.03390        0.82680        3.88180
C          4.64790       -0.61830        3.79710
C          5.19580       -0.28780        5.18880
C          3.77430       -1.87380        3.82620
C          4.76380        1.84520        3.18180
O          4.56430        2.81010        3.91520
N          5.77790        1.78500        2.28400
C          6.59470        2.91950        1.83880
H          7.27820        2.47120        1.10860
C          5.74730        3.99560        1.14280
C          4.86620        3.47090        0.03430
C          3.51070        3.82440       -0.01850
C          2.69180        3.42070       -1.07660
C          3.21210        2.61590       -2.09630
C          4.56040        2.23390       -2.04450
C          5.37970        2.66700       -0.99950
O          2.43190        2.22510       -3.15660
C          1.74940        0.98110       -2.99900
C          0.37670        1.12790       -2.32810
C         -0.11650       -0.15330       -1.62870
C          7.47110        3.48960        2.97690
H          7.84140        2.60610        3.54110
O          6.79310        4.37960        3.81930
C          8.69190        4.26010        2.44890
N          9.60910        3.47310        1.63510
C         10.48250        2.48370        2.26300
C         11.81340        3.06520        2.74290
C         12.69500        2.01150        3.40870
S          9.43010        3.40750       -0.02630
O          9.05490        2.04030       -0.43790
O          8.56500        4.53610       -0.39110
C         11.06800        3.69930       -0.63450
C         11.60080        4.99220       -0.56100
C         12.89650        5.22730       -0.99520
C         13.68780        4.17510       -1.51560
C         13.12390        2.88240       -1.59120
C         11.82410        2.64750       -1.15790
N         14.98230        4.40290       -1.90880
H         -0.29770        0.62330        0.38130
H         -0.15980       -1.12570        0.32270
H          2.14050        0.81930       -0.30160
H          2.26710       -0.93740       -0.27460
H          3.84810        0.77730        1.09650
H          5.50490       -0.81830        3.12560
H          4.37370       -0.04120        5.88040
H          5.88440        0.57080        5.17480
H          5.73940       -1.14950        5.60560
H          2.87150       -1.71190        4.43370
H          4.33740       -2.71980        4.25140
H          3.44350       -2.15950        2.81790
H          5.88760        0.92610        1.75950
H          6.44340        4.73650        0.72240
H          5.13750        4.51280        1.89380
H          3.09260        4.44850        0.77550
H          1.64980        3.73980       -1.12710
H          4.96320        1.62140       -2.85410
H          6.44110        2.40570       -1.00860
H          2.39140        0.28320       -2.43560
H          1.63320        0.56340       -4.01150
H         -0.34760        1.46790       -3.08500
H          0.43140        1.93730       -1.58370
H         -1.21010       -0.23340       -1.73270
H          0.29550       -1.04350       -2.14010
H          5.93350        3.96320        4.04290
H          8.35590        5.12930        1.87070
H          9.24140        4.64830        3.32060
H         10.65980        1.66660        1.54650
H          9.94350        2.02080        3.10710
H         11.61170        3.89110        3.44650
H         12.33550        3.51120        1.88140
H         12.19710        1.56390        4.28500
H         13.64790        2.44250        3.75170
H         12.93220        1.19250        2.70920
H         10.99220        5.80820       -0.16740
H         13.31390        6.23580       -0.94070
H         13.71680        2.06050       -2.00020
H         11.38060        1.65330       -1.22670
H         15.44770        3.70590       -2.47500
H         15.28400        5.35680       -2.05770
