rmsd18.gzmat
 OpenBabel08211713413D

 85 87  0  0  1  0  0  0  0  0999 V2000
    0.0000    0.0000    0.0000 C   0  0  0  0  0  0  0  0  0  0  0  0
    1.5313    0.0000    0.0000 C   0  0  0  0  0  0  0  0  0  0  0  0
    2.0524    0.0000    1.4147 C   0  0  0  0  0  0  0  0  0  0  0  0
    1.5596    0.6208    2.3286 O   0  0  0  0  0  0  0  0  0  0  0  0
    3.2383   -0.7054    1.6100 N   0  0  0  0  0  0  0  0  0  0  0  0
    3.9076   -0.6568    2.9109 C   0  0  1  0  0  0  0  0  0  0  0  0
    3.1418   -0.4926    3.7254 H   0  0  0  0  0  0  0  0  0  0  0  0
    4.6968   -1.9655    3.1706 C   0  0  0  0  0  0  0  0  0  0  0  0
    5.6363   -1.7917    4.3650 C   0  0  0  0  0  0  0  0  0  0  0  0
    3.7159   -3.1115    3.4329 C   0  0  0  0  0  0  0  0  0  0  0  0
    4.8745    0.5501    2.9613 C   0  0  0  0  0  0  0  0  0  0  0  0
    5.0685    1.1274    4.0153 O   0  0  0  0  0  0  0  0  0  0  0  0
    5.5518    0.8469    1.7980 N   0  0  0  0  0  0  0  0  0  0  0  0
    6.3739    2.0590    1.6342 C   0  0  1  0  0  0  0  0  0  0  0  0
    6.8518    1.9714    0.6098 H   0  0  0  0  0  0  0  0  0  0  0  0
    5.5128    3.3343    1.6717 C   0  0  0  0  0  0  0  0  0  0  0  0
    4.4270    3.3218    0.6412 C   0  0  0  0  0  0  0  0  0  0  0  0
    3.1386    3.7241    1.0076 C   0  0  0  0  0  0  0  0  0  0  0  0
    2.1102    3.7430    0.0711 C   0  0  0  0  0  0  0  0  0  0  0  0
    2.3875    3.3395   -1.2350 C   0  0  0  0  0  0  0  0  0  0  0  0
    3.6627    2.9251   -1.6212 C   0  0  0  0  0  0  0  0  0  0  0  0
    4.6838    2.9331   -0.6765 C   0  0  0  0  0  0  0  0  0  0  0  0
    1.3976    3.4714   -2.1801 O   0  0  0  0  0  0  0  0  0  0  0  0
    0.7804    2.2449   -2.5645 C   0  0  0  0  0  0  0  0  0  0  0  0
   -0.3776    1.9376   -1.6098 C   0  0  0  0  0  0  0  0  0  0  0  0
   -0.5666    0.4357   -1.3580 C   0  0  0  0  0  0  0  0  0  0  0  0
    7.5052    2.0977    2.6992 C   0  0  2  0  0  0  0  0  0  0  0  0
    7.7431    1.0690    3.0598 H   0  0  0  0  0  0  0  0  0  0  0  0
    7.1065    2.8609    3.8143 O   0  0  0  0  0  0  0  0  0  0  0  0
    8.7774    2.8013    2.1615 C   0  0  0  0  0  0  0  0  0  0  0  0
    9.8024    1.7722    1.9215 N   0  0  0  0  0  0  0  0  0  0  0  0
   11.0810    2.0187    2.6010 C   0  0  0  0  0  0  0  0  0  0  0  0
   11.9019    3.1877    2.0199 C   0  0  0  0  0  0  0  0  0  0  0  0
   13.0751    3.5126    2.9404 C   0  0  0  0  0  0  0  0  0  0  0  0
    9.8468    1.0076    0.3507 S   0  0  0  0  0  0  0  0  0  0  0  0
    8.6592    1.4724   -0.3447 O   0  0  0  0  0  0  0  0  0  0  0  0
   11.1608    1.2000   -0.2243 O   0  0  0  0  0  0  0  0  0  0  0  0
    9.6630   -0.6809    0.7464 C   0  0  0  0  0  0  0  0  0  0  0  0
    8.4460   -1.1601    1.2373 C   0  0  0  0  0  0  0  0  0  0  0  0
    8.2938   -2.4942    1.5773 C   0  0  0  0  0  0  0  0  0  0  0  0
    9.3822   -3.3790    1.4136 C   0  0  0  0  0  0  0  0  0  0  0  0
   10.6109   -2.8999    0.9070 C   0  0  0  0  0  0  0  0  0  0  0  0
   10.7375   -1.5585    0.5826 C   0  0  0  0  0  0  0  0  0  0  0  0
    9.2443   -4.7073    1.7503 N   0  0  0  0  0  0  0  0  0  0  0  0
   -0.3783    0.6736    0.8005 H   0  0  0  0  0  0  0  0  0  0  0  0
   -0.3771   -1.0061    0.2636 H   0  0  0  0  0  0  0  0  0  0  0  0
    1.9094    0.9321   -0.4877 H   0  0  0  0  0  0  0  0  0  0  0  0
    1.9181   -0.8375   -0.6056 H   0  0  0  0  0  0  0  0  0  0  0  0
    3.6006   -1.3413    0.9223 H   0  0  0  0  0  0  0  0  0  0  0  0
    5.3069   -2.2052    2.2653 H   0  0  0  0  0  0  0  0  0  0  0  0
    5.1219   -1.3363    5.2235 H   0  0  0  0  0  0  0  0  0  0  0  0
    6.4862   -1.1371    4.1291 H   0  0  0  0  0  0  0  0  0  0  0  0
    6.0466   -2.7498    4.6987 H   0  0  0  0  0  0  0  0  0  0  0  0
    3.1328   -2.9379    4.3465 H   0  0  0  0  0  0  0  0  0  0  0  0
    4.2406   -4.0644    3.5599 H   0  0  0  0  0  0  0  0  0  0  0  0
    3.0003   -3.2332    2.6127 H   0  0  0  0  0  0  0  0  0  0  0  0
    5.1823    0.4804    0.9276 H   0  0  0  0  0  0  0  0  0  0  0  0
    6.1667    4.2212    1.5268 H   0  0  0  0  0  0  0  0  0  0  0  0
    5.0889    3.4665    2.6928 H   0  0  0  0  0  0  0  0  0  0  0  0
    2.9329    4.0214    2.0370 H   0  0  0  0  0  0  0  0  0  0  0  0
    1.1102    4.0718    0.3429 H   0  0  0  0  0  0  0  0  0  0  0  0
    3.8532    2.6325   -2.6495 H   0  0  0  0  0  0  0  0  0  0  0  0
    5.6943    2.6464   -0.9768 H   0  0  0  0  0  0  0  0  0  0  0  0
    1.5217    1.4328   -2.6243 H   0  0  0  0  0  0  0  0  0  0  0  0
    0.4270    2.4836   -3.5855 H   0  0  0  0  0  0  0  0  0  0  0  0
   -1.3118    2.3782   -2.0050 H   0  0  0  0  0  0  0  0  0  0  0  0
   -0.2075    2.4705   -0.6499 H   0  0  0  0  0  0  0  0  0  0  0  0
   -1.6480    0.1932   -1.3872 H   0  0  0  0  0  0  0  0  0  0  0  0
   -0.1171   -0.1618   -2.1714 H   0  0  0  0  0  0  0  0  0  0  0  0
    6.2974    2.4269    4.1973 H   0  0  0  0  0  0  0  0  0  0  0  0
    8.5543    3.4106    1.2593 H   0  0  0  0  0  0  0  0  0  0  0  0
    9.1181    3.5299    2.9369 H   0  0  0  0  0  0  0  0  0  0  0  0
   11.6883    1.0851    2.5756 H   0  0  0  0  0  0  0  0  0  0  0  0
   10.8618    2.2074    3.6795 H   0  0  0  0  0  0  0  0  0  0  0  0
   11.2649    4.0793    1.8819 H   0  0  0  0  0  0  0  0  0  0  0  0
   12.2743    2.9231    1.0068 H   0  0  0  0  0  0  0  0  0  0  0  0
   13.7151    2.6371    3.0999 H   0  0  0  0  0  0  0  0  0  0  0  0
   12.7361    3.8631    3.9217 H   0  0  0  0  0  0  0  0  0  0  0  0
   13.7065    4.3004    2.5128 H   0  0  0  0  0  0  0  0  0  0  0  0
    7.5904   -0.4841    1.3649 H   0  0  0  0  0  0  0  0  0  0  0  0
    7.3527   -2.8574    1.9736 H   0  0  0  0  0  0  0  0  0  0  0  0
   11.4468   -3.5770    0.7749 H   0  0  0  0  0  0  0  0  0  0  0  0
   11.6987   -1.1958    0.1912 H   0  0  0  0  0  0  0  0  0  0  0  0
    9.9911   -5.3527    1.6274 H   0  0  0  0  0  0  0  0  0  0  0  0
    8.3860   -5.0641    2.1037 H   0  0  0  0  0  0  0  0  0  0  0  0
  1  2  1  0  0  0  0
  1 46  1  0  0  0  0
  1 45  1  0  0  0  0
  2  3  1  0  0  0  0
  3  5  1  0  0  0  0
  3  4  2  0  0  0  0
  5  6  1  0  0  0  0
  6 11  1  0  0  0  0
  6  8  1  0  0  0  0
  6  7  1  1  0  0  0
  8 10  1  0  0  0  0
  8  9  1  0  0  0  0
  9 53  1  0  0  0  0
  9 51  1  0  0  0  0
 10 55  1  0  0  0  0
 10 54  1  0  0  0  0
 11 12  2  0  0  0  0
 13 11  1  0  0  0  0
 14 15  1  6  0  0  0
 14 16  1  0  0  0  0
 14 13  1  0  0  0  0
 14 27  1  0  0  0  0
 16 59  1  0  0  0  0
 17 18  1  0  0  0  0
 17 16  1  0  0  0  0
 18 60  1  0  0  0  0
 19 61  1  0  0  0  0
 19 18  2  0  0  0  0
 20 19  1  0  0  0  0
 21 20  2  0  0  0  0
 21 22  1  0  0  0  0
 22 17  2  0  0  0  0
 23 20  1  0  0  0  0
 24 23  1  0  0  0  0
 24 25  1  0  0  0  0
 25 26  1  0  0  0  0
 25 67  1  0  0  0  0
 26  1  1  0  0  0  0
 27 28  1  1  0  0  0
 27 29  1  0  0  0  0
 29 70  1  0  0  0  0
 30 27  1  0  0  0  0
 30 72  1  0  0  0  0
 31 30  1  0  0  0  0
 31 32  1  0  0  0  0
 32 74  1  0  0  0  0
 33 32  1  0  0  0  0
 33 34  1  0  0  0  0
 34 77  1  0  0  0  0
 34 78  1  0  0  0  0
 35 38  1  0  0  0  0
 35 31  1  0  0  0  0
 36 35  2  0  0  0  0
 37 35  2  0  0  0  0
 38 39  1  0  0  0  0
 39 80  1  0  0  0  0
 39 40  2  0  0  0  0
 40 81  1  0  0  0  0
 41 40  1  0  0  0  0
 41 44  1  0  0  0  0
 42 41  2  0  0  0  0
 43 38  2  0  0  0  0
 43 42  1  0  0  0  0
 44 85  1  0  0  0  0
 47  2  1  0  0  0  0
 48  2  1  0  0  0  0
 49  5  1  0  0  0  0
 50  8  1  0  0  0  0
 52  9  1  0  0  0  0
 56 10  1  0  0  0  0
 57 13  1  0  0  0  0
 58 16  1  0  0  0  0
 62 21  1  0  0  0  0
 63 22  1  0  0  0  0
 64 24  1  0  0  0  0
 65 24  1  0  0  0  0
 66 25  1  0  0  0  0
 68 26  1  0  0  0  0
 69 26  1  0  0  0  0
 71 30  1  0  0  0  0
 73 32  1  0  0  0  0
 75 33  1  0  0  0  0
 76 33  1  0  0  0  0
 79 34  1  0  0  0  0
 82 42  1  0  0  0  0
 83 43  1  0  0  0  0
 84 44  1  0  0  0  0
M  END
$$$$
