85

C          0.94080       -0.73290       -0.36440
C          2.40610       -0.72800        0.07480
C          2.60810       -0.24640        1.50670
O          1.88620        0.59000        2.02590
N          3.71270       -0.75500        2.12990
C          4.11430       -0.31720        3.45460
H          3.20850       -0.05600        4.02200
C          4.87620       -1.45400        4.18310
C          5.34060       -1.05130        5.58570
C          4.01750       -2.72250        4.24990
C          4.95130        0.97460        3.41790
O          5.00850        1.71320        4.40170
N          5.65480        1.17480        2.28700
C          6.51620        2.32310        2.02840
H          7.04750        2.05970        1.11420
C          5.71060        3.59360        1.69540
C          4.89410        3.35660        0.45060
C          3.54960        2.97720        0.53580
C          2.82650        2.61380       -0.60230
C          3.44980        2.60130       -1.85650
C          4.78890        3.00220       -1.95870
C          5.49920        3.37800       -0.81740
O          2.80010        2.20630       -3.00140
C          2.38870        0.84390       -3.05140
C          0.93820        0.60380       -2.59130
C          0.68800       -0.73990       -1.88140
C          7.58200        2.53140        3.12970
H          7.83540        1.52650        3.52820
O          7.15860        3.39370        4.14780
C          8.87090        3.10060        2.52090
N          9.73520        2.07380        1.93440
C         10.85880        1.56480        2.72500
C         12.07020        2.49690        2.73300
C         13.20580        1.96180        3.60170
S          9.59760        1.61510        0.34360
O          8.95300        2.70900       -0.39470
O         10.89690        1.07710       -0.06450
C          8.42520        0.24880        0.32990
C          8.53030       -0.78460        1.26420
C          7.57970       -1.80030        1.28690
C          6.50490       -1.79490        0.37860
C          6.41940       -0.75570       -0.56620
C          7.37870        0.25460       -0.59550
N          5.48760       -2.74840        0.47850
H          0.45280        0.14770        0.08180
H          0.44630       -1.60900        0.08860
H          2.99000       -0.01510       -0.52720
H          2.87220       -1.71590       -0.07200
H          4.22890       -1.50790        1.67370
H          5.77520       -1.66980        3.57490
H          4.47950       -0.78100        6.21760
H          6.01560       -0.18660        5.57240
H          5.86180       -1.89520        6.06450
H          3.09670       -2.53410        4.82580
H          4.56700       -3.53360        4.75300
H          3.71860       -3.08100        3.25430
H          5.44290        0.57010        1.50190
H          6.41940        4.42190        1.54610
H          5.07340        3.86150        2.54830
H          3.05320        2.93440        1.50730
H          1.78230        2.32620       -0.49630
H          5.25900        3.00300       -2.94440
H          6.55300        3.65690       -0.90590
H          3.09480        0.23280       -2.46420
H          2.50250        0.53160       -4.10200
H          0.27770        0.68630       -3.46920
H          0.63690        1.42350       -1.92380
H         -0.36620       -1.01900       -2.03790
H          1.27650       -1.54170       -2.36700
H          6.32330        3.00320        4.48020
H          8.65280        3.87160        1.76910
H          9.43350        3.58830        3.32880
H         11.16320        0.58890        2.32240
H         10.49080        1.39040        3.75120
H         11.76040        3.49480        3.08770
H         12.40290        2.61780        1.68990
H         13.54770        0.97480        3.24810
H         12.89090        1.84770        4.65270
H         14.07390        2.63820        3.58670
H          9.34110       -0.79250        1.99360
H          7.65890       -2.60090        2.02640
H          5.58570       -0.72760       -1.27210
H          7.29100        1.07620       -1.30640
H          4.99350       -2.94260       -0.38770
H          5.74440       -3.60550        0.95930
