rmsd231.gzmat
 OpenBabel08211713413D

 85 87  0  0  1  0  0  0  0  0999 V2000
    0.0000    0.0000    0.0000 C   0  0  0  0  0  0  0  0  0  0  0  0
    1.5300    0.0000    0.0000 C   0  0  0  0  0  0  0  0  0  0  0  0
    2.0515    0.0000    1.4174 C   0  0  0  0  0  0  0  0  0  0  0  0
    1.3623    0.0884    2.4075 O   0  0  0  0  0  0  0  0  0  0  0  0
    3.4354   -0.1220    1.5149 N   0  0  0  0  0  0  0  0  0  0  0  0
    4.1150    0.1280    2.7856 C   0  0  1  0  0  0  0  0  0  0  0  0
    3.3493    0.2130    3.6137 H   0  0  0  0  0  0  0  0  0  0  0  0
    5.1188   -1.0060    3.1159 C   0  0  0  0  0  0  0  0  0  0  0  0
    6.0482   -0.5693    4.2509 C   0  0  0  0  0  0  0  0  0  0  0  0
    4.3471   -2.2655    3.5169 C   0  0  0  0  0  0  0  0  0  0  0  0
    4.8308    1.4895    2.6675 C   0  0  0  0  0  0  0  0  0  0  0  0
    4.5444    2.4190    3.4031 O   0  0  0  0  0  0  0  0  0  0  0  0
    5.7156    1.6212    1.6223 N   0  0  0  0  0  0  0  0  0  0  0  0
    6.3559    2.9114    1.3216 C   0  0  1  0  0  0  0  0  0  0  0  0
    6.9911    2.7492    0.4067 H   0  0  0  0  0  0  0  0  0  0  0  0
    5.3167    4.0034    1.0128 C   0  0  0  0  0  0  0  0  0  0  0  0
    4.3350    3.6408   -0.0586 C   0  0  0  0  0  0  0  0  0  0  0  0
    3.0882    4.2810   -0.0500 C   0  0  0  0  0  0  0  0  0  0  0  0
    2.1312    3.9856   -1.0127 C   0  0  0  0  0  0  0  0  0  0  0  0
    2.4323    3.0296   -1.9849 C   0  0  0  0  0  0  0  0  0  0  0  0
    3.6638    2.3772   -2.0145 C   0  0  0  0  0  0  0  0  0  0  0  0
    4.6171    2.7006   -1.0518 C   0  0  0  0  0  0  0  0  0  0  0  0
    1.5112    2.8410   -2.9858 O   0  0  0  0  0  0  0  0  0  0  0  0
    0.8787    1.5633   -2.9837 C   0  0  0  0  0  0  0  0  0  0  0  0
   -0.2869    1.5658   -1.9898 C   0  0  0  0  0  0  0  0  0  0  0  0
   -0.5660    0.1717   -1.4147 C   0  0  0  0  0  0  0  0  0  0  0  0
    7.2764    3.2896    2.5194 C   0  0  2  0  0  0  0  0  0  0  0  0
    7.5263    2.3625    3.0909 H   0  0  0  0  0  0  0  0  0  0  0  0
    6.6080    4.1524    3.4094 O   0  0  0  0  0  0  0  0  0  0  0  0
    8.5606    4.0299    2.0862 C   0  0  0  0  0  0  0  0  0  0  0  0
    9.7893    3.2329    2.2023 N   0  0  0  0  0  0  0  0  0  0  0  0
   10.4077    3.2534    3.5390 C   0  0  0  0  0  0  0  0  0  0  0  0
    9.5591    2.6463    4.6737 C   0  0  0  0  0  0  0  0  0  0  0  0
   10.3476    2.6549    5.9810 C   0  0  0  0  0  0  0  0  0  0  0  0
    9.9003    1.7483    1.2822 S   0  0  0  0  0  0  0  0  0  0  0  0
   10.8532    0.9072    1.9702 O   0  0  0  0  0  0  0  0  0  0  0  0
    8.5455    1.2705    1.0307 O   0  0  0  0  0  0  0  0  0  0  0  0
   10.5632    2.2799   -0.2355 C   0  0  0  0  0  0  0  0  0  0  0  0
   11.9179    2.6109   -0.3333 C   0  0  0  0  0  0  0  0  0  0  0  0
   12.4545    3.0407   -1.5360 C   0  0  0  0  0  0  0  0  0  0  0  0
   11.6209    3.1430   -2.6726 C   0  0  0  0  0  0  0  0  0  0  0  0
   10.2527    2.8018   -2.5762 C   0  0  0  0  0  0  0  0  0  0  0  0
    9.7425    2.3702   -1.3635 C   0  0  0  0  0  0  0  0  0  0  0  0
   12.1413    3.5729   -3.8714 N   0  0  0  0  0  0  0  0  0  0  0  0
   -0.3785    0.8028    0.6674 H   0  0  0  0  0  0  0  0  0  0  0  0
   -0.3746   -0.9403    0.4505 H   0  0  0  0  0  0  0  0  0  0  0  0
    1.9083    0.9093   -0.5210 H   0  0  0  0  0  0  0  0  0  0  0  0
    1.9158   -0.8676   -0.5675 H   0  0  0  0  0  0  0  0  0  0  0  0
    4.0147   -0.1039    0.6910 H   0  0  0  0  0  0  0  0  0  0  0  0
    5.7327   -1.2351    2.2115 H   0  0  0  0  0  0  0  0  0  0  0  0
    5.4883   -0.1855    5.1127 H   0  0  0  0  0  0  0  0  0  0  0  0
    6.7459    0.2145    3.9335 H   0  0  0  0  0  0  0  0  0  0  0  0
    6.6570   -1.4096    4.6054 H   0  0  0  0  0  0  0  0  0  0  0  0
    3.7713   -2.1119    4.4375 H   0  0  0  0  0  0  0  0  0  0  0  0
    5.0222   -3.1100    3.6873 H   0  0  0  0  0  0  0  0  0  0  0  0
    3.6346   -2.5603    2.7364 H   0  0  0  0  0  0  0  0  0  0  0  0
    6.2003    0.8175    1.2322 H   0  0  0  0  0  0  0  0  0  0  0  0
    5.8528    4.9366    0.7382 H   0  0  0  0  0  0  0  0  0  0  0  0
    4.7628    4.2649    1.9476 H   0  0  0  0  0  0  0  0  0  0  0  0
    2.8616    5.0146    0.7247 H   0  0  0  0  0  0  0  0  0  0  0  0
    1.1661    4.4862   -1.0239 H   0  0  0  0  0  0  0  0  0  0  0  0
    3.8792    1.6500   -2.7906 H   0  0  0  0  0  0  0  0  0  0  0  0
    5.5876    2.2080   -1.0810 H   0  0  0  0  0  0  0  0  0  0  0  0
    1.6109    0.7645   -2.7856 H   0  0  0  0  0  0  0  0  0  0  0  0
    0.5346    1.4845   -4.0319 H   0  0  0  0  0  0  0  0  0  0  0  0
   -1.1939    1.9674   -2.4784 H   0  0  0  0  0  0  0  0  0  0  0  0
   -0.0717    2.2844   -1.1715 H   0  0  0  0  0  0  0  0  0  0  0  0
   -1.6598   -0.0032   -1.3841 H   0  0  0  0  0  0  0  0  0  0  0  0
   -0.1693   -0.6150   -2.0820 H   0  0  0  0  0  0  0  0  0  0  0  0
    5.7383    3.7270    3.6497 H   0  0  0  0  0  0  0  0  0  0  0  0
    8.4800    4.4021    1.0407 H   0  0  0  0  0  0  0  0  0  0  0  0
    8.6611    4.9500    2.7164 H   0  0  0  0  0  0  0  0  0  0  0  0
   10.6408    4.3175    3.7801 H   0  0  0  0  0  0  0  0  0  0  0  0
   11.3910    2.7259    3.4890 H   0  0  0  0  0  0  0  0  0  0  0  0
    9.2644    1.6094    4.4243 H   0  0  0  0  0  0  0  0  0  0  0  0
    8.6188    3.2220    4.7990 H   0  0  0  0  0  0  0  0  0  0  0  0
   11.2719    2.0717    5.8960 H   0  0  0  0  0  0  0  0  0  0  0  0
    9.7592    2.2174    6.7967 H   0  0  0  0  0  0  0  0  0  0  0  0
   10.6186    3.6714    6.2849 H   0  0  0  0  0  0  0  0  0  0  0  0
   12.5766    2.5343    0.5412 H   0  0  0  0  0  0  0  0  0  0  0  0
   13.5052    3.2978   -1.6074 H   0  0  0  0  0  0  0  0  0  0  0  0
    9.6105    2.8761   -3.4465 H   0  0  0  0  0  0  0  0  0  0  0  0
    8.6812    2.0941   -1.3036 H   0  0  0  0  0  0  0  0  0  0  0  0
   11.5718    3.6543   -4.6834 H   0  0  0  0  0  0  0  0  0  0  0  0
   13.0987    3.8307   -3.9571 H   0  0  0  0  0  0  0  0  0  0  0  0
  1 46  1  0  0  0  0
  1 45  1  0  0  0  0
  2  1  1  0  0  0  0
  2  3  1  0  0  0  0
  3  5  1  0  0  0  0
  3  4  2  0  0  0  0
  5  6  1  0  0  0  0
  6  8  1  0  0  0  0
  6  7  1  1  0  0  0
  8 10  1  0  0  0  0
  8  9  1  0  0  0  0
  9 53  1  0  0  0  0
  9 51  1  0  0  0  0
 10 55  1  0  0  0  0
 10 54  1  0  0  0  0
 11  6  1  0  0  0  0
 11 12  2  0  0  0  0
 13 11  1  0  0  0  0
 14 15  1  6  0  0  0
 14 13  1  0  0  0  0
 14 27  1  0  0  0  0
 16 14  1  0  0  0  0
 16 59  1  0  0  0  0
 17 18  1  0  0  0  0
 17 16  1  0  0  0  0
 18 60  1  0  0  0  0
 19 18  2  0  0  0  0
 20 19  1  0  0  0  0
 21 20  2  0  0  0  0
 21 22  1  0  0  0  0
 22 17  2  0  0  0  0
 23 24  1  0  0  0  0
 23 20  1  0  0  0  0
 24 64  1  0  0  0  0
 24 25  1  0  0  0  0
 25 26  1  0  0  0  0
 25 67  1  0  0  0  0
 26 68  1  0  0  0  0
 26  1  1  0  0  0  0
 27 28  1  1  0  0  0
 27 29  1  0  0  0  0
 29 70  1  0  0  0  0
 30 31  1  0  0  0  0
 30 27  1  0  0  0  0
 30 72  1  0  0  0  0
 31 32  1  0  0  0  0
 32 73  1  0  0  0  0
 32 33  1  0  0  0  0
 33 76  1  0  0  0  0
 33 34  1  0  0  0  0
 34 79  1  0  0  0  0
 34 78  1  0  0  0  0
 35 36  2  0  0  0  0
 35 31  1  0  0  0  0
 37 35  2  0  0  0  0
 38 35  1  0  0  0  0
 39 38  1  0  0  0  0
 39 80  1  0  0  0  0
 40 39  2  0  0  0  0
 41 42  2  0  0  0  0
 41 40  1  0  0  0  0
 42 43  1  0  0  0  0
 43 83  1  0  0  0  0
 43 38  2  0  0  0  0
 44 41  1  0  0  0  0
 47  2  1  0  0  0  0
 48  2  1  0  0  0  0
 49  5  1  0  0  0  0
 50  8  1  0  0  0  0
 52  9  1  0  0  0  0
 56 10  1  0  0  0  0
 57 13  1  0  0  0  0
 58 16  1  0  0  0  0
 61 19  1  0  0  0  0
 62 21  1  0  0  0  0
 63 22  1  0  0  0  0
 65 24  1  0  0  0  0
 66 25  1  0  0  0  0
 69 26  1  0  0  0  0
 71 30  1  0  0  0  0
 74 32  1  0  0  0  0
 75 33  1  0  0  0  0
 77 34  1  0  0  0  0
 81 40  1  0  0  0  0
 82 42  1  0  0  0  0
 84 44  1  0  0  0  0
 85 44  1  0  0  0  0
M  END
$$$$
