rmsd204.gzmat
 OpenBabel08211713413D

 85 87  0  0  1  0  0  0  0  0999 V2000
    0.0000    0.0000    0.0000 C   0  0  0  0  0  0  0  0  0  0  0  0
    1.5303    0.0000    0.0000 C   0  0  0  0  0  0  0  0  0  0  0  0
    2.0478    0.0000    1.4195 C   0  0  0  0  0  0  0  0  0  0  0  0
    1.3675   -0.1588    2.4072 O   0  0  0  0  0  0  0  0  0  0  0  0
    3.4223    0.1878    1.5172 N   0  0  0  0  0  0  0  0  0  0  0  0
    4.0645    0.3843    2.8155 C   0  0  1  0  0  0  0  0  0  0  0  0
    3.2793    0.3760    3.6304 H   0  0  0  0  0  0  0  0  0  0  0  0
    5.1155   -0.7194    3.1023 C   0  0  0  0  0  0  0  0  0  0  0  0
    5.9783   -0.3149    4.2996 C   0  0  0  0  0  0  0  0  0  0  0  0
    4.3975   -2.0404    3.3895 C   0  0  0  0  0  0  0  0  0  0  0  0
    4.7107    1.7854    2.8018 C   0  0  0  0  0  0  0  0  0  0  0  0
    4.3536    2.6513    3.5818 O   0  0  0  0  0  0  0  0  0  0  0  0
    5.6570    2.0096    1.8319 N   0  0  0  0  0  0  0  0  0  0  0  0
    6.1698    3.3458    1.4961 C   0  0  1  0  0  0  0  0  0  0  0  0
    6.8203    3.2176    0.5788 H   0  0  0  0  0  0  0  0  0  0  0  0
    5.0288    4.3253    1.1672 C   0  0  0  0  0  0  0  0  0  0  0  0
    4.1107    3.8674    0.0767 C   0  0  0  0  0  0  0  0  0  0  0  0
    2.7853    4.3212    0.1013 C   0  0  0  0  0  0  0  0  0  0  0  0
    1.8921    3.9589   -0.8996 C   0  0  0  0  0  0  0  0  0  0  0  0
    2.3363    3.1175   -1.9213 C   0  0  0  0  0  0  0  0  0  0  0  0
    3.6455    2.6398   -1.9595 C   0  0  0  0  0  0  0  0  0  0  0  0
    4.5334    3.0343   -0.9615 C   0  0  0  0  0  0  0  0  0  0  0  0
    1.4809    2.8650   -2.9668 O   0  0  0  0  0  0  0  0  0  0  0  0
    0.8952    1.5650   -2.9523 C   0  0  0  0  0  0  0  0  0  0  0  0
   -0.3083    1.5457   -2.0053 C   0  0  0  0  0  0  0  0  0  0  0  0
   -0.5701    0.1523   -1.4157 C   0  0  0  0  0  0  0  0  0  0  0  0
    7.0586    3.8758    2.6565 C   0  0  2  0  0  0  0  0  0  0  0  0
    7.5779    3.0240    3.1534 H   0  0  0  0  0  0  0  0  0  0  0  0
    6.2815    4.5202    3.6371 O   0  0  0  0  0  0  0  0  0  0  0  0
    8.0674    4.9480    2.1738 C   0  0  0  0  0  0  0  0  0  0  0  0
    9.4688    4.5224    2.2367 N   0  0  0  0  0  0  0  0  0  0  0  0
   10.0202    4.4859    3.6038 C   0  0  0  0  0  0  0  0  0  0  0  0
   10.6989    5.8423    3.8943 C   0  0  0  0  0  0  0  0  0  0  0  0
   11.4148    5.7928    5.2409 C   0  0  0  0  0  0  0  0  0  0  0  0
   10.0159    3.3271    1.0878 S   0  0  0  0  0  0  0  0  0  0  0  0
   10.9252    2.4494    1.7928 O   0  0  0  0  0  0  0  0  0  0  0  0
    8.8299    2.7896    0.4383 O   0  0  0  0  0  0  0  0  0  0  0  0
   10.8981    4.2677   -0.0780 C   0  0  0  0  0  0  0  0  0  0  0  0
   12.2050    4.6794    0.1990 C   0  0  0  0  0  0  0  0  0  0  0  0
   12.9155    5.4397   -0.7153 C   0  0  0  0  0  0  0  0  0  0  0  0
   12.3104    5.7946   -1.9423 C   0  0  0  0  0  0  0  0  0  0  0  0
   10.9937    5.3687   -2.2280 C   0  0  0  0  0  0  0  0  0  0  0  0
   10.3034    4.6132   -1.2944 C   0  0  0  0  0  0  0  0  0  0  0  0
   13.0003    6.5601   -2.8546 N   0  0  0  0  0  0  0  0  0  0  0  0
   -0.3767    0.8115    0.6569 H   0  0  0  0  0  0  0  0  0  0  0  0
   -0.3728   -0.9346    0.4656 H   0  0  0  0  0  0  0  0  0  0  0  0
    1.9071    0.8982   -0.5373 H   0  0  0  0  0  0  0  0  0  0  0  0
    1.9179   -0.8800   -0.5490 H   0  0  0  0  0  0  0  0  0  0  0  0
    3.9771    0.3807    0.7000 H   0  0  0  0  0  0  0  0  0  0  0  0
    5.7685   -0.8537    2.2076 H   0  0  0  0  0  0  0  0  0  0  0  0
    5.3654   -0.0715    5.1771 H   0  0  0  0  0  0  0  0  0  0  0  0
    6.6035    0.5598    4.0846 H   0  0  0  0  0  0  0  0  0  0  0  0
    6.6542   -1.1272    4.5913 H   0  0  0  0  0  0  0  0  0  0  0  0
    3.7776   -1.9768    4.2924 H   0  0  0  0  0  0  0  0  0  0  0  0
    5.1093   -2.8591    3.5346 H   0  0  0  0  0  0  0  0  0  0  0  0
    3.7300   -2.3197    2.5648 H   0  0  0  0  0  0  0  0  0  0  0  0
    6.0328    1.2533    1.2792 H   0  0  0  0  0  0  0  0  0  0  0  0
    5.4676    5.3093    0.8939 H   0  0  0  0  0  0  0  0  0  0  0  0
    4.4423    4.5317    2.0954 H   0  0  0  0  0  0  0  0  0  0  0  0
    2.4492    4.9653    0.9148 H   0  0  0  0  0  0  0  0  0  0  0  0
    0.8694    4.3284   -0.9036 H   0  0  0  0  0  0  0  0  0  0  0  0
    3.9684    1.9976   -2.7733 H   0  0  0  0  0  0  0  0  0  0  0  0
    5.5681    2.6953   -1.0067 H   0  0  0  0  0  0  0  0  0  0  0  0
    1.6513    0.8021   -2.7072 H   0  0  0  0  0  0  0  0  0  0  0  0
    0.5961    1.4476   -4.0108 H   0  0  0  0  0  0  0  0  0  0  0  0
   -1.2059    1.9112   -2.5382 H   0  0  0  0  0  0  0  0  0  0  0  0
   -0.1498    2.2825   -1.1906 H   0  0  0  0  0  0  0  0  0  0  0  0
   -1.6630   -0.0303   -1.3799 H   0  0  0  0  0  0  0  0  0  0  0  0
   -0.1690   -0.6366   -2.0774 H   0  0  0  0  0  0  0  0  0  0  0  0
    5.4790    3.9626    3.8300 H   0  0  0  0  0  0  0  0  0  0  0  0
    7.8353    5.2852    1.1398 H   0  0  0  0  0  0  0  0  0  0  0  0
    7.9426    5.8570    2.8177 H   0  0  0  0  0  0  0  0  0  0  0  0
   10.7621    3.6625    3.7271 H   0  0  0  0  0  0  0  0  0  0  0  0
    9.2246    4.2936    4.3597 H   0  0  0  0  0  0  0  0  0  0  0  0
    9.9446    6.6508    3.8850 H   0  0  0  0  0  0  0  0  0  0  0  0
   11.4097    6.0908    3.0851 H   0  0  0  0  0  0  0  0  0  0  0  0
   10.7256    5.5425    6.0555 H   0  0  0  0  0  0  0  0  0  0  0  0
   11.8690    6.7591    5.4848 H   0  0  0  0  0  0  0  0  0  0  0  0
   12.2160    5.0449    5.2440 H   0  0  0  0  0  0  0  0  0  0  0  0
   12.6887    4.4002    1.1436 H   0  0  0  0  0  0  0  0  0  0  0  0
   13.9279    5.7587   -0.4949 H   0  0  0  0  0  0  0  0  0  0  0  0
   10.5291    5.6329   -3.1711 H   0  0  0  0  0  0  0  0  0  0  0  0
    9.2816    4.2843   -1.5285 H   0  0  0  0  0  0  0  0  0  0  0  0
   12.6042    6.7948   -3.7368 H   0  0  0  0  0  0  0  0  0  0  0  0
   13.9361    6.8512   -2.6828 H   0  0  0  0  0  0  0  0  0  0  0  0
  1 46  1  0  0  0  0
  1 45  1  0  0  0  0
  2  1  1  0  0  0  0
  2  3  1  0  0  0  0
  3  5  1  0  0  0  0
  3  4  2  0  0  0  0
  5  6  1  0  0  0  0
  6  8  1  0  0  0  0
  6  7  1  1  0  0  0
  8 10  1  0  0  0  0
  8  9  1  0  0  0  0
  9 53  1  0  0  0  0
  9 51  1  0  0  0  0
 10 55  1  0  0  0  0
 10 54  1  0  0  0  0
 11  6  1  0  0  0  0
 11 12  2  0  0  0  0
 13 11  1  0  0  0  0
 14 15  1  6  0  0  0
 14 13  1  0  0  0  0
 14 27  1  0  0  0  0
 16 14  1  0  0  0  0
 16 59  1  0  0  0  0
 17 18  1  0  0  0  0
 17 16  1  0  0  0  0
 18 60  1  0  0  0  0
 19 18  2  0  0  0  0
 20 19  1  0  0  0  0
 21 20  2  0  0  0  0
 21 22  1  0  0  0  0
 22 17  2  0  0  0  0
 23 24  1  0  0  0  0
 23 20  1  0  0  0  0
 24 64  1  0  0  0  0
 24 25  1  0  0  0  0
 25 26  1  0  0  0  0
 25 67  1  0  0  0  0
 26 68  1  0  0  0  0
 26  1  1  0  0  0  0
 27 28  1  1  0  0  0
 27 29  1  0  0  0  0
 29 70  1  0  0  0  0
 30 31  1  0  0  0  0
 30 27  1  0  0  0  0
 30 72  1  0  0  0  0
 31 32  1  0  0  0  0
 32 73  1  0  0  0  0
 32 33  1  0  0  0  0
 32 74  1  0  0  0  0
 33 34  1  0  0  0  0
 34 79  1  0  0  0  0
 34 78  1  0  0  0  0
 34 77  1  0  0  0  0
 35 36  2  0  0  0  0
 35 31  1  0  0  0  0
 37 35  2  0  0  0  0
 38 39  1  0  0  0  0
 38 35  1  0  0  0  0
 39 80  1  0  0  0  0
 40 81  1  0  0  0  0
 40 39  2  0  0  0  0
 41 40  1  0  0  0  0
 42 41  2  0  0  0  0
 42 43  1  0  0  0  0
 43 38  2  0  0  0  0
 44 85  1  0  0  0  0
 44 41  1  0  0  0  0
 47  2  1  0  0  0  0
 48  2  1  0  0  0  0
 49  5  1  0  0  0  0
 50  8  1  0  0  0  0
 52  9  1  0  0  0  0
 56 10  1  0  0  0  0
 57 13  1  0  0  0  0
 58 16  1  0  0  0  0
 61 19  1  0  0  0  0
 62 21  1  0  0  0  0
 63 22  1  0  0  0  0
 65 24  1  0  0  0  0
 66 25  1  0  0  0  0
 69 26  1  0  0  0  0
 71 30  1  0  0  0  0
 75 33  1  0  0  0  0
 76 33  1  0  0  0  0
 82 42  1  0  0  0  0
 83 43  1  0  0  0  0
 84 44  1  0  0  0  0
M  END
$$$$
