rmsd178.gzmat
 OpenBabel08211713383D

 43 44  0  0  0  0  0  0  0  0999 V2000
    0.0000    0.0000    0.0000 N   0  0  0  0  0  0  0  0  0  0  0  0
    1.4087    0.0000    0.0000 C   0  0  0  0  0  0  0  0  0  0  0  0
    2.0642    0.0000    1.0079 O   0  0  0  0  0  0  0  0  0  0  0  0
    1.8910    0.0293   -1.4362 C   0  0  0  0  0  0  0  0  0  0  0  0
    0.6092    0.0039   -2.2861 C   0  0  0  0  0  0  0  0  0  0  0  0
   -0.5356   -0.0360   -1.2958 C   0  0  0  0  0  0  0  0  0  0  0  0
   -1.8438   -0.0673   -1.6102 C   0  0  0  0  0  0  0  0  0  0  0  0
   -2.2800   -0.1162   -2.9876 C   0  0  0  0  0  0  0  0  0  0  0  0
   -2.8813    0.9676   -3.5909 N   0  0  0  0  0  0  0  0  0  0  0  0
   -3.0770    1.8514   -3.1727 H   0  0  0  0  0  0  0  0  0  0  0  0
   -3.1785    0.6353   -4.9154 C   0  0  0  0  0  0  0  0  0  0  0  0
   -2.7616   -0.6892   -5.1418 C   0  0  0  0  0  0  0  0  0  0  0  0
   -2.1964   -1.1619   -3.9295 C   0  0  0  0  0  0  0  0  0  0  0  0
   -1.6424   -2.5053   -3.6871 C   0  0  0  0  0  0  0  0  0  0  0  0
   -2.8809   -1.4377   -6.4027 C   0  0  0  0  0  0  0  0  0  0  0  0
   -3.8044    1.5649   -5.8300 C   0  0  0  0  0  0  0  0  0  0  0  0
   -4.1272    1.3816   -6.9775 O   0  0  0  0  0  0  0  0  0  0  0  0
   -3.9904    2.7693   -5.2089 O   0  0  0  0  0  0  0  0  0  0  0  0
   -4.6383    3.7990   -5.9540 C   0  0  0  0  0  0  0  0  0  0  0  0
   -6.1364    3.5468   -5.9918 C   0  0  0  0  0  0  0  0  0  0  0  0
   -0.7890   -0.1903    1.2166 C   0  0  0  0  0  0  0  0  0  0  0  0
   -1.2613   -1.6399    1.3609 C   0  0  0  0  0  0  0  0  0  0  0  0
    2.5042    0.9306   -1.6212 H   0  0  0  0  0  0  0  0  0  0  0  0
    2.5513   -0.8338   -1.6390 H   0  0  0  0  0  0  0  0  0  0  0  0
    0.5278    0.8901   -2.9447 H   0  0  0  0  0  0  0  0  0  0  0  0
    0.5710   -0.8721   -2.9640 H   0  0  0  0  0  0  0  0  0  0  0  0
   -2.6296   -0.0800   -0.8590 H   0  0  0  0  0  0  0  0  0  0  0  0
   -0.8101   -2.7316   -4.3696 H   0  0  0  0  0  0  0  0  0  0  0  0
   -2.4067   -3.2838   -3.8418 H   0  0  0  0  0  0  0  0  0  0  0  0
   -1.2717   -2.6215   -2.6588 H   0  0  0  0  0  0  0  0  0  0  0  0
   -3.2991   -2.4425   -6.2422 H   0  0  0  0  0  0  0  0  0  0  0  0
   -1.9001   -1.5642   -6.8872 H   0  0  0  0  0  0  0  0  0  0  0  0
   -3.5324   -0.9234   -7.1314 H   0  0  0  0  0  0  0  0  0  0  0  0
   -4.1953    3.8594   -6.9645 H   0  0  0  0  0  0  0  0  0  0  0  0
   -4.3697    4.6966   -5.3659 H   0  0  0  0  0  0  0  0  0  0  0  0
   -6.3683    2.6453   -6.5781 H   0  0  0  0  0  0  0  0  0  0  0  0
   -6.6717    4.3846   -6.4502 H   0  0  0  0  0  0  0  0  0  0  0  0
   -6.5428    3.3940   -4.9850 H   0  0  0  0  0  0  0  0  0  0  0  0
   -1.6569    0.5086    1.2001 H   0  0  0  0  0  0  0  0  0  0  0  0
   -0.1547    0.0977    2.0920 H   0  0  0  0  0  0  0  0  0  0  0  0
   -1.9095   -1.9420    0.5289 H   0  0  0  0  0  0  0  0  0  0  0  0
   -1.8234   -1.7770    2.2914 H   0  0  0  0  0  0  0  0  0  0  0  0
   -0.4140   -2.3365    1.3811 H   0  0  0  0  0  0  0  0  0  0  0  0
  1  2  1  0  0  0  0
  1 21  1  0  0  0  0
  2  3  2  0  0  0  0
  4  2  1  0  0  0  0
  5  4  1  0  0  0  0
  5  6  1  0  0  0  0
  6  1  1  0  0  0  0
  7  6  2  0  0  0  0
  7 27  1  0  0  0  0
  8  7  1  0  0  0  0
  9 10  1  0  0  0  0
  9  8  1  0  0  0  0
 11  9  1  0  0  0  0
 12 11  2  0  0  0  0
 12 13  1  0  0  0  0
 13 14  1  0  0  0  0
 13  8  2  0  0  0  0
 14 30  1  0  0  0  0
 15 31  1  0  0  0  0
 15 12  1  0  0  0  0
 16 18  1  0  0  0  0
 16 11  1  0  0  0  0
 17 16  2  0  0  0  0
 19 35  1  0  0  0  0
 19 18  1  0  0  0  0
 20 19  1  0  0  0  0
 20 38  1  0  0  0  0
 21 22  1  0  0  0  0
 21 40  1  0  0  0  0
 22 43  1  0  0  0  0
 22 42  1  0  0  0  0
 23  4  1  0  0  0  0
 24  4  1  0  0  0  0
 25  5  1  0  0  0  0
 26  5  1  0  0  0  0
 28 14  1  0  0  0  0
 29 14  1  0  0  0  0
 32 15  1  0  0  0  0
 33 15  1  0  0  0  0
 34 19  1  0  0  0  0
 36 20  1  0  0  0  0
 37 20  1  0  0  0  0
 39 21  1  0  0  0  0
 41 22  1  0  0  0  0
M  END
$$$$
