rmsd108.gzmat
 OpenBabel08211713383D

 43 44  0  0  0  0  0  0  0  0999 V2000
    0.0000    0.0000    0.0000 N   0  0  0  0  0  0  0  0  0  0  0  0
    1.4085    0.0000    0.0000 C   0  0  0  0  0  0  0  0  0  0  0  0
    2.0642    0.0000    1.0078 O   0  0  0  0  0  0  0  0  0  0  0  0
    1.8894    0.0273   -1.4371 C   0  0  0  0  0  0  0  0  0  0  0  0
    0.6081   -0.0286   -2.2857 C   0  0  0  0  0  0  0  0  0  0  0  0
   -0.5362   -0.0565   -1.2945 C   0  0  0  0  0  0  0  0  0  0  0  0
   -1.8445   -0.0987   -1.6075 C   0  0  0  0  0  0  0  0  0  0  0  0
   -2.2833   -0.1446   -2.9840 C   0  0  0  0  0  0  0  0  0  0  0  0
   -2.9364    0.9255   -3.5586 N   0  0  0  0  0  0  0  0  0  0  0  0
   -3.1661    1.7908   -3.1196 H   0  0  0  0  0  0  0  0  0  0  0  0
   -3.2275    0.6118   -4.8890 C   0  0  0  0  0  0  0  0  0  0  0  0
   -2.7522   -0.6864   -5.1493 C   0  0  0  0  0  0  0  0  0  0  0  0
   -2.1602   -1.1633   -3.9507 C   0  0  0  0  0  0  0  0  0  0  0  0
   -1.5513   -2.4896   -3.7466 C   0  0  0  0  0  0  0  0  0  0  0  0
   -2.8442   -1.4127   -6.4256 C   0  0  0  0  0  0  0  0  0  0  0  0
   -3.9149    1.5286   -5.7716 C   0  0  0  0  0  0  0  0  0  0  0  0
   -4.2459    1.3565   -6.9185 O   0  0  0  0  0  0  0  0  0  0  0  0
   -4.1581    2.7049   -5.1174 O   0  0  0  0  0  0  0  0  0  0  0  0
   -4.9119    3.6985   -5.8101 C   0  0  0  0  0  0  0  0  0  0  0  0
   -6.3936    3.3778   -5.6972 C   0  0  0  0  0  0  0  0  0  0  0  0
   -0.7909   -0.1307    1.2231 C   0  0  0  0  0  0  0  0  0  0  0  0
   -1.2159   -1.5811    1.4710 C   0  0  0  0  0  0  0  0  0  0  0  0
    2.4832    0.9408   -1.6280 H   0  0  0  0  0  0  0  0  0  0  0  0
    2.5665   -0.8234   -1.6365 H   0  0  0  0  0  0  0  0  0  0  0  0
    0.5181    0.8394   -2.9670 H   0  0  0  0  0  0  0  0  0  0  0  0
    0.5778   -0.9223   -2.9407 H   0  0  0  0  0  0  0  0  0  0  0  0
   -2.6288   -0.1135   -0.8548 H   0  0  0  0  0  0  0  0  0  0  0  0
   -0.6568   -2.6278   -4.3720 H   0  0  0  0  0  0  0  0  0  0  0  0
   -2.2551   -3.2952   -4.0118 H   0  0  0  0  0  0  0  0  0  0  0  0
   -1.2579   -2.6552   -2.7000 H   0  0  0  0  0  0  0  0  0  0  0  0
   -3.3053   -2.4037   -6.2967 H   0  0  0  0  0  0  0  0  0  0  0  0
   -1.8488   -1.5707   -6.8689 H   0  0  0  0  0  0  0  0  0  0  0  0
   -3.4466   -0.8676   -7.1738 H   0  0  0  0  0  0  0  0  0  0  0  0
   -4.5733    3.7642   -6.8605 H   0  0  0  0  0  0  0  0  0  0  0  0
   -4.6275    4.6152   -5.2608 H   0  0  0  0  0  0  0  0  0  0  0  0
   -6.6356    2.4476   -6.2318 H   0  0  0  0  0  0  0  0  0  0  0  0
   -7.0103    4.1748   -6.1256 H   0  0  0  0  0  0  0  0  0  0  0  0
   -6.6949    3.2396   -4.6518 H   0  0  0  0  0  0  0  0  0  0  0  0
   -1.6824    0.5342    1.1528 H   0  0  0  0  0  0  0  0  0  0  0  0
   -0.1726    0.2395    2.0787 H   0  0  0  0  0  0  0  0  0  0  0  0
   -1.8132   -1.9775    0.6409 H   0  0  0  0  0  0  0  0  0  0  0  0
   -1.8150   -1.6630    2.3851 H   0  0  0  0  0  0  0  0  0  0  0  0
   -0.3444   -2.2375    1.5888 H   0  0  0  0  0  0  0  0  0  0  0  0
  1  2  1  0  0  0  0
  1 21  1  0  0  0  0
  2  3  2  0  0  0  0
  4  2  1  0  0  0  0
  5  4  1  0  0  0  0
  5  6  1  0  0  0  0
  6  1  1  0  0  0  0
  7  6  2  0  0  0  0
  7 27  1  0  0  0  0
  8  7  1  0  0  0  0
  9 10  1  0  0  0  0
  9  8  1  0  0  0  0
 11  9  1  0  0  0  0
 12 11  2  0  0  0  0
 12 13  1  0  0  0  0
 13 14  1  0  0  0  0
 13  8  2  0  0  0  0
 14 30  1  0  0  0  0
 15 31  1  0  0  0  0
 15 12  1  0  0  0  0
 16 18  1  0  0  0  0
 16 11  1  0  0  0  0
 17 16  2  0  0  0  0
 19 20  1  0  0  0  0
 19 35  1  0  0  0  0
 19 18  1  0  0  0  0
 20 38  1  0  0  0  0
 21 22  1  0  0  0  0
 21 40  1  0  0  0  0
 22 43  1  0  0  0  0
 22 42  1  0  0  0  0
 23  4  1  0  0  0  0
 24  4  1  0  0  0  0
 25  5  1  0  0  0  0
 26  5  1  0  0  0  0
 28 14  1  0  0  0  0
 29 14  1  0  0  0  0
 32 15  1  0  0  0  0
 33 15  1  0  0  0  0
 34 19  1  0  0  0  0
 36 20  1  0  0  0  0
 37 20  1  0  0  0  0
 39 21  1  0  0  0  0
 41 22  1  0  0  0  0
M  END
$$$$
