rmsd245.gzmat
 OpenBabel08211713383D

 43 44  0  0  0  0  0  0  0  0999 V2000
    0.0000    0.0000    0.0000 N   0  0  0  0  0  0  0  0  0  0  0  0
    1.4090    0.0000    0.0000 C   0  0  0  0  0  0  0  0  0  0  0  0
    2.0644    0.0000    1.0081 O   0  0  0  0  0  0  0  0  0  0  0  0
    1.8906    0.0278   -1.4366 C   0  0  0  0  0  0  0  0  0  0  0  0
    0.6088   -0.0042   -2.2860 C   0  0  0  0  0  0  0  0  0  0  0  0
   -0.5349   -0.0602   -1.2951 C   0  0  0  0  0  0  0  0  0  0  0  0
   -1.8414   -0.1280   -1.6108 C   0  0  0  0  0  0  0  0  0  0  0  0
   -2.2721   -0.2163   -2.9882 C   0  0  0  0  0  0  0  0  0  0  0  0
   -2.8850    0.8414   -3.6250 N   0  0  0  0  0  0  0  0  0  0  0  0
   -3.0910    1.7359   -3.2353 H   0  0  0  0  0  0  0  0  0  0  0  0
   -3.1780    0.4643   -4.9388 C   0  0  0  0  0  0  0  0  0  0  0  0
   -2.7435   -0.8607   -5.1250 C   0  0  0  0  0  0  0  0  0  0  0  0
   -2.1735   -1.2888   -3.8980 C   0  0  0  0  0  0  0  0  0  0  0  0
   -1.6002   -2.6167   -3.6166 C   0  0  0  0  0  0  0  0  0  0  0  0
   -2.8561   -1.6562   -6.3573 C   0  0  0  0  0  0  0  0  0  0  0  0
   -3.8247    1.3539   -5.8784 C   0  0  0  0  0  0  0  0  0  0  0  0
   -4.1741    1.1218   -7.0091 O   0  0  0  0  0  0  0  0  0  0  0  0
   -3.9966    2.5842   -5.3065 O   0  0  0  0  0  0  0  0  0  0  0  0
   -4.7039    3.5661   -6.0623 C   0  0  0  0  0  0  0  0  0  0  0  0
   -6.1991    3.3451   -5.8976 C   0  0  0  0  0  0  0  0  0  0  0  0
   -0.7868   -0.1771    1.2199 C   0  0  0  0  0  0  0  0  0  0  0  0
   -1.1841   -1.6415    1.4269 C   0  0  0  0  0  0  0  0  0  0  0  0
    2.4999    0.9314   -1.6233 H   0  0  0  0  0  0  0  0  0  0  0  0
    2.5540   -0.8329   -1.6384 H   0  0  0  0  0  0  0  0  0  0  0  0
    0.5180    0.8861   -2.9380 H   0  0  0  0  0  0  0  0  0  0  0  0
    0.5770   -0.8760   -2.9695 H   0  0  0  0  0  0  0  0  0  0  0  0
   -2.6284   -0.1479   -0.8607 H   0  0  0  0  0  0  0  0  0  0  0  0
   -0.7248   -2.8242   -4.2495 H   0  0  0  0  0  0  0  0  0  0  0  0
   -2.3336   -3.4162   -3.8084 H   0  0  0  0  0  0  0  0  0  0  0  0
   -1.2851   -2.7186   -2.5683 H   0  0  0  0  0  0  0  0  0  0  0  0
   -3.4961   -2.5401   -6.2078 H   0  0  0  0  0  0  0  0  0  0  0  0
   -1.8737   -2.0187   -6.6953 H   0  0  0  0  0  0  0  0  0  0  0  0
   -3.2970   -1.0785   -7.1894 H   0  0  0  0  0  0  0  0  0  0  0  0
   -4.3852    3.5287   -7.1201 H   0  0  0  0  0  0  0  0  0  0  0  0
   -4.3533    4.5040   -5.5925 H   0  0  0  0  0  0  0  0  0  0  0  0
   -6.5122    2.4055   -6.3758 H   0  0  0  0  0  0  0  0  0  0  0  0
   -6.7782    4.1572   -6.3496 H   0  0  0  0  0  0  0  0  0  0  0  0
   -6.4789    3.2788   -4.8389 H   0  0  0  0  0  0  0  0  0  0  0  0
   -1.6892    0.4739    1.1683 H   0  0  0  0  0  0  0  0  0  0  0  0
   -0.1729    0.1806    2.0840 H   0  0  0  0  0  0  0  0  0  0  0  0
   -1.7869   -2.0211    0.5929 H   0  0  0  0  0  0  0  0  0  0  0  0
   -1.7680   -1.7634    2.3457 H   0  0  0  0  0  0  0  0  0  0  0  0
   -0.2996   -2.2852    1.5095 H   0  0  0  0  0  0  0  0  0  0  0  0
  1  2  1  0  0  0  0
  1 21  1  0  0  0  0
  2  3  2  0  0  0  0
  4  2  1  0  0  0  0
  5  4  1  0  0  0  0
  5  6  1  0  0  0  0
  6  1  1  0  0  0  0
  7  6  2  0  0  0  0
  7 27  1  0  0  0  0
  8  7  1  0  0  0  0
  9 10  1  0  0  0  0
  9  8  1  0  0  0  0
 11  9  1  0  0  0  0
 12 11  2  0  0  0  0
 12 13  1  0  0  0  0
 13 14  1  0  0  0  0
 13  8  2  0  0  0  0
 14 30  1  0  0  0  0
 15 31  1  0  0  0  0
 15 12  1  0  0  0  0
 16 18  1  0  0  0  0
 16 11  1  0  0  0  0
 17 16  2  0  0  0  0
 19 20  1  0  0  0  0
 19 35  1  0  0  0  0
 19 18  1  0  0  0  0
 20 38  1  0  0  0  0
 21 22  1  0  0  0  0
 21 40  1  0  0  0  0
 22 43  1  0  0  0  0
 22 42  1  0  0  0  0
 23  4  1  0  0  0  0
 24  4  1  0  0  0  0
 25  5  1  0  0  0  0
 26  5  1  0  0  0  0
 28 14  1  0  0  0  0
 29 14  1  0  0  0  0
 32 15  1  0  0  0  0
 33 15  1  0  0  0  0
 34 19  1  0  0  0  0
 36 20  1  0  0  0  0
 37 20  1  0  0  0  0
 39 21  1  0  0  0  0
 41 22  1  0  0  0  0
M  END
$$$$
