43
rmsd200.gzmat
N          0.00000        0.00000        0.00000
C          1.40880        0.00000        0.00000
O          2.06470        0.00000        1.00770
C          1.89040       -0.03010       -1.43660
C          0.60870        0.01230       -2.28640
C         -0.53510        0.05410       -1.29580
C         -1.84380        0.10120       -1.60670
C         -2.28750        0.16720       -2.98060
N         -2.94060       -0.89080       -3.57650
H         -3.16580       -1.76680       -3.15680
C         -3.24390       -0.54440       -4.89610
C         -2.77750        0.76250       -5.12730
C         -2.17540        1.21000       -3.92310
C         -1.56210        2.52970       -3.69190
C         -2.89830        1.52550       -6.37950
C         -3.92390       -1.44340       -5.80270
O         -4.24590       -1.24670       -6.94820
O         -4.16850       -2.63500       -5.17820
C         -4.89660       -3.61930       -5.91110
C         -6.37530       -3.26730       -5.91430
C         -0.78760        0.19130        1.21750
C         -1.18200        1.65920        1.40800
H          2.56040        0.82640       -1.63670
H          2.49340       -0.93810       -1.62380
H          0.57780        0.89460       -2.95640
H          0.51970       -0.86760       -2.95270
H         -2.62620        0.11250       -0.85170
H         -2.25290        3.34420       -3.96280
H         -0.65250        2.66630       -4.29560
H         -1.28980        2.67970       -2.63770
H         -1.92570        1.91670       -6.71310
H         -3.57360        2.38710       -6.25960
H         -3.30500        0.91270       -7.20360
H         -4.67340       -4.53460       -5.33180
H         -4.48130       -3.70390       -6.93210
H         -6.73600       -3.04390       -4.90300
H         -6.98170       -4.08520       -6.31660
H         -6.56580       -2.37630       -6.53150
H         -0.17660       -0.16010        2.08610
H         -1.69180       -0.45850        1.17210
H         -0.29770        2.29620        1.53700
H         -1.81090        1.78540        2.29620
H         -1.73910        2.04510        0.54530
