rmsd164.gzmat
 OpenBabel08211713383D

 43 44  0  0  0  0  0  0  0  0999 V2000
    0.0000    0.0000    0.0000 N   0  0  0  0  0  0  0  0  0  0  0  0
    1.4089    0.0000    0.0000 C   0  0  0  0  0  0  0  0  0  0  0  0
    2.0642    0.0000    1.0083 O   0  0  0  0  0  0  0  0  0  0  0  0
    1.8913    0.0276   -1.4365 C   0  0  0  0  0  0  0  0  0  0  0  0
    0.6091    0.0231   -2.2861 C   0  0  0  0  0  0  0  0  0  0  0  0
   -0.5353   -0.0378   -1.2962 C   0  0  0  0  0  0  0  0  0  0  0  0
   -1.8437   -0.0863   -1.6085 C   0  0  0  0  0  0  0  0  0  0  0  0
   -2.2848   -0.1284   -2.9841 C   0  0  0  0  0  0  0  0  0  0  0  0
   -2.9514    0.9352   -3.5557 N   0  0  0  0  0  0  0  0  0  0  0  0
   -3.1965    1.7946   -3.1135 H   0  0  0  0  0  0  0  0  0  0  0  0
   -3.2347    0.6226   -4.8880 C   0  0  0  0  0  0  0  0  0  0  0  0
   -2.7462   -0.6698   -5.1514 C   0  0  0  0  0  0  0  0  0  0  0  0
   -2.1502   -1.1433   -3.9535 C   0  0  0  0  0  0  0  0  0  0  0  0
   -1.5288   -2.4649   -3.7576 C   0  0  0  0  0  0  0  0  0  0  0  0
   -2.8375   -1.3971   -6.4270 C   0  0  0  0  0  0  0  0  0  0  0  0
   -3.9107    1.5392   -5.7791 C   0  0  0  0  0  0  0  0  0  0  0  0
   -4.1377    1.4040   -6.9561 O   0  0  0  0  0  0  0  0  0  0  0  0
   -4.2972    2.6570   -5.0930 O   0  0  0  0  0  0  0  0  0  0  0  0
   -4.9179    3.6997   -5.8441 C   0  0  0  0  0  0  0  0  0  0  0  0
   -3.8505    4.5318   -6.5363 C   0  0  0  0  0  0  0  0  0  0  0  0
   -0.7880   -0.1966    1.2163 C   0  0  0  0  0  0  0  0  0  0  0  0
   -1.2076   -1.6598    1.3837 C   0  0  0  0  0  0  0  0  0  0  0  0
    2.5193    0.9186   -1.6200 H   0  0  0  0  0  0  0  0  0  0  0  0
    2.5368   -0.8465   -1.6417 H   0  0  0  0  0  0  0  0  0  0  0  0
    0.5275    0.9251   -2.9234 H   0  0  0  0  0  0  0  0  0  0  0  0
    0.5706   -0.8359   -2.9849 H   0  0  0  0  0  0  0  0  0  0  0  0
   -2.6262   -0.1144   -0.8538 H   0  0  0  0  0  0  0  0  0  0  0  0
   -0.6812   -2.6211   -4.4415 H   0  0  0  0  0  0  0  0  0  0  0  0
   -2.2506   -3.2747   -3.9529 H   0  0  0  0  0  0  0  0  0  0  0  0
   -1.1624   -2.6054   -2.7311 H   0  0  0  0  0  0  0  0  0  0  0  0
   -3.4300   -2.3193   -6.3216 H   0  0  0  0  0  0  0  0  0  0  0  0
   -1.8433   -1.6860   -6.8000 H   0  0  0  0  0  0  0  0  0  0  0  0
   -3.3178   -0.7936   -7.2185 H   0  0  0  0  0  0  0  0  0  0  0  0
   -5.4520    4.2573   -5.0525 H   0  0  0  0  0  0  0  0  0  0  0  0
   -5.6425    3.2665   -6.5578 H   0  0  0  0  0  0  0  0  0  0  0  0
   -3.1180    4.9226   -5.8205 H   0  0  0  0  0  0  0  0  0  0  0  0
   -4.2896    5.3808   -7.0708 H   0  0  0  0  0  0  0  0  0  0  0  0
   -3.2990    3.9279   -7.2721 H   0  0  0  0  0  0  0  0  0  0  0  0
   -1.6802    0.4698    1.1841 H   0  0  0  0  0  0  0  0  0  0  0  0
   -0.1696    0.1298    2.0895 H   0  0  0  0  0  0  0  0  0  0  0  0
   -1.8036   -2.0110    0.5317 H   0  0  0  0  0  0  0  0  0  0  0  0
   -1.8069   -1.7946    2.2914 H   0  0  0  0  0  0  0  0  0  0  0  0
   -0.3341   -2.3192    1.4647 H   0  0  0  0  0  0  0  0  0  0  0  0
  1  2  1  0  0  0  0
  1 21  1  0  0  0  0
  2  3  2  0  0  0  0
  4  2  1  0  0  0  0
  5  4  1  0  0  0  0
  5  6  1  0  0  0  0
  6  1  1  0  0  0  0
  7  6  2  0  0  0  0
  7 27  1  0  0  0  0
  8  7  1  0  0  0  0
  9 10  1  0  0  0  0
  9  8  1  0  0  0  0
 11  9  1  0  0  0  0
 12 11  2  0  0  0  0
 12 13  1  0  0  0  0
 13 14  1  0  0  0  0
 13  8  2  0  0  0  0
 14 30  1  0  0  0  0
 15 31  1  0  0  0  0
 15 12  1  0  0  0  0
 16 18  1  0  0  0  0
 16 11  1  0  0  0  0
 17 16  2  0  0  0  0
 19 18  1  0  0  0  0
 19 34  1  0  0  0  0
 20 19  1  0  0  0  0
 20 36  1  0  0  0  0
 21 22  1  0  0  0  0
 21 40  1  0  0  0  0
 22 43  1  0  0  0  0
 22 42  1  0  0  0  0
 23  4  1  0  0  0  0
 24  4  1  0  0  0  0
 25  5  1  0  0  0  0
 26  5  1  0  0  0  0
 28 14  1  0  0  0  0
 29 14  1  0  0  0  0
 32 15  1  0  0  0  0
 33 15  1  0  0  0  0
 35 19  1  0  0  0  0
 37 20  1  0  0  0  0
 38 20  1  0  0  0  0
 39 21  1  0  0  0  0
 41 22  1  0  0  0  0
M  END
$$$$
