43
rmsd249.gzmat
N          0.00000        0.00000        0.00000
C          1.40870        0.00000        0.00000
O          2.06440        0.00000        1.00780
C          1.89090        0.03110       -1.43650
C          0.61000       -0.02340       -2.28660
C         -0.53420       -0.06200       -1.29580
C         -1.84150       -0.11700       -1.60930
C         -2.28030       -0.20320       -2.98380
N         -2.88910        0.86040       -3.61550
H         -3.07230        1.76050       -3.22690
C         -3.20690        0.48220       -4.92280
C         -2.79330       -0.84920       -5.11020
C         -2.20560       -1.27920       -3.89160
C         -1.63500       -2.61020       -3.62040
C         -2.94420       -1.64930       -6.33590
C         -3.84080        1.37910       -5.86390
O         -4.21980        1.13950       -6.98350
O         -3.97520        2.62000       -5.30510
C         -4.54820        3.64390       -6.11680
C         -3.53060        4.13470       -7.13330
C         -0.78670       -0.19540        1.21730
C         -1.18490       -1.66290        1.40210
H          2.48540        0.94440       -1.62470
H          2.56760       -0.81970       -1.63560
H          0.51830        0.85020       -2.96040
H          0.58250       -0.91090       -2.94950
H         -2.62730       -0.12810       -0.85750
H         -0.84840       -2.86870       -4.34500
H         -2.40550       -3.39480       -3.68900
H         -1.19850       -2.67810       -2.61390
H         -3.61110       -2.51030       -6.17200
H         -1.97880       -2.04610       -6.68390
H         -3.37690       -1.06350       -7.16670
H         -4.79940        4.40910       -5.35880
H         -5.46900        3.26230       -6.59370
H         -2.58320        4.40520       -6.65250
H         -3.89830        5.01080       -7.67730
H         -3.30870        3.35350       -7.87570
H         -1.68950        0.45630        1.17610
H         -0.17390        0.15100        2.08670
H         -1.77500       -2.03420        0.55460
H         -1.78410       -1.79530        2.30970
H         -0.30100       -2.30740        1.49330
