43
rmsd194.gzmat
N          0.00000        0.00000        0.00000
C          1.40880        0.00000        0.00000
O          2.06490        0.00000        1.00760
C          1.89140        0.02810       -1.43630
C          0.60990       -0.01320       -2.28650
C         -0.53440       -0.06160       -1.29590
C         -1.84290       -0.12530       -1.60530
C         -2.28890       -0.24120       -2.97480
N         -2.94960        0.78600       -3.61410
H         -3.17730        1.67880       -3.23350
C         -3.26170        0.37690       -4.91360
C         -2.79080       -0.93750       -5.08770
C         -2.17760       -1.32590       -3.86880
C         -1.56120       -2.63220       -3.57820
C         -2.91630       -1.75960       -6.30120
C         -3.96190        1.22430       -5.85340
O         -4.30330        0.96480       -6.98090
O         -4.20500        2.44580       -5.28860
C         -4.97770        3.37310       -6.04990
C         -6.45170        3.01930       -5.93700
C         -0.78880       -0.19020        1.21720
C         -1.23350       -1.64690        1.38040
H          2.49580        0.93540       -1.62270
H          2.55950       -0.82980       -1.63540
H          0.51830        0.87150       -2.94680
H          0.58210       -0.89040       -2.96310
H         -2.62480       -0.12580       -0.84930
H         -1.15490       -2.68140       -2.55800
H         -0.74260       -2.86030       -4.27630
H         -2.29760       -3.44730       -3.66660
H         -3.51420       -2.66500       -6.11190
H         -1.93370       -2.08840       -6.67160
H         -3.41010       -1.21480       -7.12580
H         -4.62490        3.38110       -7.09750
H         -4.72510        4.33000       -5.55630
H         -6.66060        2.05060       -6.41540
H         -7.08320        3.77010       -6.42320
H         -6.76510        2.93790       -4.88940
H         -1.66980        0.49150        1.18900
H         -0.16320        0.12290        2.09010
H         -1.82810       -1.98910        0.52370
H         -1.84230       -1.77330        2.28270
H         -0.37160       -2.32050        1.46800
