43

N          0.08540       -0.18620       -0.00410
C          1.46960       -0.24850        0.12480
O          2.06700       -0.21970        1.17690
C          2.04920       -0.30880       -1.28180
C          0.84410       -0.61010       -2.18240
C         -0.35390       -0.24910       -1.32920
C         -1.61640        0.01590       -1.73520
C         -2.08650       -0.05380       -3.11370
N         -2.85920        0.94630       -3.63830
H         -3.10120        1.81510       -3.18050
C         -3.20030        0.66010       -4.94410
C         -2.64200       -0.58110       -5.26560
C         -1.94710       -1.03760       -4.10850
C         -1.29000       -2.37520       -3.96720
C         -2.76910       -1.32020       -6.56070
C         -4.00510        1.57420       -5.74160
O         -4.35180        1.41010       -6.89310
O         -4.33810        2.68160       -5.01880
C         -5.11510        3.68430       -5.68920
C         -4.24160        4.60970       -6.51890
C         -0.77560       -0.03390        1.15610
C         -1.54840       -1.30680        1.49450
H          2.49770        0.67580       -1.49530
H          2.85690       -1.05140       -1.32870
H          0.83290       -0.06310       -3.13470
H          0.81280       -1.68180       -2.42990
H         -2.34570        0.34750       -0.98990
H         -0.27310       -2.39900       -4.39780
H         -1.87060       -3.15330       -4.48770
H         -1.21140       -2.66880       -2.91000
H         -3.26390       -2.29580       -6.41270
H         -1.77780       -1.53120       -6.99640
H         -3.35450       -0.74060       -7.28450
H         -5.62600        4.23120       -4.88320
H         -5.86770        3.18960       -6.32070
H         -3.45920        5.07270       -5.89750
H         -4.85380        5.41290       -6.95950
H         -3.76270        4.05340       -7.33740
H         -1.46270        0.81050        0.97970
H         -0.11170        0.24460        1.98650
H         -2.19010       -1.62420        0.65890
H         -2.18870       -1.14050        2.37460
H         -0.85280       -2.12750        1.72670
