43
rmsd245.gzmat
N          0.00000        0.00000        0.00000
C          1.40900        0.00000        0.00000
O          2.06440        0.00000        1.00810
C          1.89060        0.02780       -1.43660
C          0.60880       -0.00420       -2.28600
C         -0.53490       -0.06020       -1.29510
C         -1.84140       -0.12800       -1.61080
C         -2.27210       -0.21630       -2.98820
N         -2.88500        0.84140       -3.62500
H         -3.09100        1.73590       -3.23530
C         -3.17800        0.46430       -4.93880
C         -2.74350       -0.86070       -5.12500
C         -2.17350       -1.28880       -3.89800
C         -1.60020       -2.61670       -3.61660
C         -2.85610       -1.65620       -6.35730
C         -3.82470        1.35390       -5.87840
O         -4.17410        1.12180       -7.00910
O         -3.99660        2.58420       -5.30650
C         -4.70390        3.56610       -6.06230
C         -6.19910        3.34510       -5.89760
C         -0.78680       -0.17710        1.21990
C         -1.18410       -1.64150        1.42690
H          2.49990        0.93140       -1.62330
H          2.55400       -0.83290       -1.63840
H          0.51800        0.88610       -2.93800
H          0.57700       -0.87600       -2.96950
H         -2.62840       -0.14790       -0.86070
H         -0.72480       -2.82420       -4.24950
H         -2.33360       -3.41620       -3.80840
H         -1.28510       -2.71860       -2.56830
H         -3.49610       -2.54010       -6.20780
H         -1.87370       -2.01870       -6.69530
H         -3.29700       -1.07850       -7.18940
H         -4.38520        3.52870       -7.12010
H         -4.35330        4.50400       -5.59250
H         -6.51220        2.40550       -6.37580
H         -6.77820        4.15720       -6.34960
H         -6.47890        3.27880       -4.83890
H         -1.68920        0.47390        1.16830
H         -0.17290        0.18060        2.08400
H         -1.78690       -2.02110        0.59290
H         -1.76800       -1.76340        2.34570
H         -0.29960       -2.28520        1.50950
