
     RDKit          3D

 43 44  0  0  0  0  0  0  0  0999 V2000
    0.0854   -0.1862   -0.0041 N   0  0  0  0  0  0  0  0  0  0  0  0
    1.4696   -0.2485    0.1248 C   0  0  0  0  0  0  0  0  0  0  0  0
    2.0670   -0.2197    1.1769 O   0  0  0  0  0  0  0  0  0  0  0  0
    2.0492   -0.3088   -1.2818 C   0  0  0  0  0  0  0  0  0  0  0  0
    0.8441   -0.6101   -2.1824 C   0  0  0  0  0  0  0  0  0  0  0  0
   -0.3539   -0.2491   -1.3292 C   0  0  0  0  0  0  0  0  0  0  0  0
   -1.6164    0.0159   -1.7352 C   0  0  0  0  0  0  0  0  0  0  0  0
   -2.0865   -0.0538   -3.1137 C   0  0  0  0  0  0  0  0  0  0  0  0
   -2.8592    0.9463   -3.6383 N   0  0  0  0  0  0  0  0  0  0  0  0
   -3.1012    1.8151   -3.1805 H   0  0  0  0  0  0  0  0  0  0  0  0
   -3.2003    0.6601   -4.9441 C   0  0  0  0  0  0  0  0  0  0  0  0
   -2.6420   -0.5811   -5.2656 C   0  0  0  0  0  0  0  0  0  0  0  0
   -1.9471   -1.0376   -4.1085 C   0  0  0  0  0  0  0  0  0  0  0  0
   -1.2900   -2.3752   -3.9672 C   0  0  0  0  0  0  0  0  0  0  0  0
   -2.7691   -1.3202   -6.5607 C   0  0  0  0  0  0  0  0  0  0  0  0
   -4.0051    1.5742   -5.7416 C   0  0  0  0  0  0  0  0  0  0  0  0
   -4.3518    1.4101   -6.8931 O   0  0  0  0  0  0  0  0  0  0  0  0
   -4.3381    2.6816   -5.0188 O   0  0  0  0  0  0  0  0  0  0  0  0
   -5.1151    3.6843   -5.6892 C   0  0  0  0  0  0  0  0  0  0  0  0
   -4.2416    4.6097   -6.5189 C   0  0  0  0  0  0  0  0  0  0  0  0
   -0.7756   -0.0339    1.1561 C   0  0  0  0  0  0  0  0  0  0  0  0
   -1.5484   -1.3068    1.4945 C   0  0  0  0  0  0  0  0  0  0  0  0
    2.4977    0.6758   -1.4953 H   0  0  0  0  0  0  0  0  0  0  0  0
    2.8569   -1.0514   -1.3287 H   0  0  0  0  0  0  0  0  0  0  0  0
    0.8329   -0.0631   -3.1347 H   0  0  0  0  0  0  0  0  0  0  0  0
    0.8128   -1.6818   -2.4299 H   0  0  0  0  0  0  0  0  0  0  0  0
   -2.3457    0.3475   -0.9899 H   0  0  0  0  0  0  0  0  0  0  0  0
   -0.2731   -2.3990   -4.3978 H   0  0  0  0  0  0  0  0  0  0  0  0
   -1.8706   -3.1533   -4.4877 H   0  0  0  0  0  0  0  0  0  0  0  0
   -1.2114   -2.6688   -2.9100 H   0  0  0  0  0  0  0  0  0  0  0  0
   -3.2639   -2.2958   -6.4127 H   0  0  0  0  0  0  0  0  0  0  0  0
   -1.7778   -1.5312   -6.9964 H   0  0  0  0  0  0  0  0  0  0  0  0
   -3.3545   -0.7406   -7.2845 H   0  0  0  0  0  0  0  0  0  0  0  0
   -5.6260    4.2312   -4.8832 H   0  0  0  0  0  0  0  0  0  0  0  0
   -5.8677    3.1896   -6.3207 H   0  0  0  0  0  0  0  0  0  0  0  0
   -3.4592    5.0727   -5.8975 H   0  0  0  0  0  0  0  0  0  0  0  0
   -4.8538    5.4129   -6.9595 H   0  0  0  0  0  0  0  0  0  0  0  0
   -3.7627    4.0534   -7.3374 H   0  0  0  0  0  0  0  0  0  0  0  0
   -1.4627    0.8105    0.9797 H   0  0  0  0  0  0  0  0  0  0  0  0
   -0.1117    0.2446    1.9865 H   0  0  0  0  0  0  0  0  0  0  0  0
   -2.1901   -1.6242    0.6589 H   0  0  0  0  0  0  0  0  0  0  0  0
   -2.1887   -1.1405    2.3746 H   0  0  0  0  0  0  0  0  0  0  0  0
   -0.8528   -2.1275    1.7267 H   0  0  0  0  0  0  0  0  0  0  0  0
  1  2  1  0
  1  6  1  0
  1 21  1  0
  2  3  2  0
  2  4  1  0
  4  5  1  0
  4 23  1  0
  4 24  1  0
  5  6  1  0
  5 25  1  0
  5 26  1  0
  6  7  2  0
  7  8  1  0
  7 27  1  0
  8  9  1  0
  8 13  2  0
  9 10  1  0
  9 11  1  0
 11 12  2  0
 11 16  1  0
 12 13  1  0
 12 15  1  0
 13 14  1  0
 14 28  1  0
 14 29  1  0
 14 30  1  0
 15 31  1  0
 15 32  1  0
 15 33  1  0
 16 17  2  0
 16 18  1  0
 18 19  1  0
 19 20  1  0
 19 34  1  0
 19 35  1  0
 20 36  1  0
 20 37  1  0
 20 38  1  0
 21 22  1  0
 21 39  1  0
 21 40  1  0
 22 41  1  0
 22 42  1  0
 22 43  1  0
M  END

