38
rmsd93.gzmat
O          0.00000        0.00000        0.00000
C          1.38660        0.00000        0.00000
N          1.91300        0.00000        1.22180
C          0.81030        0.00280        2.09490
C         -0.34400        0.00420        1.35280
C         -1.80460       -0.01000        1.61490
C         -2.08160        0.70000        2.94970
C         -2.53790        0.71550        0.47640
C         -2.27100       -1.47400        1.69030
N          2.04500        0.00630       -1.21370
C          1.35120        0.03070       -2.42330
O          0.15590        0.03610       -2.56610
O          2.27580        0.01980       -3.42710
C          1.74730        0.27010       -4.73940
C          1.51990        1.73960       -4.90260
C          2.56360        2.56290       -5.32660
C          2.35830        3.93510       -5.45260
C          1.11460        4.48510       -5.14520
C          0.07340        3.66270       -4.71750
C          0.27370        2.28940       -4.59840
H          0.96690        0.00730        3.15590
H         -1.61860        0.17500        3.79180
H         -3.15780        0.75390        3.14820
H         -1.69670        1.72640        2.94290
H         -2.37670        0.21470       -0.48890
H         -2.18290        1.74640        0.36300
H         -3.61710        0.74810        0.65380
H         -2.06880       -2.00240        0.75040
H         -3.34770       -1.53580        1.87910
H         -1.75850       -2.01880        2.49050
H          3.06740        0.01480       -1.19420
H          0.83390       -0.33460       -4.90110
H          2.56840       -0.12460       -5.37140
H          3.53970        2.13670       -5.55140
H          3.16990        4.57800       -5.78700
H          0.95730        5.55820       -5.23580
H         -0.89560        4.09270       -4.47060
H         -0.53940        1.64600       -4.25270
