rmsd191.gzmat
 OpenBabel08211713403D

 38 39  0  0  1  0  0  0  0  0999 V2000
    0.0000    0.0000    0.0000 O   0  0  0  0  0  0  0  0  0  0  0  0
    1.3872    0.0000    0.0000 C   0  0  0  0  0  0  0  0  0  0  0  0
    1.9132    0.0000    1.2214 N   0  0  0  0  0  0  0  0  0  0  0  0
    0.8106    0.0017    2.0951 C   0  0  0  0  0  0  0  0  0  0  0  0
   -0.3438   -0.0024    1.3532 C   0  0  1  0  0  0  0  0  0  0  0  0
   -1.8064   -0.0042    1.6035 C   0  0  0  0  0  0  0  0  0  0  0  0
   -2.4408   -1.1723    0.8325 C   0  0  0  0  0  0  0  0  0  0  0  0
   -2.0636   -0.1649    3.1092 C   0  0  0  0  0  0  0  0  0  0  0  0
   -2.3904    1.3301    1.1108 C   0  0  0  0  0  0  0  0  0  0  0  0
    2.0409    0.0263   -1.2163 N   0  0  0  0  0  0  0  0  0  0  0  0
    1.3588   -0.1908   -2.4130 C   0  0  0  0  0  0  0  0  0  0  0  0
    0.1833   -0.4218   -2.5362 O   0  0  0  0  0  0  0  0  0  0  0  0
    2.2598   -0.0634   -3.4287 O   0  0  0  0  0  0  0  0  0  0  0  0
    1.7649   -0.3913   -4.7364 C   0  0  0  0  0  0  0  0  0  0  0  0
    2.0252   -1.8414   -4.9990 C   0  0  0  0  0  0  0  0  0  0  0  0
    1.2509   -2.8142   -4.3648 C   0  0  0  0  0  0  0  0  0  0  0  0
    1.5050   -4.1636   -4.5966 C   0  0  0  0  0  0  0  0  0  0  0  0
    2.5238   -4.5424   -5.4695 C   0  0  0  0  0  0  0  0  0  0  0  0
    3.2921   -3.5705   -6.1084 C   0  0  0  0  0  0  0  0  0  0  0  0
    3.0468   -2.2197   -5.8704 C   0  0  0  0  0  0  0  0  0  0  0  0
    0.9682    0.0046    3.1560 H   0  0  0  0  0  0  0  0  0  0  0  0
   -2.2825   -1.0668   -0.2499 H   0  0  0  0  0  0  0  0  0  0  0  0
   -3.5201   -1.2239    1.0045 H   0  0  0  0  0  0  0  0  0  0  0  0
   -2.0069   -2.1329    1.1304 H   0  0  0  0  0  0  0  0  0  0  0  0
   -1.6080    0.6484    3.6851 H   0  0  0  0  0  0  0  0  0  0  0  0
   -1.6595   -1.1109    3.4868 H   0  0  0  0  0  0  0  0  0  0  0  0
   -3.1381   -0.1568    3.3248 H   0  0  0  0  0  0  0  0  0  0  0  0
   -1.9310    2.1829    1.6223 H   0  0  0  0  0  0  0  0  0  0  0  0
   -3.4703    1.3781    1.2845 H   0  0  0  0  0  0  0  0  0  0  0  0
   -2.2221    1.4624    0.0342 H   0  0  0  0  0  0  0  0  0  0  0  0
    3.0544    0.1597   -1.2047 H   0  0  0  0  0  0  0  0  0  0  0  0
    2.3688    0.2910   -5.3682 H   0  0  0  0  0  0  0  0  0  0  0  0
    0.6929   -0.1249   -4.8321 H   0  0  0  0  0  0  0  0  0  0  0  0
    0.4460   -2.5190   -3.6874 H   0  0  0  0  0  0  0  0  0  0  0  0
    0.9068   -4.9223   -4.0949 H   0  0  0  0  0  0  0  0  0  0  0  0
    2.7197   -5.5972   -5.6525 H   0  0  0  0  0  0  0  0  0  0  0  0
    4.0866   -3.8665   -6.7904 H   0  0  0  0  0  0  0  0  0  0  0  0
    3.6561   -1.4649   -6.3640 H   0  0  0  0  0  0  0  0  0  0  0  0
  1  5  1  0  0  0  0
  2  1  1  0  0  0  0
  2  3  2  0  0  0  0
  3  4  2  0  0  0  0
  4 21  1  0  0  0  0
  5  6  1  1  0  0  0
  5  4  1  0  0  0  0
  6  8  1  0  0  0  0
  7 23  1  0  0  0  0
  7 24  1  0  0  0  0
  7  6  1  0  0  0  0
  8 27  1  0  0  0  0
  8 26  1  0  0  0  0
  8 25  1  0  0  0  0
  9 29  1  0  0  0  0
  9  6  1  0  0  0  0
  9 28  1  0  0  0  0
 10 31  1  0  0  0  0
 10  2  1  0  0  0  0
 11 10  1  0  0  0  0
 12 11  2  0  0  0  0
 13 11  1  0  0  0  0
 14 13  1  0  0  0  0
 15 14  1  0  0  0  0
 15 16  2  0  0  0  0
 16 34  1  0  0  0  0
 17 16  1  0  0  0  0
 17 35  1  0  0  0  0
 18 17  2  0  0  0  0
 19 20  2  0  0  0  0
 19 18  1  0  0  0  0
 20 15  1  0  0  0  0
 22  7  1  0  0  0  0
 30  9  1  0  0  0  0
 32 14  1  0  0  0  0
 33 14  1  0  0  0  0
 36 18  1  0  0  0  0
 37 19  1  0  0  0  0
 38 20  1  0  0  0  0
M  RAD  1   5   2
M  END
$$$$
