38
rmsd220.gzmat
O          0.00000        0.00000        0.00000
C          1.38680        0.00000        0.00000
N          1.91370        0.00000        1.22160
C          0.81110        0.00430        2.09550
C         -0.34320        0.00440        1.35390
C         -1.80590        0.00490        1.60340
C         -2.06480        0.09080        3.11510
C         -2.42850        1.21880        0.89460
C         -2.40270       -1.29490        1.03970
N          2.04350        0.01360       -1.21450
C          1.34950       -0.05040       -2.42260
O          0.15660       -0.13070       -2.56190
O          2.27230       -0.03100       -3.42790
C          1.72820        0.13620       -4.74690
C          1.39500        1.57870       -4.96300
C          2.36640        2.45240       -5.45330
C          2.06120        3.79980       -5.63420
C          0.78930        4.27550       -5.31910
C         -0.17970        3.40320       -4.82550
C          0.12080        2.05470       -4.64890
H          0.96840        0.00740        3.15660
H         -1.65120       -0.77470        3.64460
H         -3.14000        0.12050        3.32580
H         -1.62110        0.99410        3.54880
H         -2.23760        1.18790       -0.18690
H         -2.01440        2.15970        1.27270
H         -3.51330        1.24840        1.03700
H         -2.22330       -1.37610       -0.04090
H         -3.48500       -1.33640        1.19900
H         -1.96000       -2.17880        1.51140
H          3.06400        0.07370       -1.19770
H          0.86050       -0.53760       -4.88650
H          2.57630       -0.22130       -5.36560
H          3.36410        2.08650       -5.68900
H          2.81700        4.48160       -6.01820
H          0.55360        5.32930       -5.45560
H         -1.17060        3.77580       -4.57340
H         -0.63670        1.37320       -4.25230
