rmsd93.gzmat
 OpenBabel08211713403D

 38 39  0  0  1  0  0  0  0  0999 V2000
    0.0000    0.0000    0.0000 O   0  0  0  0  0  0  0  0  0  0  0  0
    1.3866    0.0000    0.0000 C   0  0  0  0  0  0  0  0  0  0  0  0
    1.9130    0.0000    1.2218 N   0  0  0  0  0  0  0  0  0  0  0  0
    0.8103    0.0028    2.0949 C   0  0  0  0  0  0  0  0  0  0  0  0
   -0.3440    0.0042    1.3528 C   0  0  2  0  0  0  0  0  0  0  0  0
   -1.8046   -0.0100    1.6149 C   0  0  0  0  0  0  0  0  0  0  0  0
   -2.0816    0.7000    2.9497 C   0  0  0  0  0  0  0  0  0  0  0  0
   -2.5379    0.7155    0.4764 C   0  0  0  0  0  0  0  0  0  0  0  0
   -2.2710   -1.4740    1.6903 C   0  0  0  0  0  0  0  0  0  0  0  0
    2.0450    0.0063   -1.2137 N   0  0  0  0  0  0  0  0  0  0  0  0
    1.3512    0.0307   -2.4233 C   0  0  0  0  0  0  0  0  0  0  0  0
    0.1559    0.0361   -2.5661 O   0  0  0  0  0  0  0  0  0  0  0  0
    2.2758    0.0198   -3.4271 O   0  0  0  0  0  0  0  0  0  0  0  0
    1.7473    0.2701   -4.7394 C   0  0  0  0  0  0  0  0  0  0  0  0
    1.5199    1.7396   -4.9026 C   0  0  0  0  0  0  0  0  0  0  0  0
    2.5636    2.5629   -5.3266 C   0  0  0  0  0  0  0  0  0  0  0  0
    2.3583    3.9351   -5.4526 C   0  0  0  0  0  0  0  0  0  0  0  0
    1.1146    4.4851   -5.1452 C   0  0  0  0  0  0  0  0  0  0  0  0
    0.0734    3.6627   -4.7175 C   0  0  0  0  0  0  0  0  0  0  0  0
    0.2737    2.2894   -4.5984 C   0  0  0  0  0  0  0  0  0  0  0  0
    0.9669    0.0073    3.1559 H   0  0  0  0  0  0  0  0  0  0  0  0
   -1.6186    0.1750    3.7918 H   0  0  0  0  0  0  0  0  0  0  0  0
   -3.1578    0.7539    3.1482 H   0  0  0  0  0  0  0  0  0  0  0  0
   -1.6967    1.7264    2.9429 H   0  0  0  0  0  0  0  0  0  0  0  0
   -2.3767    0.2147   -0.4889 H   0  0  0  0  0  0  0  0  0  0  0  0
   -2.1829    1.7464    0.3630 H   0  0  0  0  0  0  0  0  0  0  0  0
   -3.6171    0.7481    0.6538 H   0  0  0  0  0  0  0  0  0  0  0  0
   -2.0688   -2.0024    0.7504 H   0  0  0  0  0  0  0  0  0  0  0  0
   -3.3477   -1.5358    1.8791 H   0  0  0  0  0  0  0  0  0  0  0  0
   -1.7585   -2.0188    2.4905 H   0  0  0  0  0  0  0  0  0  0  0  0
    3.0674    0.0148   -1.1942 H   0  0  0  0  0  0  0  0  0  0  0  0
    0.8339   -0.3346   -4.9011 H   0  0  0  0  0  0  0  0  0  0  0  0
    2.5684   -0.1246   -5.3714 H   0  0  0  0  0  0  0  0  0  0  0  0
    3.5397    2.1367   -5.5514 H   0  0  0  0  0  0  0  0  0  0  0  0
    3.1699    4.5780   -5.7870 H   0  0  0  0  0  0  0  0  0  0  0  0
    0.9573    5.5582   -5.2358 H   0  0  0  0  0  0  0  0  0  0  0  0
   -0.8956    4.0927   -4.4706 H   0  0  0  0  0  0  0  0  0  0  0  0
   -0.5394    1.6460   -4.2527 H   0  0  0  0  0  0  0  0  0  0  0  0
  1  2  1  0  0  0  0
  1  5  1  0  0  0  0
  2  3  2  0  0  0  0
  3  4  2  0  0  0  0
  4 21  1  0  0  0  0
  5  6  1  1  0  0  0
  5  4  1  0  0  0  0
  6  9  1  0  0  0  0
  6  7  1  0  0  0  0
  7 23  1  0  0  0  0
  7 22  1  0  0  0  0
  8 27  1  0  0  0  0
  8  6  1  0  0  0  0
  9 29  1  0  0  0  0
  9 30  1  0  0  0  0
 10 31  1  0  0  0  0
 10  2  1  0  0  0  0
 11 10  1  0  0  0  0
 12 11  2  0  0  0  0
 13 11  1  0  0  0  0
 14 13  1  0  0  0  0
 15 14  1  0  0  0  0
 15 20  2  0  0  0  0
 16 15  1  0  0  0  0
 17 16  2  0  0  0  0
 17 18  1  0  0  0  0
 18 19  2  0  0  0  0
 19 20  1  0  0  0  0
 19 37  1  0  0  0  0
 20 38  1  0  0  0  0
 24  7  1  0  0  0  0
 25  8  1  0  0  0  0
 26  8  1  0  0  0  0
 28  9  1  0  0  0  0
 32 14  1  0  0  0  0
 33 14  1  0  0  0  0
 34 16  1  0  0  0  0
 35 17  1  0  0  0  0
 36 18  1  0  0  0  0
M  RAD  1   5   2
M  END
$$$$
