38
rmsd98.gzmat
O          0.00000        0.00000        0.00000
C          1.38700        0.00000        0.00000
N          1.91380        0.00000        1.22140
C          0.81150        0.00470        2.09480
C         -0.34340        0.00080        1.35260
C         -1.80350        0.02390        1.61720
C         -2.07940       -0.64800        2.97160
C         -2.26370        1.49160        1.65540
C         -2.54320       -0.72920        0.50160
N          2.04290        0.02270       -1.21480
C          1.36410       -0.18720       -2.41520
O          0.18320       -0.37770       -2.54900
O          2.28880       -0.15790       -3.41950
C          1.73590       -0.14070       -4.74490
C          1.22190        1.23110       -5.04740
C          2.10800        2.23220       -5.44720
C          1.63370        3.51600       -5.70710
C          0.27530        3.79860       -5.56990
C         -0.60850        2.80000       -5.16410
C         -0.13600        1.51660       -4.89820
H          0.96900        0.00760        3.15560
H         -1.69810       -1.67540        2.99280
H         -3.15520       -0.69230        3.17440
H         -1.61170       -0.10070        3.79680
H         -2.07440        1.99080        0.69710
H         -1.73650        2.05830        2.43050
H         -3.33680        1.56370        1.86040
H         -2.36040       -0.27510       -0.48250
H         -3.62480       -0.72780        0.66880
H         -2.21370       -1.77250        0.43490
H          3.05680        0.15290       -1.19930
H          0.96460       -0.92950       -4.83950
H          2.62630       -0.42140       -5.34350
H          3.16980        2.01420       -5.54780
H          2.32460        4.29850       -6.01200
H         -0.09470        4.80120       -5.77630
H         -1.66730        3.02310       -5.04750
H         -0.82450        0.74030       -4.55560
