rmsd220.gzmat
 OpenBabel08211713403D

 38 38  0  0  1  0  0  0  0  0999 V2000
    0.0000    0.0000    0.0000 O   0  0  0  0  0  0  0  0  0  0  0  0
    1.3868    0.0000    0.0000 C   0  0  0  0  0  0  0  0  0  0  0  0
    1.9137    0.0000    1.2216 N   0  0  0  0  0  0  0  0  0  0  0  0
    0.8111    0.0043    2.0955 C   0  0  0  0  0  0  0  0  0  0  0  0
   -0.3432    0.0044    1.3539 C   0  0  2  0  0  0  0  0  0  0  0  0
   -1.8059    0.0049    1.6034 C   0  0  0  0  0  0  0  0  0  0  0  0
   -2.0648    0.0908    3.1151 C   0  0  0  0  0  0  0  0  0  0  0  0
   -2.4285    1.2188    0.8946 C   0  0  0  0  0  0  0  0  0  0  0  0
   -2.4027   -1.2949    1.0397 C   0  0  0  0  0  0  0  0  0  0  0  0
    2.0435    0.0136   -1.2145 N   0  0  0  0  0  0  0  0  0  0  0  0
    1.3495   -0.0504   -2.4226 C   0  0  0  0  0  0  0  0  0  0  0  0
    0.1566   -0.1307   -2.5619 O   0  0  0  0  0  0  0  0  0  0  0  0
    2.2723   -0.0310   -3.4279 O   0  0  0  0  0  0  0  0  0  0  0  0
    1.7282    0.1362   -4.7469 C   0  0  0  0  0  0  0  0  0  0  0  0
    1.3950    1.5787   -4.9630 C   0  0  0  0  0  0  0  0  0  0  0  0
    2.3664    2.4524   -5.4533 C   0  0  0  0  0  0  0  0  0  0  0  0
    2.0612    3.7998   -5.6342 C   0  0  0  0  0  0  0  0  0  0  0  0
    0.7893    4.2755   -5.3191 C   0  0  0  0  0  0  0  0  0  0  0  0
   -0.1797    3.4032   -4.8255 C   0  0  0  0  0  0  0  0  0  0  0  0
    0.1208    2.0547   -4.6489 C   0  0  0  0  0  0  0  0  0  0  0  0
    0.9684    0.0074    3.1566 H   0  0  0  0  0  0  0  0  0  0  0  0
   -1.6512   -0.7747    3.6446 H   0  0  0  0  0  0  0  0  0  0  0  0
   -3.1400    0.1205    3.3258 H   0  0  0  0  0  0  0  0  0  0  0  0
   -1.6211    0.9941    3.5488 H   0  0  0  0  0  0  0  0  0  0  0  0
   -2.2376    1.1879   -0.1869 H   0  0  0  0  0  0  0  0  0  0  0  0
   -2.0144    2.1597    1.2727 H   0  0  0  0  0  0  0  0  0  0  0  0
   -3.5133    1.2484    1.0370 H   0  0  0  0  0  0  0  0  0  0  0  0
   -2.2233   -1.3761   -0.0409 H   0  0  0  0  0  0  0  0  0  0  0  0
   -3.4850   -1.3364    1.1990 H   0  0  0  0  0  0  0  0  0  0  0  0
   -1.9600   -2.1788    1.5114 H   0  0  0  0  0  0  0  0  0  0  0  0
    3.0640    0.0737   -1.1977 H   0  0  0  0  0  0  0  0  0  0  0  0
    0.8605   -0.5376   -4.8865 H   0  0  0  0  0  0  0  0  0  0  0  0
    2.5763   -0.2213   -5.3656 H   0  0  0  0  0  0  0  0  0  0  0  0
    3.3641    2.0865   -5.6890 H   0  0  0  0  0  0  0  0  0  0  0  0
    2.8170    4.4816   -6.0182 H   0  0  0  0  0  0  0  0  0  0  0  0
    0.5536    5.3293   -5.4556 H   0  0  0  0  0  0  0  0  0  0  0  0
   -1.1706    3.7758   -4.5734 H   0  0  0  0  0  0  0  0  0  0  0  0
   -0.6367    1.3732   -4.2523 H   0  0  0  0  0  0  0  0  0  0  0  0
  1  2  1  0  0  0  0
  1  5  1  0  0  0  0
  2  3  2  0  0  0  0
  3  4  2  0  0  0  0
  4 21  1  0  0  0  0
  5  6  1  1  0  0  0
  5  4  1  0  0  0  0
  6  7  1  0  0  0  0
  7 23  1  0  0  0  0
  7 24  1  0  0  0  0
  7 22  1  0  0  0  0
  8 27  1  0  0  0  0
  8 26  1  0  0  0  0
  8  6  1  0  0  0  0
  9 29  1  0  0  0  0
  9 30  1  0  0  0  0
  9  6  1  0  0  0  0
 10 31  1  0  0  0  0
 10  2  1  0  0  0  0
 11 10  1  0  0  0  0
 12 11  2  0  0  0  0
 13 11  1  0  0  0  0
 14 13  1  0  0  0  0
 15 14  1  0  0  0  0
 15 20  2  0  0  0  0
 16 15  1  0  0  0  0
 17 16  2  0  0  0  0
 17 18  1  0  0  0  0
 18 19  2  0  0  0  0
 19 20  1  0  0  0  0
 19 37  1  0  0  0  0
 20 38  1  0  0  0  0
 25  8  1  0  0  0  0
 32 14  1  0  0  0  0
 33 14  1  0  0  0  0
 34 16  1  0  0  0  0
 35 17  1  0  0  0  0
 36 18  1  0  0  0  0
M  RAD  3   5   2   9   2  28   2
M  END
$$$$
