rmsd211.gzmat
 OpenBabel08211713403D

 38 39  0  0  1  0  0  0  0  0999 V2000
    0.0000    0.0000    0.0000 O   0  0  0  0  0  0  0  0  0  0  0  0
    1.3873    0.0000    0.0000 C   0  0  0  0  0  0  0  0  0  0  0  0
    1.9141    0.0000    1.2214 N   0  0  0  0  0  0  0  0  0  0  0  0
    0.8123   -0.0024    2.0950 C   0  0  0  0  0  0  0  0  0  0  0  0
   -0.3425   -0.0003    1.3528 C   0  0  2  0  0  0  0  0  0  0  0  0
   -1.8010   -0.0398    1.6222 C   0  0  0  0  0  0  0  0  0  0  0  0
   -2.2391   -1.5146    1.6615 C   0  0  0  0  0  0  0  0  0  0  0  0
   -2.0808    0.6260    2.9789 C   0  0  0  0  0  0  0  0  0  0  0  0
   -2.5575    0.7017    0.5108 C   0  0  0  0  0  0  0  0  0  0  0  0
    2.0461   -0.0271   -1.2131 N   0  0  0  0  0  0  0  0  0  0  0  0
    1.3787    0.1907   -2.4180 C   0  0  0  0  0  0  0  0  0  0  0  0
    0.2065    0.4227   -2.5607 O   0  0  0  0  0  0  0  0  0  0  0  0
    2.2963    0.0539   -3.4196 O   0  0  0  0  0  0  0  0  0  0  0  0
    1.8511    0.4899   -4.7133 C   0  0  0  0  0  0  0  0  0  0  0  0
    1.9799    1.9784   -4.7884 C   0  0  0  0  0  0  0  0  0  0  0  0
    3.2033    2.5545   -5.1332 C   0  0  0  0  0  0  0  0  0  0  0  0
    3.3314    3.9412   -5.1708 C   0  0  0  0  0  0  0  0  0  0  0  0
    2.2387    4.7512   -4.8645 C   0  0  0  0  0  0  0  0  0  0  0  0
    1.0172    4.1748   -4.5195 C   0  0  0  0  0  0  0  0  0  0  0  0
    0.8865    2.7886   -4.4788 C   0  0  0  0  0  0  0  0  0  0  0  0
    0.9703   -0.0001    3.1558 H   0  0  0  0  0  0  0  0  0  0  0  0
   -2.0394   -2.0133    0.7054 H   0  0  0  0  0  0  0  0  0  0  0  0
   -3.3115   -1.6015    1.8627 H   0  0  0  0  0  0  0  0  0  0  0  0
   -1.7068   -2.0720    2.4398 H   0  0  0  0  0  0  0  0  0  0  0  0
   -1.7327    1.6652    2.9940 H   0  0  0  0  0  0  0  0  0  0  0  0
   -1.5847    0.0963    3.7991 H   0  0  0  0  0  0  0  0  0  0  0  0
   -3.1545    0.6364    3.1963 H   0  0  0  0  0  0  0  0  0  0  0  0
   -2.2272    1.7434    0.4250 H   0  0  0  0  0  0  0  0  0  0  0  0
   -3.6359    0.7048    0.6978 H   0  0  0  0  0  0  0  0  0  0  0  0
   -2.3932    0.2346   -0.4704 H   0  0  0  0  0  0  0  0  0  0  0  0
    3.0598   -0.1612   -1.1936 H   0  0  0  0  0  0  0  0  0  0  0  0
    0.8224    0.1270   -4.9047 H   0  0  0  0  0  0  0  0  0  0  0  0
    2.5605   -0.0503   -5.3724 H   0  0  0  0  0  0  0  0  0  0  0  0
    4.0599    1.9237   -5.3643 H   0  0  0  0  0  0  0  0  0  0  0  0
    4.2860    4.3919   -5.4341 H   0  0  0  0  0  0  0  0  0  0  0  0
    2.3417    5.8343   -4.8897 H   0  0  0  0  0  0  0  0  0  0  0  0
    0.1660    4.8069   -4.2741 H   0  0  0  0  0  0  0  0  0  0  0  0
   -0.0654    2.3365   -4.1901 H   0  0  0  0  0  0  0  0  0  0  0  0
  1  2  1  0  0  0  0
  1  5  1  0  0  0  0
  2  3  2  0  0  0  0
  3  4  2  0  0  0  0
  4 21  1  0  0  0  0
  5  6  1  6  0  0  0
  5  4  1  0  0  0  0
  6  7  1  0  0  0  0
  6  8  1  0  0  0  0
  7 23  1  0  0  0  0
  7 24  1  0  0  0  0
  8 25  1  0  0  0  0
  8 27  1  0  0  0  0
  8 26  1  0  0  0  0
  9 29  1  0  0  0  0
  9  6  1  0  0  0  0
 10 31  1  0  0  0  0
 10  2  1  0  0  0  0
 11 10  1  0  0  0  0
 12 11  2  0  0  0  0
 13 11  1  0  0  0  0
 14 13  1  0  0  0  0
 15 14  1  0  0  0  0
 15 20  2  0  0  0  0
 16 15  1  0  0  0  0
 17 16  2  0  0  0  0
 17 18  1  0  0  0  0
 18 19  2  0  0  0  0
 19 20  1  0  0  0  0
 19 37  1  0  0  0  0
 20 38  1  0  0  0  0
 22  7  1  0  0  0  0
 28  9  1  0  0  0  0
 30  9  1  0  0  0  0
 32 14  1  0  0  0  0
 33 14  1  0  0  0  0
 34 16  1  0  0  0  0
 35 17  1  0  0  0  0
 36 18  1  0  0  0  0
M  RAD  1   5   2
M  END
$$$$
