35
rmsd68.gzmat
S          0.00000        0.00000        0.00000
O          1.44700        0.00000        0.00000
O         -0.73360        0.00000       -1.23500
N         -0.29010        1.56860        0.79000
C         -1.50830        2.04020        1.19040
N         -2.58020        1.18590        1.14220
C         -3.76970        1.63880        1.57780
N         -4.00540        2.87490        2.06940
C         -2.95200        3.73250        2.11550
O         -3.12220        4.98260        2.56570
C         -4.43730        5.32150        3.02380
C         -1.66750        3.36430        1.68320
O         -0.56570        4.15490        1.82500
C         -0.51850        5.20570        0.85630
C         -0.58890       -1.20200        1.08840
C         -1.90120       -1.67740        0.97390
C         -2.38410       -2.63670        1.84910
C         -1.54140       -3.13580        2.86670
N         -2.00610       -4.09320        3.73930
C         -0.21400       -2.66170        2.98140
C          0.24550       -1.70560        2.09260
H          0.49460        2.22430        0.86330
H         -4.62370        0.94340        1.53110
H         -5.17080        5.20860        2.21830
H         -4.30780        6.37030        3.31450
H         -4.71560        4.69590        3.87850
H          0.41270        5.72390        1.11520
H         -1.37610        5.87570        0.97260
H         -0.47480        4.79900       -0.15750
H         -2.56710       -1.28580        0.18980
H         -3.40150       -2.99810        1.75760
H         -1.43920       -4.43510        4.48210
H         -2.94360       -4.42330        3.69330
H          0.43540       -3.04520        3.75950
H          1.28100       -1.35050        2.18570
