rmsd68.gzmat
 OpenBabel08211713383D

 35 36  0  0  1  0  0  0  0  0999 V2000
    0.0000    0.0000    0.0000 S   0  0  0  0  0  0  0  0  0  0  0  0
    1.4470    0.0000    0.0000 O   0  0  0  0  0  0  0  0  0  0  0  0
   -0.7336    0.0000   -1.2350 O   0  0  0  0  0  0  0  0  0  0  0  0
   -0.2901    1.5686    0.7900 N   0  0  0  0  0  0  0  0  0  0  0  0
   -1.5083    2.0402    1.1904 C   0  0  0  0  0  0  0  0  0  0  0  0
   -2.5802    1.1859    1.1422 N   0  0  0  0  0  0  0  0  0  0  0  0
   -3.7697    1.6388    1.5778 C   0  0  0  0  0  0  0  0  0  0  0  0
   -4.0054    2.8749    2.0694 N   0  0  0  0  0  0  0  0  0  0  0  0
   -2.9520    3.7325    2.1155 C   0  0  0  0  0  0  0  0  0  0  0  0
   -3.1222    4.9826    2.5657 O   0  0  0  0  0  0  0  0  0  0  0  0
   -4.4373    5.3215    3.0238 C   0  0  0  0  0  0  0  0  0  0  0  0
   -1.6675    3.3643    1.6832 C   0  0  1  0  0  0  0  0  0  0  0  0
   -0.5657    4.1549    1.8250 O   0  0  0  0  0  0  0  0  0  0  0  0
   -0.5185    5.2057    0.8563 C   0  0  0  0  0  0  0  0  0  0  0  0
   -0.5889   -1.2020    1.0884 C   0  0  0  0  0  0  0  0  0  0  0  0
   -1.9012   -1.6774    0.9739 C   0  0  0  0  0  0  0  0  0  0  0  0
   -2.3841   -2.6367    1.8491 C   0  0  0  0  0  0  0  0  0  0  0  0
   -1.5414   -3.1358    2.8667 C   0  0  0  0  0  0  0  0  0  0  0  0
   -2.0061   -4.0932    3.7393 N   0  0  0  0  0  0  0  0  0  0  0  0
   -0.2140   -2.6617    2.9814 C   0  0  0  0  0  0  0  0  0  0  0  0
    0.2455   -1.7056    2.0926 C   0  0  0  0  0  0  0  0  0  0  0  0
    0.4946    2.2243    0.8633 H   0  0  0  0  0  0  0  0  0  0  0  0
   -4.6237    0.9434    1.5311 H   0  0  0  0  0  0  0  0  0  0  0  0
   -5.1708    5.2086    2.2183 H   0  0  0  0  0  0  0  0  0  0  0  0
   -4.3078    6.3703    3.3145 H   0  0  0  0  0  0  0  0  0  0  0  0
   -4.7156    4.6959    3.8785 H   0  0  0  0  0  0  0  0  0  0  0  0
    0.4127    5.7239    1.1152 H   0  0  0  0  0  0  0  0  0  0  0  0
   -1.3761    5.8757    0.9726 H   0  0  0  0  0  0  0  0  0  0  0  0
   -0.4748    4.7990   -0.1575 H   0  0  0  0  0  0  0  0  0  0  0  0
   -2.5671   -1.2858    0.1898 H   0  0  0  0  0  0  0  0  0  0  0  0
   -3.4015   -2.9981    1.7576 H   0  0  0  0  0  0  0  0  0  0  0  0
   -1.4392   -4.4351    4.4821 H   0  0  0  0  0  0  0  0  0  0  0  0
   -2.9436   -4.4233    3.6933 H   0  0  0  0  0  0  0  0  0  0  0  0
    0.4354   -3.0452    3.7595 H   0  0  0  0  0  0  0  0  0  0  0  0
    1.2810   -1.3505    2.1857 H   0  0  0  0  0  0  0  0  0  0  0  0
  1  2  2  0  0  0  0
  1  4  1  0  0  0  0
  1 15  1  0  0  0  0
  3  1  2  0  0  0  0
  4 22  1  0  0  0  0
  4  5  1  0  0  0  0
  5 12  1  0  0  0  0
  6  5  2  0  0  0  0
  6  7  2  0  0  0  0
  7  8  2  0  0  0  0
  8  9  2  0  0  0  0
  9 10  1  0  0  0  0
 10 11  1  0  0  0  0
 11 25  1  0  0  0  0
 11 26  1  0  0  0  0
 12 13  1  1  0  0  0
 12  9  1  0  0  0  0
 14 28  1  0  0  0  0
 14 27  1  0  0  0  0
 14 13  1  0  0  0  0
 15 21  1  0  0  0  0
 16 15  2  0  0  0  0
 16 17  1  0  0  0  0
 17 18  2  0  0  0  0
 18 20  1  0  0  0  0
 18 19  1  0  0  0  0
 19 32  1  0  0  0  0
 20 34  1  0  0  0  0
 21 35  1  0  0  0  0
 21 20  2  0  0  0  0
 23  7  1  0  0  0  0
 24 11  1  0  0  0  0
 29 14  1  0  0  0  0
 30 16  1  0  0  0  0
 31 17  1  0  0  0  0
 33 19  1  0  0  0  0
M  RAD  1  12   2
M  END
$$$$
