35
rmsd13.gzmat
S          0.00000        0.00000        0.00000
O          1.44650        0.00000        0.00000
O         -0.73460        0.00000       -1.23520
N         -0.29290        1.57390        0.77820
C         -1.50570        2.03300        1.20930
N         -2.55940        1.15490        1.23230
C         -3.73880        1.59460        1.70720
N         -3.98100        2.83890        2.17420
C         -2.94720        3.72060        2.14660
O         -3.12590        4.97900        2.56920
C         -4.43520        5.31130        3.04850
C         -1.67640        3.36940        1.66320
O         -0.59270        4.19580        1.71210
C         -0.63280        5.20400        0.69820
C         -0.59200       -1.20650        1.08030
C          0.22850       -1.70820        2.09710
C         -0.23720       -2.67950        2.96650
C         -1.55750       -3.16590        2.82300
N         -2.02900       -4.13710        3.67670
C         -2.38680       -2.66610        1.79480
C         -1.89760       -1.69330        0.93840
H          0.48050        2.24670        0.80690
H         -4.57750        0.87980        1.71800
H         -5.17980        5.18500        2.25530
H         -4.31020        6.36460        3.32570
H         -4.69640        4.69280        3.91450
H          0.30190        5.75070        0.87110
H         -1.49540        5.86140        0.84460
H         -0.64950        4.75450       -0.29800
H          1.25720       -1.34120        2.21430
H          0.40170       -3.06520        3.75190
H         -2.96360       -4.47150        3.61320
H         -1.47100       -4.48690        4.42200
H         -3.39800       -3.03830        1.67910
H         -2.55260       -1.30130        0.14570
