35
rmsd248.gzmat
S          0.00000        0.00000        0.00000
O          1.43660        0.00000        0.00000
O         -0.73900        0.00000       -1.24370
N         -0.52720        1.56920        0.65380
C         -0.27280        2.03170        1.91430
N          0.28030        1.16730        2.82480
C          0.48990        1.61600        4.07590
N          0.20180        2.85880        4.52210
C         -0.33990        3.72540        3.62650
O         -0.62560        4.98220        3.99030
C         -0.33790        5.33870        5.34790
C         -0.60280        3.36060        2.29590
O         -1.25020        4.16530        1.40540
C         -0.40100        5.18580        0.87350
C         -0.63160       -1.19850        1.06630
C         -1.93150       -1.68550        0.88800
C         -2.45320       -2.63710        1.74700
C         -1.66160       -3.11690        2.81620
N         -2.16900       -4.06440        3.67670
C         -0.34580       -2.63520        2.99310
C          0.15350       -1.68280        2.11990
H         -0.97370        2.23220        0.01160
H          0.93300        0.91060        4.79810
H         -0.90740        4.71020        6.04120
H         -0.67390        6.38200        5.37860
H          0.73480        5.25020        5.54930
H         -1.07370        5.72050        0.19220
H          0.44270        4.74780        0.33400
H         -0.05230        5.85130        1.66890
H         -2.55450       -1.31940        0.06050
H         -3.46020       -3.01130        1.60570
H         -1.64630       -4.37930        4.46230
H         -3.10730       -4.38570        3.59760
H          0.26520       -3.00370        3.80840
H          1.17580       -1.30340        2.27060
