rmsd248.gzmat
 OpenBabel08211713383D

 35 36  0  0  1  0  0  0  0  0999 V2000
    0.0000    0.0000    0.0000 S   0  0  0  0  0  0  0  0  0  0  0  0
    1.4366    0.0000    0.0000 O   0  0  0  0  0  0  0  0  0  0  0  0
   -0.7390    0.0000   -1.2437 O   0  0  0  0  0  0  0  0  0  0  0  0
   -0.5272    1.5692    0.6538 N   0  0  0  0  0  0  0  0  0  0  0  0
   -0.2728    2.0317    1.9143 C   0  0  0  0  0  0  0  0  0  0  0  0
    0.2803    1.1673    2.8248 N   0  0  0  0  0  0  0  0  0  0  0  0
    0.4899    1.6160    4.0759 C   0  0  0  0  0  0  0  0  0  0  0  0
    0.2018    2.8588    4.5221 N   0  0  0  0  0  0  0  0  0  0  0  0
   -0.3399    3.7254    3.6265 C   0  0  0  0  0  0  0  0  0  0  0  0
   -0.6256    4.9822    3.9903 O   0  0  0  0  0  0  0  0  0  0  0  0
   -0.3379    5.3387    5.3479 C   0  0  0  0  0  0  0  0  0  0  0  0
   -0.6028    3.3606    2.2959 C   0  0  2  0  0  0  0  0  0  0  0  0
   -1.2502    4.1653    1.4054 O   0  0  0  0  0  0  0  0  0  0  0  0
   -0.4010    5.1858    0.8735 C   0  0  0  0  0  0  0  0  0  0  0  0
   -0.6316   -1.1985    1.0663 C   0  0  0  0  0  0  0  0  0  0  0  0
   -1.9315   -1.6855    0.8880 C   0  0  0  0  0  0  0  0  0  0  0  0
   -2.4532   -2.6371    1.7470 C   0  0  0  0  0  0  0  0  0  0  0  0
   -1.6616   -3.1169    2.8162 C   0  0  0  0  0  0  0  0  0  0  0  0
   -2.1690   -4.0644    3.6767 N   0  0  0  0  0  0  0  0  0  0  0  0
   -0.3458   -2.6352    2.9931 C   0  0  0  0  0  0  0  0  0  0  0  0
    0.1535   -1.6828    2.1199 C   0  0  0  0  0  0  0  0  0  0  0  0
   -0.9737    2.2322    0.0116 H   0  0  0  0  0  0  0  0  0  0  0  0
    0.9330    0.9106    4.7981 H   0  0  0  0  0  0  0  0  0  0  0  0
   -0.9074    4.7102    6.0412 H   0  0  0  0  0  0  0  0  0  0  0  0
   -0.6739    6.3820    5.3786 H   0  0  0  0  0  0  0  0  0  0  0  0
    0.7348    5.2502    5.5493 H   0  0  0  0  0  0  0  0  0  0  0  0
   -1.0737    5.7205    0.1922 H   0  0  0  0  0  0  0  0  0  0  0  0
    0.4427    4.7478    0.3340 H   0  0  0  0  0  0  0  0  0  0  0  0
   -0.0523    5.8513    1.6689 H   0  0  0  0  0  0  0  0  0  0  0  0
   -2.5545   -1.3194    0.0605 H   0  0  0  0  0  0  0  0  0  0  0  0
   -3.4602   -3.0113    1.6057 H   0  0  0  0  0  0  0  0  0  0  0  0
   -1.6463   -4.3793    4.4623 H   0  0  0  0  0  0  0  0  0  0  0  0
   -3.1073   -4.3857    3.5976 H   0  0  0  0  0  0  0  0  0  0  0  0
    0.2652   -3.0037    3.8084 H   0  0  0  0  0  0  0  0  0  0  0  0
    1.1758   -1.3034    2.2706 H   0  0  0  0  0  0  0  0  0  0  0  0
  1  4  1  0  0  0  0
  1 15  1  0  0  0  0
  2  1  2  0  0  0  0
  3  1  2  0  0  0  0
  4  5  1  0  0  0  0
  5 12  1  0  0  0  0
  5  6  2  0  0  0  0
  6  7  2  0  0  0  0
  7  8  2  0  0  0  0
  7 23  1  0  0  0  0
  9 10  1  0  0  0  0
  9  8  2  0  0  0  0
 10 11  1  0  0  0  0
 11 25  1  0  0  0  0
 11 26  1  0  0  0  0
 11 24  1  0  0  0  0
 12 13  1  1  0  0  0
 12  9  1  0  0  0  0
 14 13  1  0  0  0  0
 14 29  1  0  0  0  0
 15 21  1  0  0  0  0
 16 15  2  0  0  0  0
 16 17  1  0  0  0  0
 17 18  2  0  0  0  0
 18 20  1  0  0  0  0
 18 19  1  0  0  0  0
 19 32  1  0  0  0  0
 20 34  1  0  0  0  0
 21 35  1  0  0  0  0
 21 20  2  0  0  0  0
 22  4  1  0  0  0  0
 27 14  1  0  0  0  0
 28 14  1  0  0  0  0
 30 16  1  0  0  0  0
 31 17  1  0  0  0  0
 33 19  1  0  0  0  0
M  RAD  1  12   2
M  END
$$$$
