23
rmsd150.gzmat
N          0.00000        0.00000        0.00000
C          1.47570        0.00000        0.00000
H          1.84770        0.00000        1.06110
C          2.11330        1.17840       -0.75910
C          1.77590        1.17170       -2.25840
C          1.24930        2.52060       -2.75840
C         -0.12480        2.85860       -2.17540
O         -1.02810        1.77570       -2.28770
C          1.95480       -1.31810       -0.62760
O          3.09880       -1.54080       -0.92140
O          1.03010       -2.28180       -0.81840
H         -0.38570        0.48740       -0.80600
H         -0.38150        0.41720        0.83380
H          3.21560        1.13330       -0.62980
H          1.80010        2.12770       -0.28770
H          1.03850        0.37800       -2.49360
H          2.68030        0.88940       -2.83600
H          1.19750        2.50580       -3.86490
H          1.96650        3.32720       -2.50950
H         -0.57570        3.73910       -2.66850
H         -0.09150        3.03250       -1.08380
H         -1.07520        1.45150       -3.20850
H          0.11050       -1.98860       -0.54540
