23

N         -0.01770       -0.08740       -0.13470
C          1.43910       -0.03290        0.05590
H          1.74850        0.02360        1.11110
C          2.01430        1.17990       -0.70000
C          3.52530        1.42080       -0.60360
C          4.05340        1.83690        0.78580
C          4.69300        0.72590        1.62530
O          3.81550       -0.30610        2.00560
C          2.03120       -1.32830       -0.52470
O          3.14340       -1.73610       -0.25790
O          1.22780       -1.93570       -1.38250
H         -0.41270        0.83860       -0.29090
H         -0.48550       -0.48260        0.68050
H          1.48960        2.07410       -0.31640
H          1.72710        1.07970       -1.76170
H          3.75400        2.22250       -1.32410
H          4.06970        0.53260       -0.96400
H          3.24210        2.30600        1.37150
H          4.82160        2.61880        0.65540
H          5.08890        1.17650        2.55200
H          5.56660        0.32180        1.07420
H          3.72490       -0.92270        1.25150
H          0.38430       -1.40980       -1.32230
