23

N         -0.01870        0.01850       -0.05310
C          1.44700       -0.01130       -0.05900
H          1.78000       -0.02850        0.99390
C          2.17320        1.13860       -0.76860
C          1.88340        1.22840       -2.28430
C          1.21580        2.53080       -2.74080
C         -0.16490        2.77720       -2.13900
O         -1.05270        1.67910       -2.30850
C          1.90940       -1.37340       -0.63120
O          3.03700       -1.58820       -0.99750
O          0.93440       -2.27940       -0.64690
H         -0.41110        0.42690       -0.90900
H         -0.38660        0.54890        0.73340
H          3.24930        0.98330       -0.60850
H          1.91430        2.08360       -0.26140
H          1.24620        0.38340       -2.59500
H          2.82050        1.09720       -2.84460
H          1.12850        2.52440       -3.84340
H          1.85670        3.39670       -2.49570
H         -0.60240        3.70420       -2.55550
H         -0.09100        2.92280       -1.04960
H         -1.11730        1.47130       -3.25090
H          0.14130       -1.76950       -0.32980
