23
rmsd231.gzmat
N          0.00000        0.00000        0.00000
C          1.47770        0.00000        0.00000
H          1.86600        0.00000        1.05250
C          2.09700        1.16750       -0.78750
C          1.84770        2.52240       -0.10960
C          1.23100        3.55310       -1.06510
C         -0.27780        3.36910       -1.24260
O         -0.59220        2.20000       -1.97400
C          1.94290       -1.31460       -0.64970
O          3.08030       -1.52520       -0.97770
O          1.01890       -2.28000       -0.82330
H         -0.37160        0.57270       -0.75450
H         -0.37950        0.34140        0.86810
H          1.70050        1.16550       -1.82180
H          3.18820        0.99240       -0.90200
H          2.80680        2.91700        0.28280
H          1.20110        2.40740        0.78010
H          1.73850        3.51350       -2.04780
H          1.42530        4.57450       -0.67970
H         -0.73590        4.23240       -1.76100
H         -0.80180        3.20420       -0.28310
H         -0.15000        2.20000       -2.84560
H          0.09670       -1.97460       -0.56730
