23
rmsd189.gzmat
N          0.00000        0.00000        0.00000
C          1.47620        0.00000        0.00000
H          1.84210        0.00000        1.06320
C          2.11240        1.16800       -0.76920
C          1.95630        2.49140       -0.01440
C          2.46460        3.67250       -0.84640
C          3.99030        3.64420       -0.99200
O          4.43940        4.81910       -1.63470
C          1.94530       -1.32130       -0.62940
O          3.04410       -1.49550       -1.08170
O          1.06890       -2.34700       -0.62480
H         -0.37950        0.34610       -0.86980
H         -0.38100        0.54580        0.75620
H          1.67770        1.24530       -1.78370
H          3.19140        0.95140       -0.93690
H          2.49920        2.44820        0.95050
H          0.89450        2.66090        0.24750
H          2.16710        4.62840       -0.36850
H          1.98570        3.68160       -1.84240
H          4.34450        2.76330       -1.55540
H          4.50490        3.68940       -0.01370
H          4.08840        4.87550       -2.54370
H          0.17110       -2.09370       -0.26470
