23

N          0.03890       -0.02900        0.08720
C          1.50230       -0.04410       -0.03710
H          1.91460       -0.06360        0.98800
C          2.12510        1.13440       -0.78750
C          1.90480        2.48240       -0.09990
C          2.46520        3.68210       -0.86880
C          3.98910        3.70170       -0.98850
O          4.47150        4.88890       -1.58110
C          1.93800       -1.39070       -0.65970
O          3.03760       -1.58150       -1.11060
O          0.98370       -2.31940       -0.61240
H         -0.39470        0.39140       -0.73640
H         -0.27750        0.49910        0.89750
H          1.70760        1.16250       -1.81170
H          3.19570        0.91430       -0.90560
H          2.35450        2.45230        0.91010
H          0.82290        2.63620        0.05720
H          2.15860        4.61990       -0.37670
H          2.02410        3.70540       -1.88380
H          4.34750        2.80420       -1.53050
H          4.43530        3.65760        0.01960
H          4.15570        4.91660       -2.49360
H          0.20300       -1.84700       -0.22940
