
     RDKit          3D

 23 22  0  0  0  0  0  0  0  0999 V2000
    0.0389   -0.0290    0.0872 N   0  0  0  0  0  0  0  0  0  0  0  0
    1.5023   -0.0441   -0.0371 C   0  0  2  0  0  0  0  0  0  0  0  0
    1.9146   -0.0636    0.9880 H   0  0  0  0  0  0  0  0  0  0  0  0
    2.1251    1.1344   -0.7875 C   0  0  0  0  0  0  0  0  0  0  0  0
    1.9048    2.4824   -0.0999 C   0  0  0  0  0  0  0  0  0  0  0  0
    2.4652    3.6821   -0.8688 C   0  0  0  0  0  0  0  0  0  0  0  0
    3.9891    3.7017   -0.9885 C   0  0  0  0  0  0  0  0  0  0  0  0
    4.4715    4.8889   -1.5811 O   0  0  0  0  0  0  0  0  0  0  0  0
    1.9380   -1.3907   -0.6597 C   0  0  0  0  0  0  0  0  0  0  0  0
    3.0376   -1.5815   -1.1106 O   0  0  0  0  0  0  0  0  0  0  0  0
    0.9837   -2.3194   -0.6124 O   0  0  0  0  0  0  0  0  0  0  0  0
   -0.3947    0.3914   -0.7364 H   0  0  0  0  0  0  0  0  0  0  0  0
   -0.2775    0.4991    0.8975 H   0  0  0  0  0  0  0  0  0  0  0  0
    1.7076    1.1625   -1.8117 H   0  0  0  0  0  0  0  0  0  0  0  0
    3.1957    0.9143   -0.9056 H   0  0  0  0  0  0  0  0  0  0  0  0
    2.3545    2.4523    0.9101 H   0  0  0  0  0  0  0  0  0  0  0  0
    0.8229    2.6362    0.0572 H   0  0  0  0  0  0  0  0  0  0  0  0
    2.1586    4.6199   -0.3767 H   0  0  0  0  0  0  0  0  0  0  0  0
    2.0241    3.7054   -1.8838 H   0  0  0  0  0  0  0  0  0  0  0  0
    4.3475    2.8042   -1.5305 H   0  0  0  0  0  0  0  0  0  0  0  0
    4.4353    3.6576    0.0196 H   0  0  0  0  0  0  0  0  0  0  0  0
    4.1557    4.9166   -2.4936 H   0  0  0  0  0  0  0  0  0  0  0  0
    0.2030   -1.8470   -0.2294 H   0  0  0  0  0  0  0  0  0  0  0  0
  1  2  1  0
  1 12  1  0
  1 13  1  0
  2  3  1  1
  2  4  1  0
  2  9  1  0
  4  5  1  0
  4 14  1  0
  4 15  1  0
  5  6  1  0
  5 16  1  0
  5 17  1  0
  6  7  1  0
  6 18  1  0
  6 19  1  0
  7  8  1  0
  7 20  1  0
  7 21  1  0
  8 22  1  0
  9 10  2  0
  9 11  1  0
 11 23  1  0
M  END

