rmsd234.gzmat
 OpenBabel08211713423D

 23 22  0  0  1  0  0  0  0  0999 V2000
    0.0000    0.0000    0.0000 N   0  0  0  0  0  0  0  0  0  0  0  0
    1.4758    0.0000    0.0000 C   0  0  2  0  0  0  0  0  0  0  0  0
    1.8463    0.0000    1.0616 H   0  0  0  0  0  0  0  0  0  0  0  0
    2.1134    1.1794   -0.7575 C   0  0  0  0  0  0  0  0  0  0  0  0
    1.7751    1.1742   -2.2564 C   0  0  0  0  0  0  0  0  0  0  0  0
    1.2411    2.5204   -2.7557 C   0  0  0  0  0  0  0  0  0  0  0  0
   -0.1327    2.8539   -2.1696 C   0  0  0  0  0  0  0  0  0  0  0  0
   -1.0347    1.7704   -2.2894 O   0  0  0  0  0  0  0  0  0  0  0  0
    1.9544   -1.3173   -0.6294 C   0  0  0  0  0  0  0  0  0  0  0  0
    3.0949   -1.5327   -0.9418 O   0  0  0  0  0  0  0  0  0  0  0  0
    1.0336   -2.2882   -0.8002 O   0  0  0  0  0  0  0  0  0  0  0  0
   -0.3849    0.4743   -0.8140 H   0  0  0  0  0  0  0  0  0  0  0  0
   -0.3802    0.4334    0.8259 H   0  0  0  0  0  0  0  0  0  0  0  0
    3.2157    1.1327   -0.6290 H   0  0  0  0  0  0  0  0  0  0  0  0
    1.8013    2.1281   -0.2847 H   0  0  0  0  0  0  0  0  0  0  0  0
    1.0413    0.3770   -2.4923 H   0  0  0  0  0  0  0  0  0  0  0  0
    2.6809    0.8980   -2.8355 H   0  0  0  0  0  0  0  0  0  0  0  0
    1.1845    2.5021   -3.8623 H   0  0  0  0  0  0  0  0  0  0  0  0
    1.9557    3.3306   -2.5117 H   0  0  0  0  0  0  0  0  0  0  0  0
   -0.5841    3.7374   -2.6565 H   0  0  0  0  0  0  0  0  0  0  0  0
   -0.1014    3.0199   -1.0768 H   0  0  0  0  0  0  0  0  0  0  0  0
   -1.0919    1.4603   -3.2139 H   0  0  0  0  0  0  0  0  0  0  0  0
    0.1143   -1.9988   -0.5194 H   0  0  0  0  0  0  0  0  0  0  0  0
  1 13  1  0  0  0  0
  2  1  1  0  0  0  0
  2  3  1  1  0  0  0
  4 14  1  0  0  0  0
  4 15  1  0  0  0  0
  4  2  1  0  0  0  0
  5  4  1  0  0  0  0
  6 19  1  0  0  0  0
  6  5  1  0  0  0  0
  6  7  1  0  0  0  0
  7 21  1  0  0  0  0
  8  7  1  0  0  0  0
  9  2  1  0  0  0  0
 10  9  2  0  0  0  0
 11  9  1  0  0  0  0
 11 23  1  0  0  0  0
 12  1  1  0  0  0  0
 16  5  1  0  0  0  0
 17  5  1  0  0  0  0
 18  6  1  0  0  0  0
 20  7  1  0  0  0  0
 22  8  1  0  0  0  0
M  END
$$$$
