rmsd161.gzmat
 OpenBabel08211713423D

 23 22  0  0  1  0  0  0  0  0999 V2000
    0.0000    0.0000    0.0000 N   0  0  0  0  0  0  0  0  0  0  0  0
    1.4756    0.0000    0.0000 C   0  0  2  0  0  0  0  0  0  0  0  0
    1.8475    0.0000    1.0609 H   0  0  0  0  0  0  0  0  0  0  0  0
    2.1135    1.1785   -0.7589 C   0  0  0  0  0  0  0  0  0  0  0  0
    1.7654    1.1774   -2.2560 C   0  0  0  0  0  0  0  0  0  0  0  0
    1.2409    2.5290   -2.7506 C   0  0  0  0  0  0  0  0  0  0  0  0
   -0.1243    2.8760   -2.1519 C   0  0  0  0  0  0  0  0  0  0  0  0
   -1.0391    1.8028   -2.2669 O   0  0  0  0  0  0  0  0  0  0  0  0
    1.9553   -1.3168   -0.6301 C   0  0  0  0  0  0  0  0  0  0  0  0
    3.0990   -1.5353   -0.9289 O   0  0  0  0  0  0  0  0  0  0  0  0
    1.0320   -2.2820   -0.8197 O   0  0  0  0  0  0  0  0  0  0  0  0
   -0.3852    0.4899   -0.8045 H   0  0  0  0  0  0  0  0  0  0  0  0
   -0.3809    0.4167    0.8342 H   0  0  0  0  0  0  0  0  0  0  0  0
    3.2167    1.1278   -0.6374 H   0  0  0  0  0  0  0  0  0  0  0  0
    1.8092    2.1279   -0.2824 H   0  0  0  0  0  0  0  0  0  0  0  0
    1.0223    0.3872   -2.4875 H   0  0  0  0  0  0  0  0  0  0  0  0
    2.6647    0.8927   -2.8407 H   0  0  0  0  0  0  0  0  0  0  0  0
    1.1751    2.5128   -3.8564 H   0  0  0  0  0  0  0  0  0  0  0  0
    1.9656    3.3318   -2.5126 H   0  0  0  0  0  0  0  0  0  0  0  0
   -0.5705    3.7660   -2.6315 H   0  0  0  0  0  0  0  0  0  0  0  0
   -0.0805    3.0385   -1.0591 H   0  0  0  0  0  0  0  0  0  0  0  0
   -1.1038    1.4936   -3.1913 H   0  0  0  0  0  0  0  0  0  0  0  0
    0.1110   -1.9893   -0.5501 H   0  0  0  0  0  0  0  0  0  0  0  0
  1 13  1  0  0  0  0
  2  1  1  0  0  0  0
  2  3  1  1  0  0  0
  4 14  1  0  0  0  0
  4 15  1  0  0  0  0
  4  2  1  0  0  0  0
  5  4  1  0  0  0  0
  6 19  1  0  0  0  0
  6  5  1  0  0  0  0
  6  7  1  0  0  0  0
  7 21  1  0  0  0  0
  8  7  1  0  0  0  0
  9  2  1  0  0  0  0
 10  9  2  0  0  0  0
 11  9  1  0  0  0  0
 11 23  1  0  0  0  0
 12  1  1  0  0  0  0
 16  5  1  0  0  0  0
 17  5  1  0  0  0  0
 18  6  1  0  0  0  0
 20  7  1  0  0  0  0
 22  8  1  0  0  0  0
M  END
$$$$
