23
rmsd232.gzmat
N          0.00000        0.00000        0.00000
C          1.47820        0.00000        0.00000
H          1.87420        0.00000        1.05690
C          2.06710        1.19480       -0.77300
C          3.57310        1.36420       -0.53420
C          3.90020        1.81890        0.89470
C          4.77970        0.80340        1.63620
O          4.06760       -0.38760        1.87990
C          1.94250       -1.30680       -0.65950
O          3.09430       -1.66240       -0.68790
O          1.01390       -2.08900       -1.24010
H         -0.39290        0.70800       -0.59980
H         -0.38420        0.10310        0.92600
H          1.54230        2.12480       -0.47850
H          1.87790        1.07330       -1.85890
H          3.97370        2.09760       -1.26120
H          4.10060        0.41650       -0.77620
H          2.97480        1.98220        1.47850
H          4.40940        2.80030        0.87610
H          5.03380        1.15220        2.65530
H          5.70740        0.57400        1.08480
H          3.93080       -0.89030        1.04400
H          0.08000       -1.76110       -1.07700
