23
rmsd121.gzmat
N          0.00000        0.00000        0.00000
C          1.47590        0.00000        0.00000
H          1.84690        0.00000        1.06130
C          2.11340        1.17870       -0.75910
C          1.77250        1.16940       -2.25740
C          1.25800        2.51910       -2.76710
C         -0.11550        2.87360       -2.19180
O         -1.02300        1.79130       -2.27670
C          1.95510       -1.31730       -0.62970
O          3.09600       -1.53480       -0.93840
O          1.03330       -2.28640       -0.80570
H         -0.38420        0.48450       -0.80820
H         -0.38030        0.42500        0.83040
H          3.21570        1.13200       -0.63170
H          1.80340        2.12900       -0.28830
H          1.02610        0.38180       -2.48690
H          2.67290        0.87360       -2.83540
H          1.21050        2.49510       -3.87410
H          1.97960        3.32270       -2.52260
H         -0.56390        3.74370       -2.70560
H         -0.08180        3.07350       -1.10470
H         -1.08450        1.45350       -3.19110
H          0.11360       -1.99290       -0.53320
