rmsd164.gzmat
 OpenBabel08211713403D

 43 46  0  0  0  0  0  0  0  0999 V2000
    0.0000    0.0000    0.0000 O   0  0  0  0  0  0  0  0  0  0  0  0
    1.2051    0.0000    0.0000 C   0  0  0  0  0  0  0  0  0  0  0  0
    1.8681    0.0000    1.2731 N   0  0  0  0  0  0  0  0  0  0  0  0
    1.0348    0.1588    2.4926 C   0  0  0  0  0  0  0  0  0  0  0  0
    0.8328    1.6201    2.7836 C   0  0  0  0  0  0  0  0  0  0  0  0
   -0.1951    2.3201    2.1505 C   0  0  0  0  0  0  0  0  0  0  0  0
   -0.3684    3.6778    2.4068 C   0  0  0  0  0  0  0  0  0  0  0  0
    0.4815    4.3341    3.2962 C   0  0  0  0  0  0  0  0  0  0  0  0
    1.5048    3.6323    3.9313 C   0  0  0  0  0  0  0  0  0  0  0  0
    1.6830    2.2748    3.6752 C   0  0  0  0  0  0  0  0  0  0  0  0
    3.2405    0.0309    1.4043 C   0  0  0  0  0  0  0  0  0  0  0  0
    3.8096    0.0451    2.5954 N   0  0  0  0  0  0  0  0  0  0  0  0
    5.1832    0.0435    2.7794 C   0  0  0  0  0  0  0  0  0  0  0  0
    5.7347    0.0500    3.8463 O   0  0  0  0  0  0  0  0  0  0  0  0
    5.9856    0.0597    1.5757 N   0  0  0  0  0  0  0  0  0  0  0  0
    5.4636    0.0091    0.2985 C   0  0  0  0  0  0  0  0  0  0  0  0
    6.1009   -0.0146   -0.7265 O   0  0  0  0  0  0  0  0  0  0  0  0
    4.0183    0.0168    0.2150 N   0  0  0  0  0  0  0  0  0  0  0  0
    3.4197   -0.0044   -1.0495 C   0  0  0  0  0  0  0  0  0  0  0  0
    2.0761   -0.0166   -1.1637 C   0  0  0  0  0  0  0  0  0  0  0  0
    7.4528   -0.0900    1.7092 C   0  0  0  0  0  0  0  0  0  0  0  0
    7.8157   -1.5493    1.7544 C   0  0  0  0  0  0  0  0  0  0  0  0
    8.0891   -2.2352    0.5705 C   0  0  0  0  0  0  0  0  0  0  0  0
    8.4057   -3.5909    0.6133 C   0  0  0  0  0  0  0  0  0  0  0  0
    8.4488   -4.2589    1.8364 C   0  0  0  0  0  0  0  0  0  0  0  0
    8.1726   -3.5722    3.0181 C   0  0  0  0  0  0  0  0  0  0  0  0
    7.8541   -2.2168    2.9788 C   0  0  0  0  0  0  0  0  0  0  0  0
    1.5279   -0.3673    3.3496 H   0  0  0  0  0  0  0  0  0  0  0  0
    0.0600   -0.3615    2.3172 H   0  0  0  0  0  0  0  0  0  0  0  0
   -0.8575    1.8058    1.4519 H   0  0  0  0  0  0  0  0  0  0  0  0
   -1.1675    4.2257    1.9123 H   0  0  0  0  0  0  0  0  0  0  0  0
    0.3452    5.3952    3.4950 H   0  0  0  0  0  0  0  0  0  0  0  0
    2.1664    4.1437    4.6275 H   0  0  0  0  0  0  0  0  0  0  0  0
    2.4917    1.7248    4.1638 H   0  0  0  0  0  0  0  0  0  0  0  0
    4.1130   -0.0087   -1.9092 H   0  0  0  0  0  0  0  0  0  0  0  0
    1.5699   -0.0321   -2.1305 H   0  0  0  0  0  0  0  0  0  0  0  0
    7.7721    0.4399    2.6421 H   0  0  0  0  0  0  0  0  0  0  0  0
    7.9582    0.4313    0.8598 H   0  0  0  0  0  0  0  0  0  0  0  0
    8.0468   -1.7129   -0.3862 H   0  0  0  0  0  0  0  0  0  0  0  0
    8.6168   -4.1279   -0.3090 H   0  0  0  0  0  0  0  0  0  0  0  0
    8.6962   -5.3183    1.8687 H   0  0  0  0  0  0  0  0  0  0  0  0
    8.2022   -4.0949    3.9724 H   0  0  0  0  0  0  0  0  0  0  0  0
    7.6237   -1.6805    3.9018 H   0  0  0  0  0  0  0  0  0  0  0  0
  2  1  2  0  0  0  0
  2  3  1  0  0  0  0
  3 11  1  0  0  0  0
  3  4  1  0  0  0  0
  4  5  1  0  0  0  0
  4 28  1  0  0  0  0
  5 10  2  0  0  0  0
  6  7  2  0  0  0  0
  6  5  1  0  0  0  0
  7  8  1  0  0  0  0
  8 32  1  0  0  0  0
  8  9  2  0  0  0  0
  9 33  1  0  0  0  0
 10  9  1  0  0  0  0
 10 34  1  0  0  0  0
 11 12  2  0  0  0  0
 12 13  2  0  0  0  0
 13 14  2  0  0  0  0
 15 21  1  0  0  0  0
 15 13  1  0  0  0  0
 16 15  1  0  0  0  0
 17 16  2  0  0  0  0
 18 16  1  0  0  0  0
 18 11  1  0  0  0  0
 19 18  1  0  0  0  0
 20 19  2  0  0  0  0
 20  2  1  0  0  0  0
 21 22  1  0  0  0  0
 21 37  1  0  0  0  0
 22 27  2  0  0  0  0
 23 24  2  0  0  0  0
 23 22  1  0  0  0  0
 24 25  1  0  0  0  0
 25 41  1  0  0  0  0
 25 26  2  0  0  0  0
 26 42  1  0  0  0  0
 27 26  1  0  0  0  0
 27 43  1  0  0  0  0
 29  4  1  0  0  0  0
 30  6  1  0  0  0  0
 31  7  1  0  0  0  0
 35 19  1  0  0  0  0
 36 20  1  0  0  0  0
 38 21  1  0  0  0  0
 39 23  1  0  0  0  0
 40 24  1  0  0  0  0
M  END
$$$$
