rmsd153.gzmat
 OpenBabel08211713403D

 43 46  0  0  0  0  0  0  0  0999 V2000
    0.0000    0.0000    0.0000 O   0  0  0  0  0  0  0  0  0  0  0  0
    1.2050    0.0000    0.0000 C   0  0  0  0  0  0  0  0  0  0  0  0
    1.8674    0.0000    1.2736 N   0  0  0  0  0  0  0  0  0  0  0  0
    1.0348   -0.1539    2.4945 C   0  0  0  0  0  0  0  0  0  0  0  0
    0.8339   -1.6145    2.7904 C   0  0  0  0  0  0  0  0  0  0  0  0
    1.7058   -2.2740    3.6572 C   0  0  0  0  0  0  0  0  0  0  0  0
    1.5376   -3.6338    3.9074 C   0  0  0  0  0  0  0  0  0  0  0  0
    0.4963   -4.3315    3.2977 C   0  0  0  0  0  0  0  0  0  0  0  0
   -0.3800   -3.6691    2.4389 C   0  0  0  0  0  0  0  0  0  0  0  0
   -0.2112   -2.3108    2.1823 C   0  0  0  0  0  0  0  0  0  0  0  0
    3.2395   -0.0416    1.4047 C   0  0  0  0  0  0  0  0  0  0  0  0
    3.8073   -0.0566    2.5963 N   0  0  0  0  0  0  0  0  0  0  0  0
    5.1804   -0.0811    2.7814 C   0  0  0  0  0  0  0  0  0  0  0  0
    5.7306   -0.0928    3.8488 O   0  0  0  0  0  0  0  0  0  0  0  0
    5.9821   -0.1258    1.5783 N   0  0  0  0  0  0  0  0  0  0  0  0
    5.4631   -0.0609    0.3006 C   0  0  0  0  0  0  0  0  0  0  0  0
    6.1025   -0.0491   -0.7233 O   0  0  0  0  0  0  0  0  0  0  0  0
    4.0181   -0.0381    0.2160 N   0  0  0  0  0  0  0  0  0  0  0  0
    3.4205   -0.0061   -1.0488 C   0  0  0  0  0  0  0  0  0  0  0  0
    2.0770    0.0168   -1.1632 C   0  0  0  0  0  0  0  0  0  0  0  0
    7.4540   -0.0355    1.7095 C   0  0  0  0  0  0  0  0  0  0  0  0
    7.8799    1.4070    1.7275 C   0  0  0  0  0  0  0  0  0  0  0  0
    7.9443    2.0954    2.9390 C   0  0  0  0  0  0  0  0  0  0  0  0
    8.3244    3.4354    2.9539 C   0  0  0  0  0  0  0  0  0  0  0  0
    8.6386    4.0850    1.7612 C   0  0  0  0  0  0  0  0  0  0  0  0
    8.5664    3.3971    0.5506 C   0  0  0  0  0  0  0  0  0  0  0  0
    8.1871    2.0572    0.5316 C   0  0  0  0  0  0  0  0  0  0  0  0
    0.0610    0.3672    2.3174 H   0  0  0  0  0  0  0  0  0  0  0  0
    1.5284    0.3748    3.3499 H   0  0  0  0  0  0  0  0  0  0  0  0
    2.5244   -1.7254    4.1307 H   0  0  0  0  0  0  0  0  0  0  0  0
    2.2220   -4.1501    4.5774 H   0  0  0  0  0  0  0  0  0  0  0  0
    0.3663   -5.3941    3.4919 H   0  0  0  0  0  0  0  0  0  0  0  0
   -1.1945   -4.2133    1.9660 H   0  0  0  0  0  0  0  0  0  0  0  0
   -0.8885   -1.7930    1.5011 H   0  0  0  0  0  0  0  0  0  0  0  0
    4.1150   -0.0032   -1.9076 H   0  0  0  0  0  0  0  0  0  0  0  0
    1.5727    0.0409   -2.1308 H   0  0  0  0  0  0  0  0  0  0  0  0
    7.9344   -0.5944    0.8696 H   0  0  0  0  0  0  0  0  0  0  0  0
    7.7515   -0.5614    2.6517 H   0  0  0  0  0  0  0  0  0  0  0  0
    7.6869    1.5876    3.8707 H   0  0  0  0  0  0  0  0  0  0  0  0
    8.3730    3.9748    3.8977 H   0  0  0  0  0  0  0  0  0  0  0  0
    8.9397    5.1308    1.7748 H   0  0  0  0  0  0  0  0  0  0  0  0
    8.8039    3.9068   -0.3805 H   0  0  0  0  0  0  0  0  0  0  0  0
    8.1233    1.5192   -0.4155 H   0  0  0  0  0  0  0  0  0  0  0  0
  1  2  2  0  0  0  0
  2  3  1  0  0  0  0
  3 11  1  0  0  0  0
  3  4  1  0  0  0  0
  4  5  1  0  0  0  0
  4 29  1  0  0  0  0
  5  6  2  0  0  0  0
  6  7  1  0  0  0  0
  6 30  1  0  0  0  0
  7 31  1  0  0  0  0
  8 32  1  0  0  0  0
  8  7  2  0  0  0  0
  9  8  1  0  0  0  0
 10  9  2  0  0  0  0
 10  5  1  0  0  0  0
 11 12  2  0  0  0  0
 12 13  2  0  0  0  0
 13 14  2  0  0  0  0
 15 21  1  0  0  0  0
 15 13  1  0  0  0  0
 16 15  1  0  0  0  0
 17 16  2  0  0  0  0
 18 16  1  0  0  0  0
 18 11  1  0  0  0  0
 19 18  1  0  0  0  0
 20 19  2  0  0  0  0
 20  2  1  0  0  0  0
 21 22  1  0  0  0  0
 21 38  1  0  0  0  0
 22 23  2  0  0  0  0
 23 24  1  0  0  0  0
 23 39  1  0  0  0  0
 24 40  1  0  0  0  0
 25 41  1  0  0  0  0
 25 24  2  0  0  0  0
 26 25  1  0  0  0  0
 27 26  2  0  0  0  0
 27 22  1  0  0  0  0
 28  4  1  0  0  0  0
 33  9  1  0  0  0  0
 34 10  1  0  0  0  0
 35 19  1  0  0  0  0
 36 20  1  0  0  0  0
 37 21  1  0  0  0  0
 42 26  1  0  0  0  0
 43 27  1  0  0  0  0
M  END
$$$$
