43
rmsd153.gzmat
O          0.00000        0.00000        0.00000
C          1.20500        0.00000        0.00000
N          1.86740        0.00000        1.27360
C          1.03480       -0.15390        2.49450
C          0.83390       -1.61450        2.79040
C          1.70580       -2.27400        3.65720
C          1.53760       -3.63380        3.90740
C          0.49630       -4.33150        3.29770
C         -0.38000       -3.66910        2.43890
C         -0.21120       -2.31080        2.18230
C          3.23950       -0.04160        1.40470
N          3.80730       -0.05660        2.59630
C          5.18040       -0.08110        2.78140
O          5.73060       -0.09280        3.84880
N          5.98210       -0.12580        1.57830
C          5.46310       -0.06090        0.30060
O          6.10250       -0.04910       -0.72330
N          4.01810       -0.03810        0.21600
C          3.42050       -0.00610       -1.04880
C          2.07700        0.01680       -1.16320
C          7.45400       -0.03550        1.70950
C          7.87990        1.40700        1.72750
C          7.94430        2.09540        2.93900
C          8.32440        3.43540        2.95390
C          8.63860        4.08500        1.76120
C          8.56640        3.39710        0.55060
C          8.18710        2.05720        0.53160
H          0.06100        0.36720        2.31740
H          1.52840        0.37480        3.34990
H          2.52440       -1.72540        4.13070
H          2.22200       -4.15010        4.57740
H          0.36630       -5.39410        3.49190
H         -1.19450       -4.21330        1.96600
H         -0.88850       -1.79300        1.50110
H          4.11500       -0.00320       -1.90760
H          1.57270        0.04090       -2.13080
H          7.93440       -0.59440        0.86960
H          7.75150       -0.56140        2.65170
H          7.68690        1.58760        3.87070
H          8.37300        3.97480        3.89770
H          8.93970        5.13080        1.77480
H          8.80390        3.90680       -0.38050
H          8.12330        1.51920       -0.41550
