43
rmsd193.gzmat
O          0.00000        0.00000        0.00000
C          1.20500        0.00000        0.00000
N          1.86790        0.00000        1.27340
C          1.03560       -0.16100        2.49350
C          0.81590       -1.62270        2.76890
C          1.69290       -2.31280        3.60630
C          1.50050       -3.67200        3.84170
C          0.43340       -4.34000        3.24330
C         -0.44560       -3.64790        2.41100
C         -0.25520       -2.28910        2.17220
C          3.23990       -0.02850        1.40450
N          3.80720       -0.05580        2.59640
C          5.17990       -0.05020        2.78290
O          5.72820       -0.07130        3.85140
N          5.98410       -0.04110        1.58050
C          5.46360        0.03200        0.30320
O          6.10250        0.08980       -0.71920
N          4.01910        0.00250        0.21660
C          3.42120        0.02140       -1.04830
C          2.07740        0.01960       -1.16270
C          7.44850        0.13090        1.71560
C          7.78720        1.59630        1.74960
C          7.72770        2.29290        2.95690
C          8.02380        3.65330        2.98630
C          8.37540        4.31630        1.81150
C          8.42900        3.61960        0.60510
C          8.13370        2.25880        0.57170
H          0.06870        0.37550        2.32520
H          1.53690        0.34840        3.35590
H          2.53320       -1.78820        4.06880
H          2.18580       -4.21100        4.49260
H          0.28520       -5.40230        3.42610
H         -1.27950       -4.16850        1.94530
H         -0.93700       -1.74770        1.51400
H          4.11580        0.03490       -1.90690
H          1.57220        0.02660       -2.13000
H          7.96110       -0.39100        0.87110
H          7.77550       -0.38510        2.65370
H          7.43880        1.77390        3.87300
H          7.97990        4.19820        3.92760
H          8.60590        5.37970        1.83600
H          8.69870        4.13830       -0.31230
H          8.16320        1.71510       -0.37350
