43
rmsd101.gzmat
O          0.00000        0.00000        0.00000
C          1.20510        0.00000        0.00000
N          1.86780        0.00000        1.27360
C          1.03730        0.19860        2.48950
C          0.85630        1.67160        2.73230
C         -0.16450        2.36430        2.08010
C         -0.30740        3.73520        2.27830
C          0.56710        4.41270        3.12720
C          1.58110        3.71800        3.78430
C          1.72770        2.34670        3.58780
C          3.24050        0.01980        1.40470
N          3.80910        0.01880        2.59620
C          5.18250       -0.00310        2.78020
O          5.73260       -0.02930        3.84750
N          5.98530        0.03330        1.57760
C          5.46340        0.00510        0.29890
O          6.10170        0.00280       -0.72570
N          4.01810        0.00920        0.21530
C          3.41950       -0.00540       -1.04940
C          2.07590       -0.01470       -1.16370
C          7.45190       -0.13150        1.69970
C          7.80800       -1.59090        1.61760
C          8.14000       -2.15760        0.38660
C          8.45030       -3.51330        0.31010
C          8.42240       -4.30190        1.45960
C          8.08350       -3.73500        2.68730
C          7.77570       -2.37900        2.76800
H          1.52460       -0.30750        3.36160
H          0.05770       -0.31640        2.32900
H         -0.84380        1.83390        1.41030
H         -1.10110        4.27700        1.76830
H          0.45640        5.48490        3.27650
H          2.26120        4.24550        4.44990
H          2.52890        1.80110        4.09310
H          4.11340       -0.00760       -1.90870
H          1.56990       -0.02320       -2.13070
H          7.77470        0.31390        2.67450
H          7.95630        0.46030        0.89730
H          8.14390       -1.54350       -0.51520
H          8.70990       -3.95690       -0.64870
H          8.66380       -5.36140        1.39790
H          8.05660       -4.35180        3.58350
H          7.49890       -1.93500        3.72640
