
     RDKit          3D

 43 46  0  0  0  0  0  0  0  0999 V2000
   -0.1025   -0.0546   -0.1464 O   0  0  0  0  0  0  0  0  0  0  0  0
    1.1082    0.0164   -0.0915 C   0  0  0  0  0  0  0  0  0  0  0  0
    1.7839   -0.0358    1.1559 N   0  0  0  0  0  0  0  0  0  0  0  0
    0.9560   -0.2134    2.3719 C   0  0  0  0  0  0  0  0  0  0  0  0
    0.8223   -1.6676    2.7661 C   0  0  0  0  0  0  0  0  0  0  0  0
    1.6404   -2.2166    3.7640 C   0  0  0  0  0  0  0  0  0  0  0  0
    1.5186   -3.5644    4.1116 C   0  0  0  0  0  0  0  0  0  0  0  0
    0.5839   -4.3761    3.4631 C   0  0  0  0  0  0  0  0  0  0  0  0
   -0.2333   -3.8346    2.4662 C   0  0  0  0  0  0  0  0  0  0  0  0
   -0.1163   -2.4869    2.1196 C   0  0  0  0  0  0  0  0  0  0  0  0
    3.1468    0.0036    1.3055 C   0  0  0  0  0  0  0  0  0  0  0  0
    3.6699   -0.0563    2.4874 N   0  0  0  0  0  0  0  0  0  0  0  0
    5.0293   -0.0263    2.6691 C   0  0  0  0  0  0  0  0  0  0  0  0
    5.5629   -0.0727    3.7543 O   0  0  0  0  0  0  0  0  0  0  0  0
    5.8322    0.0575    1.4897 N   0  0  0  0  0  0  0  0  0  0  0  0
    5.3348    0.1502    0.2195 C   0  0  0  0  0  0  0  0  0  0  0  0
    5.9985    0.2486   -0.7877 O   0  0  0  0  0  0  0  0  0  0  0  0
    3.9060    0.1142    0.1450 N   0  0  0  0  0  0  0  0  0  0  0  0
    3.3182    0.1934   -1.1099 C   0  0  0  0  0  0  0  0  0  0  0  0
    1.9823    0.1560   -1.2527 C   0  0  0  0  0  0  0  0  0  0  0  0
    7.2983    0.1414    1.6491 C   0  0  0  0  0  0  0  0  0  0  0  0
    7.7801    1.5714    1.7478 C   0  0  0  0  0  0  0  0  0  0  0  0
    7.7658    2.2384    2.9824 C   0  0  0  0  0  0  0  0  0  0  0  0
    8.1845    3.5678    3.0692 C   0  0  0  0  0  0  0  0  0  0  0  0
    8.6206    4.2436    1.9254 C   0  0  0  0  0  0  0  0  0  0  0  0
    8.6349    3.5850    0.6928 C   0  0  0  0  0  0  0  0  0  0  0  0
    8.2151    2.2555    0.6037 C   0  0  0  0  0  0  0  0  0  0  0  0
   -0.0220    0.2116    2.1232 H   0  0  0  0  0  0  0  0  0  0  0  0
    1.4266    0.3676    3.1709 H   0  0  0  0  0  0  0  0  0  0  0  0
    2.3813   -1.5839    4.2560 H   0  0  0  0  0  0  0  0  0  0  0  0
    2.1588   -3.9820    4.8925 H   0  0  0  0  0  0  0  0  0  0  0  0
    0.4900   -5.4301    3.7362 H   0  0  0  0  0  0  0  0  0  0  0  0
   -0.9693   -4.4635    1.9594 H   0  0  0  0  0  0  0  0  0  0  0  0
   -0.7518   -2.0584    1.3416 H   0  0  0  0  0  0  0  0  0  0  0  0
    4.0356    0.2823   -1.9249 H   0  0  0  0  0  0  0  0  0  0  0  0
    1.5081    0.2136   -2.2309 H   0  0  0  0  0  0  0  0  0  0  0  0
    7.7457   -0.3617    0.7843 H   0  0  0  0  0  0  0  0  0  0  0  0
    7.5336   -0.4141    2.5630 H   0  0  0  0  0  0  0  0  0  0  0  0
    7.4142    1.7078    3.8695 H   0  0  0  0  0  0  0  0  0  0  0  0
    8.1725    4.0781    4.0353 H   0  0  0  0  0  0  0  0  0  0  0  0
    8.9506    5.2830    1.9953 H   0  0  0  0  0  0  0  0  0  0  0  0
    8.9754    4.1084   -0.2040 H   0  0  0  0  0  0  0  0  0  0  0  0
    8.2123    1.7414   -0.3597 H   0  0  0  0  0  0  0  0  0  0  0  0
  1  2  2  0
  2  3  1  0
  2 20  1  0
  3  4  1  0
  3 11  1  0
  4  5  1  0
  4 28  1  0
  4 29  1  0
  5  6  2  0
  5 10  1  0
  6  7  1  0
  6 30  1  0
  7  8  2  0
  7 31  1  0
  8  9  1  0
  8 32  1  0
  9 10  2  0
  9 33  1  0
 10 34  1  0
 11 12  2  0
 11 18  1  0
 12 13  1  0
 13 14  2  0
 13 15  1  0
 15 16  1  0
 15 21  1  0
 16 17  2  0
 16 18  1  0
 18 19  1  0
 19 20  2  0
 19 35  1  0
 20 36  1  0
 21 22  1  0
 21 37  1  0
 21 38  1  0
 22 23  2  0
 22 27  1  0
 23 24  1  0
 23 39  1  0
 24 25  2  0
 24 40  1  0
 25 26  1  0
 25 41  1  0
 26 27  2  0
 26 42  1  0
 27 43  1  0
M  END

