50
rmsd187.gzmat
C          0.00000        0.00000        0.00000
N          1.38550        0.00000        0.00000
C          2.16150        0.00000        1.18410
C          1.81260        0.78360        2.29560
C          2.59860        0.73110        3.43950
C          3.75230       -0.04930        3.47720
C          4.12110       -0.78830        2.35410
C          3.33140       -0.77500        1.20840
S          2.10090        1.63670        4.85930
O          0.68050        1.45220        5.06380
O          3.05680        1.40720        5.91660
N          2.28530        3.29860        4.39220
N         -0.66400        0.22610        1.17990
C         -2.01430        0.24250        1.19340
O         -2.67820        0.44140        2.31760
C         -1.92220        0.66860        3.53910
C         -2.71490       -0.08620        4.60810
C         -4.06940        0.59200        4.86370
C         -4.82490       -0.14020        5.97930
C         -3.98950       -0.16710        7.26670
C         -2.63270       -0.83920        7.01480
C         -1.87160       -0.12310        5.89440
C         -2.73350        0.04480       -0.00920
N         -4.07900        0.01070       -0.36080
C         -4.12330       -0.21900       -1.66730
N         -2.82110       -0.34500       -2.23160
H         -2.57870       -0.52120       -3.18150
C         -1.92960       -0.17850       -1.18730
N         -0.57600       -0.21760       -1.22230
H          1.83600       -0.28540       -0.86950
H          0.91900        1.42140        2.24750
H          4.37430       -0.09430        4.37730
H          5.02760       -1.39170        2.37690
H          3.61640       -1.37310        0.34580
H          3.03940        3.81090        4.81470
H          1.44840        3.85710        4.36120
H         -1.92020        1.76230        3.67340
H         -0.87810        0.30910        3.47090
H         -2.89580       -1.13140        4.25660
H         -4.66890        0.59720        3.93260
H         -3.92030        1.65110        5.14140
H         -5.79630        0.35190        6.16610
H         -5.06040       -1.17300        5.66130
H         -3.83390        0.86340        7.63570
H         -4.53700       -0.70100        8.06370
H         -2.02870       -0.83530        7.94060
H         -2.78130       -1.90290        6.75290
H         -1.59950        0.90520        6.20490
H         -0.90220       -0.62320        5.70510
H         -5.01150       -0.30670       -2.27220
