
     RDKit          3D

 50 53  0  0  0  0  0  0  0  0999 V2000
   -0.0136   -0.1080   -0.0018 C   0  0  0  0  0  0  0  0  0  0  0  0
    1.3650   -0.1691    0.0604 N   0  0  0  0  0  0  0  0  0  0  0  0
    2.2320   -0.0479    1.1440 C   0  0  0  0  0  0  0  0  0  0  0  0
    1.7996    0.1590    2.4636 C   0  0  0  0  0  0  0  0  0  0  0  0
    2.7419    0.2587    3.4816 C   0  0  0  0  0  0  0  0  0  0  0  0
    4.1140    0.1555    3.2651 C   0  0  0  0  0  0  0  0  0  0  0  0
    4.5394   -0.0509    1.9475 C   0  0  0  0  0  0  0  0  0  0  0  0
    3.6205   -0.1498    0.9054 C   0  0  0  0  0  0  0  0  0  0  0  0
    2.1144    0.4914    5.1417 S   0  0  0  0  0  0  0  0  0  0  0  0
    0.9266   -0.3519    5.3230 O   0  0  0  0  0  0  0  0  0  0  0  0
    3.2496    0.4176    6.0646 O   0  0  0  0  0  0  0  0  0  0  0  0
    1.5122    2.0715    5.0852 N   0  0  0  0  0  0  0  0  0  0  0  0
   -0.6931    0.1641    1.1244 N   0  0  0  0  0  0  0  0  0  0  0  0
   -2.0189    0.2247    1.1130 C   0  0  0  0  0  0  0  0  0  0  0  0
   -2.6740    0.4947    2.2323 O   0  0  0  0  0  0  0  0  0  0  0  0
   -1.9032    0.7294    3.4263 C   0  0  0  0  0  0  0  0  0  0  0  0
   -2.8593    0.9685    4.5805 C   0  0  0  0  0  0  0  0  0  0  0  0
   -2.0775    1.4169    5.8265 C   0  0  0  0  0  0  0  0  0  0  0  0
   -2.9978    1.6297    7.0329 C   0  0  0  0  0  0  0  0  0  0  0  0
   -3.8381    0.3825    7.3262 C   0  0  0  0  0  0  0  0  0  0  0  0
   -4.6301   -0.0541    6.0895 C   0  0  0  0  0  0  0  0  0  0  0  0
   -3.7085   -0.2739    4.8868 C   0  0  0  0  0  0  0  0  0  0  0  0
   -2.7067    0.0041   -0.0997 C   0  0  0  0  0  0  0  0  0  0  0  0
   -4.0366   -0.0102   -0.4734 N   0  0  0  0  0  0  0  0  0  0  0  0
   -4.0185   -0.2746   -1.7515 C   0  0  0  0  0  0  0  0  0  0  0  0
   -2.7373   -0.4386   -2.2581 N   0  0  0  0  0  0  0  0  0  0  0  0
   -2.4737   -0.6501   -3.2126 H   0  0  0  0  0  0  0  0  0  0  0  0
   -1.8698   -0.2639   -1.2081 C   0  0  0  0  0  0  0  0  0  0  0  0
   -0.5393   -0.3306   -1.2136 N   0  0  0  0  0  0  0  0  0  0  0  0
    1.7856   -0.3643   -0.8406 H   0  0  0  0  0  0  0  0  0  0  0  0
    0.7409    0.2394    2.6727 H   0  0  0  0  0  0  0  0  0  0  0  0
    4.8112    0.2254    4.0998 H   0  0  0  0  0  0  0  0  0  0  0  0
    5.6061   -0.1400    1.7296 H   0  0  0  0  0  0  0  0  0  0  0  0
    3.9769   -0.3129   -0.1155 H   0  0  0  0  0  0  0  0  0  0  0  0
    2.2142    2.7370    5.4099 H   0  0  0  0  0  0  0  0  0  0  0  0
    0.6658    2.1138    5.6552 H   0  0  0  0  0  0  0  0  0  0  0  0
   -1.2437    1.5966    3.2607 H   0  0  0  0  0  0  0  0  0  0  0  0
   -1.2584   -0.1401    3.6280 H   0  0  0  0  0  0  0  0  0  0  0  0
   -3.5413    1.7883    4.2866 H   0  0  0  0  0  0  0  0  0  0  0  0
   -1.5327    2.3514    5.5995 H   0  0  0  0  0  0  0  0  0  0  0  0
   -1.3174    0.6518    6.0646 H   0  0  0  0  0  0  0  0  0  0  0  0
   -2.4026    1.9091    7.9182 H   0  0  0  0  0  0  0  0  0  0  0  0
   -3.6732    2.4805    6.8279 H   0  0  0  0  0  0  0  0  0  0  0  0
   -3.1677   -0.4399    7.6358 H   0  0  0  0  0  0  0  0  0  0  0  0
   -4.5172    0.5702    8.1743 H   0  0  0  0  0  0  0  0  0  0  0  0
   -5.2013   -0.9726    6.3024 H   0  0  0  0  0  0  0  0  0  0  0  0
   -5.3738    0.7249    5.8402 H   0  0  0  0  0  0  0  0  0  0  0  0
   -3.0267   -1.1186    5.0986 H   0  0  0  0  0  0  0  0  0  0  0  0
   -4.2887   -0.5514    3.9932 H   0  0  0  0  0  0  0  0  0  0  0  0
   -4.8962   -0.3660   -2.3922 H   0  0  0  0  0  0  0  0  0  0  0  0
  1  2  1  0
  1 13  2  0
  1 29  1  0
  2  3  1  0
  2 30  1  0
  3  4  2  0
  3  8  1  0
  4  5  1  0
  4 31  1  0
  5  6  2  0
  5  9  1  0
  6  7  1  0
  6 32  1  0
  7  8  2  0
  7 33  1  0
  8 34  1  0
  9 10  2  0
  9 11  2  0
  9 12  1  0
 12 35  1  0
 12 36  1  0
 13 14  1  0
 14 15  1  0
 14 23  2  0
 15 16  1  0
 16 17  1  0
 16 37  1  0
 16 38  1  0
 17 18  1  0
 17 22  1  0
 17 39  1  0
 18 19  1  0
 18 40  1  0
 18 41  1  0
 19 20  1  0
 19 42  1  0
 19 43  1  0
 20 21  1  0
 20 44  1  0
 20 45  1  0
 21 22  1  0
 21 46  1  0
 21 47  1  0
 22 48  1  0
 22 49  1  0
 23 24  1  0
 23 28  1  0
 24 25  2  0
 25 26  1  0
 25 50  1  0
 26 27  1  0
 26 28  1  0
 28 29  2  0
M  END

