rmsd175.gzmat
 OpenBabel08211713423D

 50 53  0  0  0  0  0  0  0  0999 V2000
    0.0000    0.0000    0.0000 C   0  0  0  0  0  0  0  0  0  0  0  0
    1.3839    0.0000    0.0000 N   0  0  0  0  0  0  0  0  0  0  0  0
    2.1681    0.0000    1.1784 C   0  0  0  0  0  0  0  0  0  0  0  0
    1.8184   -0.7716    2.2984 C   0  0  0  0  0  0  0  0  0  0  0  0
    2.6282   -0.7402    3.4264 C   0  0  0  0  0  0  0  0  0  0  0  0
    3.7974    0.0182    3.4447 C   0  0  0  0  0  0  0  0  0  0  0  0
    4.1589    0.7545    2.3177 C   0  0  0  0  0  0  0  0  0  0  0  0
    3.3506    0.7562    1.1850 C   0  0  0  0  0  0  0  0  0  0  0  0
    2.1594   -1.6546    4.8506 S   0  0  0  0  0  0  0  0  0  0  0  0
    3.0589   -1.3249    5.9312 O   0  0  0  0  0  0  0  0  0  0  0  0
    0.7238   -1.5914    5.0116 O   0  0  0  0  0  0  0  0  0  0  0  0
    2.5071   -3.3012    4.4243 N   0  0  0  0  0  0  0  0  0  0  0  0
   -0.6644   -0.1175    1.1964 N   0  0  0  0  0  0  0  0  0  0  0  0
   -2.0154   -0.1518    1.2055 C   0  0  0  0  0  0  0  0  0  0  0  0
   -2.6653   -0.2618    2.3522 O   0  0  0  0  0  0  0  0  0  0  0  0
   -1.8521   -0.2820    3.5603 C   0  0  0  0  0  0  0  0  0  0  0  0
   -2.8891   -0.4687    4.6698 C   0  0  0  0  0  0  0  0  0  0  0  0
   -2.2481   -0.0327    5.9986 C   0  0  0  0  0  0  0  0  0  0  0  0
   -3.2246   -0.2475    7.1598 C   0  0  0  0  0  0  0  0  0  0  0  0
   -3.6531   -1.7191    7.2347 C   0  0  0  0  0  0  0  0  0  0  0  0
   -4.2972   -2.1553    5.9117 C   0  0  0  0  0  0  0  0  0  0  0  0
   -3.3231   -1.9419    4.7472 C   0  0  0  0  0  0  0  0  0  0  0  0
   -2.7346   -0.0678   -0.0088 C   0  0  0  0  0  0  0  0  0  0  0  0
   -4.0796   -0.0731   -0.3642 N   0  0  0  0  0  0  0  0  0  0  0  0
   -4.1229    0.0540   -1.6846 C   0  0  0  0  0  0  0  0  0  0  0  0
   -2.8206    0.1476   -2.2553 N   0  0  0  0  0  0  0  0  0  0  0  0
   -2.5779    0.2502   -3.2161 H   0  0  0  0  0  0  0  0  0  0  0  0
   -1.9298    0.0690   -1.2002 C   0  0  0  0  0  0  0  0  0  0  0  0
   -0.5766    0.1124   -1.2373 N   0  0  0  0  0  0  0  0  0  0  0  0
    1.8391    0.2329   -0.8820 H   0  0  0  0  0  0  0  0  0  0  0  0
    0.9039   -1.3802    2.2697 H   0  0  0  0  0  0  0  0  0  0  0  0
    4.4359    0.0502    4.3341 H   0  0  0  0  0  0  0  0  0  0  0  0
    5.0760    1.3417    2.3267 H   0  0  0  0  0  0  0  0  0  0  0  0
    3.6299    1.3522    0.3186 H   0  0  0  0  0  0  0  0  0  0  0  0
    1.7271   -3.9358    4.3800 H   0  0  0  0  0  0  0  0  0  0  0  0
    3.2934   -3.7346    4.8762 H   0  0  0  0  0  0  0  0  0  0  0  0
   -1.3093    0.6757    3.6245 H   0  0  0  0  0  0  0  0  0  0  0  0
   -1.1239   -1.1126    3.5064 H   0  0  0  0  0  0  0  0  0  0  0  0
   -3.7834    0.1653    4.4564 H   0  0  0  0  0  0  0  0  0  0  0  0
   -1.9402    1.0264    5.9524 H   0  0  0  0  0  0  0  0  0  0  0  0
   -1.3168   -0.6168    6.1688 H   0  0  0  0  0  0  0  0  0  0  0  0
   -2.7520    0.0592    8.1105 H   0  0  0  0  0  0  0  0  0  0  0  0
   -4.1137    0.3980    7.0347 H   0  0  0  0  0  0  0  0  0  0  0  0
   -2.7724   -2.3529    7.4516 H   0  0  0  0  0  0  0  0  0  0  0  0
   -4.3568   -1.8707    8.0719 H   0  0  0  0  0  0  0  0  0  0  0  0
   -4.5945   -3.2176    5.9669 H   0  0  0  0  0  0  0  0  0  0  0  0
   -5.2278   -1.5836    5.7370 H   0  0  0  0  0  0  0  0  0  0  0  0
   -2.4330   -2.5877    4.8788 H   0  0  0  0  0  0  0  0  0  0  0  0
   -3.7907   -2.2462    3.7926 H   0  0  0  0  0  0  0  0  0  0  0  0
   -5.0107    0.0865   -2.2957 H   0  0  0  0  0  0  0  0  0  0  0  0
  1 13  2  0  0  0  0
  2  1  1  0  0  0  0
  2  3  1  0  0  0  0
  3  8  2  0  0  0  0
  3  4  1  0  0  0  0
  4  5  2  0  0  0  0
  5  6  1  0  0  0  0
  5  9  1  0  0  0  0
  6 32  1  0  0  0  0
  7 33  1  0  0  0  0
  7  6  2  0  0  0  0
  8  7  1  0  0  0  0
  9 11  2  0  0  0  0
  9 10  2  0  0  0  0
 12  9  1  0  0  0  0
 12 36  1  0  0  0  0
 13 14  2  0  0  0  0
 14 15  1  0  0  0  0
 15 16  1  0  0  0  0
 16 37  1  0  0  0  0
 16 17  1  0  0  0  0
 17 22  1  0  0  0  0
 17 18  1  0  0  0  0
 18 41  1  0  0  0  0
 18 19  1  0  0  0  0
 19 20  1  0  0  0  0
 19 42  1  0  0  0  0
 20 44  1  0  0  0  0
 20 45  1  0  0  0  0
 21 46  1  0  0  0  0
 21 20  1  0  0  0  0
 22 48  1  0  0  0  0
 22 21  1  0  0  0  0
 23 14  1  0  0  0  0
 24 23  2  0  0  0  0
 25 24  2  0  0  0  0
 26 25  1  0  0  0  0
 26 28  1  0  0  0  0
 27 26  1  0  0  0  0
 28 23  1  0  0  0  0
 29 28  2  0  0  0  0
 29  1  2  0  0  0  0
 30  2  1  0  0  0  0
 31  4  1  0  0  0  0
 34  8  1  0  0  0  0
 35 12  1  0  0  0  0
 38 16  1  0  0  0  0
 39 17  1  0  0  0  0
 40 18  1  0  0  0  0
 43 19  1  0  0  0  0
 47 21  1  0  0  0  0
 49 22  1  0  0  0  0
 50 25  1  0  0  0  0
M  END
$$$$
