rmsd180.gzmat
 OpenBabel08211713423D

 50 53  0  0  0  0  0  0  0  0999 V2000
    0.0000    0.0000    0.0000 C   0  0  0  0  0  0  0  0  0  0  0  0
    1.3831    0.0000    0.0000 N   0  0  0  0  0  0  0  0  0  0  0  0
    2.1832    0.0000    1.1654 C   0  0  0  0  0  0  0  0  0  0  0  0
    1.8297    0.7254    2.3137 C   0  0  0  0  0  0  0  0  0  0  0  0
    2.6724    0.7031    3.4179 C   0  0  0  0  0  0  0  0  0  0  0  0
    3.8681   -0.0120    3.3912 C   0  0  0  0  0  0  0  0  0  0  0  0
    4.2294   -0.7068    2.2377 C   0  0  0  0  0  0  0  0  0  0  0  0
    3.3949   -0.7094    1.1247 C   0  0  0  0  0  0  0  0  0  0  0  0
    2.2051    1.5779    4.8670 S   0  0  0  0  0  0  0  0  0  0  0  0
    0.7664    1.5333    5.0012 O   0  0  0  0  0  0  0  0  0  0  0  0
    3.0804    1.1937    5.9494 O   0  0  0  0  0  0  0  0  0  0  0  0
    2.5963    3.2306    4.5086 N   0  0  0  0  0  0  0  0  0  0  0  0
   -0.6741    0.1104    1.1923 N   0  0  0  0  0  0  0  0  0  0  0  0
   -2.0239    0.1369    1.1866 C   0  0  0  0  0  0  0  0  0  0  0  0
   -2.7114    0.2565    2.3110 O   0  0  0  0  0  0  0  0  0  0  0  0
   -2.0082    0.1775    3.5709 C   0  0  0  0  0  0  0  0  0  0  0  0
   -1.6775   -1.2823    3.8809 C   0  0  0  0  0  0  0  0  0  0  0  0
   -2.9402   -2.1539    3.7979 C   0  0  0  0  0  0  0  0  0  0  0  0
   -2.5932   -3.6124    4.1206 C   0  0  0  0  0  0  0  0  0  0  0  0
   -1.9624   -3.7182    5.5160 C   0  0  0  0  0  0  0  0  0  0  0  0
   -0.7140   -2.8298    5.6141 C   0  0  0  0  0  0  0  0  0  0  0  0
   -1.0602   -1.3724    5.2858 C   0  0  0  0  0  0  0  0  0  0  0  0
   -2.7313    0.0530   -0.0360 C   0  0  0  0  0  0  0  0  0  0  0  0
   -4.0738    0.0474   -0.4015 N   0  0  0  0  0  0  0  0  0  0  0  0
   -4.1061   -0.0751   -1.7226 C   0  0  0  0  0  0  0  0  0  0  0  0
   -2.7986   -0.1556   -2.2834 N   0  0  0  0  0  0  0  0  0  0  0  0
   -2.5469   -0.2532   -3.2422 H   0  0  0  0  0  0  0  0  0  0  0  0
   -1.9169   -0.0737   -1.2207 C   0  0  0  0  0  0  0  0  0  0  0  0
   -0.5641   -0.1099   -1.2436 N   0  0  0  0  0  0  0  0  0  0  0  0
    1.8341   -0.2078   -0.8915 H   0  0  0  0  0  0  0  0  0  0  0  0
    0.8875    1.2920    2.3286 H   0  0  0  0  0  0  0  0  0  0  0  0
    4.5271   -0.0437    4.2649 H   0  0  0  0  0  0  0  0  0  0  0  0
    5.1676   -1.2593    2.2097 H   0  0  0  0  0  0  0  0  0  0  0  0
    3.6767   -1.2679    0.2349 H   0  0  0  0  0  0  0  0  0  0  0  0
    3.3489    3.6441    5.0316 H   0  0  0  0  0  0  0  0  0  0  0  0
    1.8280    3.8742    4.4214 H   0  0  0  0  0  0  0  0  0  0  0  0
   -2.7791    0.6029    4.2403 H   0  0  0  0  0  0  0  0  0  0  0  0
   -1.1116    0.8268    3.5699 H   0  0  0  0  0  0  0  0  0  0  0  0
   -0.9312   -1.6503    3.1341 H   0  0  0  0  0  0  0  0  0  0  0  0
   -3.3913   -2.0806    2.7900 H   0  0  0  0  0  0  0  0  0  0  0  0
   -3.7083   -1.7818    4.4999 H   0  0  0  0  0  0  0  0  0  0  0  0
   -3.5016   -4.2393    4.0653 H   0  0  0  0  0  0  0  0  0  0  0  0
   -1.8974   -4.0130    3.3598 H   0  0  0  0  0  0  0  0  0  0  0  0
   -2.6992   -3.4175    6.2837 H   0  0  0  0  0  0  0  0  0  0  0  0
   -1.7009   -4.7681    5.7365 H   0  0  0  0  0  0  0  0  0  0  0  0
   -0.2786   -2.8958    6.6273 H   0  0  0  0  0  0  0  0  0  0  0  0
    0.0663   -3.1966    4.9217 H   0  0  0  0  0  0  0  0  0  0  0  0
   -1.7588   -0.9695    6.0408 H   0  0  0  0  0  0  0  0  0  0  0  0
   -0.1553   -0.7356    5.3479 H   0  0  0  0  0  0  0  0  0  0  0  0
   -4.9890   -0.1126   -2.3405 H   0  0  0  0  0  0  0  0  0  0  0  0
  1 13  2  0  0  0  0
  2  1  1  0  0  0  0
  2  3  1  0  0  0  0
  3  4  1  0  0  0  0
  4 31  1  0  0  0  0
  4  5  2  0  0  0  0
  5  9  1  0  0  0  0
  6  5  1  0  0  0  0
  6 32  1  0  0  0  0
  7  6  2  0  0  0  0
  8  3  2  0  0  0  0
  8  7  1  0  0  0  0
  9 10  2  0  0  0  0
  9 11  2  0  0  0  0
 12  9  1  0  0  0  0
 12 35  1  0  0  0  0
 14 13  2  0  0  0  0
 14 15  1  0  0  0  0
 15 16  1  0  0  0  0
 16 17  1  0  0  0  0
 16 37  1  0  0  0  0
 17 22  1  0  0  0  0
 18 17  1  0  0  0  0
 18 19  1  0  0  0  0
 18 41  1  0  0  0  0
 19 20  1  0  0  0  0
 20 21  1  0  0  0  0
 20 45  1  0  0  0  0
 20 44  1  0  0  0  0
 21 46  1  0  0  0  0
 22 49  1  0  0  0  0
 22 21  1  0  0  0  0
 22 48  1  0  0  0  0
 23 14  1  0  0  0  0
 24 23  2  0  0  0  0
 25 24  2  0  0  0  0
 26 25  1  0  0  0  0
 26 28  1  0  0  0  0
 27 26  1  0  0  0  0
 28 23  1  0  0  0  0
 29 28  2  0  0  0  0
 29  1  2  0  0  0  0
 30  2  1  0  0  0  0
 33  7  1  0  0  0  0
 34  8  1  0  0  0  0
 36 12  1  0  0  0  0
 38 16  1  0  0  0  0
 39 17  1  0  0  0  0
 40 18  1  0  0  0  0
 42 19  1  0  0  0  0
 43 19  1  0  0  0  0
 47 21  1  0  0  0  0
 50 25  1  0  0  0  0
M  END
$$$$
