50
rmsd180.gzmat
C          0.00000        0.00000        0.00000
N          1.38310        0.00000        0.00000
C          2.18320        0.00000        1.16540
C          1.82970        0.72540        2.31370
C          2.67240        0.70310        3.41790
C          3.86810       -0.01200        3.39120
C          4.22940       -0.70680        2.23770
C          3.39490       -0.70940        1.12470
S          2.20510        1.57790        4.86700
O          0.76640        1.53330        5.00120
O          3.08040        1.19370        5.94940
N          2.59630        3.23060        4.50860
N         -0.67410        0.11040        1.19230
C         -2.02390        0.13690        1.18660
O         -2.71140        0.25650        2.31100
C         -2.00820        0.17750        3.57090
C         -1.67750       -1.28230        3.88090
C         -2.94020       -2.15390        3.79790
C         -2.59320       -3.61240        4.12060
C         -1.96240       -3.71820        5.51600
C         -0.71400       -2.82980        5.61410
C         -1.06020       -1.37240        5.28580
C         -2.73130        0.05300       -0.03600
N         -4.07380        0.04740       -0.40150
C         -4.10610       -0.07510       -1.72260
N         -2.79860       -0.15560       -2.28340
H         -2.54690       -0.25320       -3.24220
C         -1.91690       -0.07370       -1.22070
N         -0.56410       -0.10990       -1.24360
H          1.83410       -0.20780       -0.89150
H          0.88750        1.29200        2.32860
H          4.52710       -0.04370        4.26490
H          5.16760       -1.25930        2.20970
H          3.67670       -1.26790        0.23490
H          3.34890        3.64410        5.03160
H          1.82800        3.87420        4.42140
H         -2.77910        0.60290        4.24030
H         -1.11160        0.82680        3.56990
H         -0.93120       -1.65030        3.13410
H         -3.39130       -2.08060        2.79000
H         -3.70830       -1.78180        4.49990
H         -3.50160       -4.23930        4.06530
H         -1.89740       -4.01300        3.35980
H         -2.69920       -3.41750        6.28370
H         -1.70090       -4.76810        5.73650
H         -0.27860       -2.89580        6.62730
H          0.06630       -3.19660        4.92170
H         -1.75880       -0.96950        6.04080
H         -0.15530       -0.73560        5.34790
H         -4.98900       -0.11260       -2.34050
