rmsd104.gzmat
 OpenBabel08211713423D

 50 53  0  0  0  0  0  0  0  0999 V2000
    0.0000    0.0000    0.0000 C   0  0  0  0  0  0  0  0  0  0  0  0
    1.3851    0.0000    0.0000 N   0  0  0  0  0  0  0  0  0  0  0  0
    2.1732    0.0000    1.1751 C   0  0  0  0  0  0  0  0  0  0  0  0
    1.8271    0.7572    2.3051 C   0  0  0  0  0  0  0  0  0  0  0  0
    2.6404    0.7118    3.4303 C   0  0  0  0  0  0  0  0  0  0  0  0
    3.8105   -0.0449    3.4360 C   0  0  0  0  0  0  0  0  0  0  0  0
    4.1735   -0.7606    2.2958 C   0  0  0  0  0  0  0  0  0  0  0  0
    3.3615   -0.7488    1.1664 C   0  0  0  0  0  0  0  0  0  0  0  0
    2.1609    1.6017    4.8658 S   0  0  0  0  0  0  0  0  0  0  0  0
    0.7292    1.8090    4.8393 O   0  0  0  0  0  0  0  0  0  0  0  0
    2.8258    1.0336    6.0146 O   0  0  0  0  0  0  0  0  0  0  0  0
    2.8667    3.1737    4.6485 N   0  0  0  0  0  0  0  0  0  0  0  0
   -0.6712    0.2273    1.1757 N   0  0  0  0  0  0  0  0  0  0  0  0
   -2.0223    0.2551    1.1736 C   0  0  0  0  0  0  0  0  0  0  0  0
   -2.6846    0.4789    2.2954 O   0  0  0  0  0  0  0  0  0  0  0  0
   -1.8898    0.7538    3.4834 C   0  0  0  0  0  0  0  0  0  0  0  0
   -2.9511    0.9753    4.5637 C   0  0  0  0  0  0  0  0  0  0  0  0
   -3.8610    2.1561    4.1892 C   0  0  0  0  0  0  0  0  0  0  0  0
   -4.8606    2.4369    5.3170 C   0  0  0  0  0  0  0  0  0  0  0  0
   -4.1220    2.7287    6.6298 C   0  0  0  0  0  0  0  0  0  0  0  0
   -3.2199    1.5466    7.0091 C   0  0  0  0  0  0  0  0  0  0  0  0
   -2.2188    1.2493    5.8886 C   0  0  0  0  0  0  0  0  0  0  0  0
   -2.7348    0.0497   -0.0304 C   0  0  0  0  0  0  0  0  0  0  0  0
   -4.0778    0.0153   -0.3914 N   0  0  0  0  0  0  0  0  0  0  0  0
   -4.1123   -0.2188   -1.6975 C   0  0  0  0  0  0  0  0  0  0  0  0
   -2.8061   -0.3468   -2.2519 N   0  0  0  0  0  0  0  0  0  0  0  0
   -2.5558   -0.5257   -3.1993 H   0  0  0  0  0  0  0  0  0  0  0  0
   -1.9223   -0.1790   -1.2014 C   0  0  0  0  0  0  0  0  0  0  0  0
   -0.5690   -0.2184   -1.2260 N   0  0  0  0  0  0  0  0  0  0  0  0
    1.8325   -0.2792   -0.8742 H   0  0  0  0  0  0  0  0  0  0  0  0
    0.9099    1.3654    2.2929 H   0  0  0  0  0  0  0  0  0  0  0  0
    4.4465   -0.0960    4.3246 H   0  0  0  0  0  0  0  0  0  0  0  0
    5.0935   -1.3437    2.2932 H   0  0  0  0  0  0  0  0  0  0  0  0
    3.6423   -1.3283    0.2894 H   0  0  0  0  0  0  0  0  0  0  0  0
    3.6059    3.4310    5.2794 H   0  0  0  0  0  0  0  0  0  0  0  0
    2.2345    3.9440    4.5096 H   0  0  0  0  0  0  0  0  0  0  0  0
   -1.2639    1.6458    3.3022 H   0  0  0  0  0  0  0  0  0  0  0  0
   -1.2395   -0.1129    3.6878 H   0  0  0  0  0  0  0  0  0  0  0  0
   -3.5766    0.0575    4.6662 H   0  0  0  0  0  0  0  0  0  0  0  0
   -4.4002    1.9335    3.2471 H   0  0  0  0  0  0  0  0  0  0  0  0
   -3.2523    3.0564    3.9890 H   0  0  0  0  0  0  0  0  0  0  0  0
   -5.5083    3.2895    5.0455 H   0  0  0  0  0  0  0  0  0  0  0  0
   -5.5349    1.5703    5.4489 H   0  0  0  0  0  0  0  0  0  0  0  0
   -3.5135    3.6457    6.5239 H   0  0  0  0  0  0  0  0  0  0  0  0
   -4.8450    2.9311    7.4394 H   0  0  0  0  0  0  0  0  0  0  0  0
   -2.6785    1.7682    7.9469 H   0  0  0  0  0  0  0  0  0  0  0  0
   -3.8370    0.6531    7.2156 H   0  0  0  0  0  0  0  0  0  0  0  0
   -1.5168    2.1002    5.7647 H   0  0  0  0  0  0  0  0  0  0  0  0
   -1.5806    0.3891    6.1617 H   0  0  0  0  0  0  0  0  0  0  0  0
   -4.9961   -0.3088   -2.3083 H   0  0  0  0  0  0  0  0  0  0  0  0
  1 13  2  0  0  0  0
  2  1  1  0  0  0  0
  2  3  1  0  0  0  0
  3  4  1  0  0  0  0
  4  5  2  0  0  0  0
  5  6  1  0  0  0  0
  5  9  1  0  0  0  0
  6 32  1  0  0  0  0
  7  6  2  0  0  0  0
  8  3  2  0  0  0  0
  8  7  1  0  0  0  0
  9 11  2  0  0  0  0
 10  9  2  0  0  0  0
 12  9  1  0  0  0  0
 12 35  1  0  0  0  0
 14 13  2  0  0  0  0
 14 15  1  0  0  0  0
 15 16  1  0  0  0  0
 16 38  1  0  0  0  0
 16 17  1  0  0  0  0
 17 39  1  0  0  0  0
 17 22  1  0  0  0  0
 18 17  1  0  0  0  0
 18 19  1  0  0  0  0
 19 43  1  0  0  0  0
 19 20  1  0  0  0  0
 20 21  1  0  0  0  0
 20 45  1  0  0  0  0
 21 47  1  0  0  0  0
 21 46  1  0  0  0  0
 22 49  1  0  0  0  0
 22 21  1  0  0  0  0
 23 14  1  0  0  0  0
 24 23  2  0  0  0  0
 25 24  2  0  0  0  0
 26 25  1  0  0  0  0
 26 28  1  0  0  0  0
 27 26  1  0  0  0  0
 28 23  1  0  0  0  0
 29 28  2  0  0  0  0
 29  1  2  0  0  0  0
 30  2  1  0  0  0  0
 31  4  1  0  0  0  0
 33  7  1  0  0  0  0
 34  8  1  0  0  0  0
 36 12  1  0  0  0  0
 37 16  1  0  0  0  0
 40 18  1  0  0  0  0
 41 18  1  0  0  0  0
 42 19  1  0  0  0  0
 44 20  1  0  0  0  0
 48 22  1  0  0  0  0
 50 25  1  0  0  0  0
M  END
$$$$
