rmsd186.gzmat
 OpenBabel08211713423D

 50 53  0  0  0  0  0  0  0  0999 V2000
    0.0000    0.0000    0.0000 C   0  0  0  0  0  0  0  0  0  0  0  0
    1.3845    0.0000    0.0000 N   0  0  0  0  0  0  0  0  0  0  0  0
    2.1778    0.0000    1.1708 C   0  0  0  0  0  0  0  0  0  0  0  0
    1.8072    0.7098    2.3240 C   0  0  0  0  0  0  0  0  0  0  0  0
    2.6269    0.6678    3.4445 C   0  0  0  0  0  0  0  0  0  0  0  0
    3.8283   -0.0381    3.4240 C   0  0  0  0  0  0  0  0  0  0  0  0
    4.2133   -0.7077    2.2634 C   0  0  0  0  0  0  0  0  0  0  0  0
    3.3958   -0.6994    1.1376 C   0  0  0  0  0  0  0  0  0  0  0  0
    2.1160    1.4974    4.9055 S   0  0  0  0  0  0  0  0  0  0  0  0
    0.6706    1.5395    4.9490 O   0  0  0  0  0  0  0  0  0  0  0  0
    2.8952    1.0087    6.0183 O   0  0  0  0  0  0  0  0  0  0  0  0
    2.6195    3.1411    4.6602 N   0  0  0  0  0  0  0  0  0  0  0  0
   -0.6691    0.1407    1.1904 N   0  0  0  0  0  0  0  0  0  0  0  0
   -2.0201    0.1730    1.1949 C   0  0  0  0  0  0  0  0  0  0  0  0
   -2.6756    0.3125    2.3344 O   0  0  0  0  0  0  0  0  0  0  0  0
   -1.8696    0.4174    3.5431 C   0  0  0  0  0  0  0  0  0  0  0  0
   -2.9220    0.4549    4.6529 C   0  0  0  0  0  0  0  0  0  0  0  0
   -3.6215    1.8232    4.6826 C   0  0  0  0  0  0  0  0  0  0  0  0
   -4.6158    1.8908    5.8477 C   0  0  0  0  0  0  0  0  0  0  0  0
   -3.9024    1.6263    7.1804 C   0  0  0  0  0  0  0  0  0  0  0  0
   -3.2034    0.2604    7.1537 C   0  0  0  0  0  0  0  0  0  0  0  0
   -2.2101    0.1836    5.9898 C   0  0  0  0  0  0  0  0  0  0  0  0
   -2.7350    0.0597   -0.0196 C   0  0  0  0  0  0  0  0  0  0  0  0
   -4.0786    0.0565   -0.3793 N   0  0  0  0  0  0  0  0  0  0  0  0
   -4.1172   -0.0862   -1.6983 C   0  0  0  0  0  0  0  0  0  0  0  0
   -2.8126   -0.1835   -2.2630 N   0  0  0  0  0  0  0  0  0  0  0  0
   -2.5661   -0.2906   -3.2222 H   0  0  0  0  0  0  0  0  0  0  0  0
   -1.9258   -0.0915   -1.2056 C   0  0  0  0  0  0  0  0  0  0  0  0
   -0.5725   -0.1325   -1.2370 N   0  0  0  0  0  0  0  0  0  0  0  0
    1.8352   -0.2295   -0.8860 H   0  0  0  0  0  0  0  0  0  0  0  0
    0.8668    1.2801    2.3330 H   0  0  0  0  0  0  0  0  0  0  0  0
    4.4723   -0.0841    4.3078 H   0  0  0  0  0  0  0  0  0  0  0  0
    5.1566   -1.2519    2.2414 H   0  0  0  0  0  0  0  0  0  0  0  0
    3.6961   -1.2439    0.2449 H   0  0  0  0  0  0  0  0  0  0  0  0
    3.3676    3.4797    5.2400 H   0  0  0  0  0  0  0  0  0  0  0  0
    1.8926    3.8325    4.5770 H   0  0  0  0  0  0  0  0  0  0  0  0
   -1.2570    1.3357    3.4900 H   0  0  0  0  0  0  0  0  0  0  0  0
   -1.2035   -0.4595    3.6086 H   0  0  0  0  0  0  0  0  0  0  0  0
   -3.6846   -0.3393    4.4674 H   0  0  0  0  0  0  0  0  0  0  0  0
   -4.1426    1.9993    3.7224 H   0  0  0  0  0  0  0  0  0  0  0  0
   -2.8706    2.6296    4.7791 H   0  0  0  0  0  0  0  0  0  0  0  0
   -5.1062    2.8805    5.8704 H   0  0  0  0  0  0  0  0  0  0  0  0
   -5.4233    1.1499    5.6985 H   0  0  0  0  0  0  0  0  0  0  0  0
   -3.1594    2.4225    7.3735 H   0  0  0  0  0  0  0  0  0  0  0  0
   -4.6245    1.6685    8.0149 H   0  0  0  0  0  0  0  0  0  0  0  0
   -2.6760    0.0864    8.1095 H   0  0  0  0  0  0  0  0  0  0  0  0
   -3.9550   -0.5457    7.0654 H   0  0  0  0  0  0  0  0  0  0  0  0
   -1.3900    0.9204    6.1331 H   0  0  0  0  0  0  0  0  0  0  0  0
   -1.7210   -0.8068    5.9721 H   0  0  0  0  0  0  0  0  0  0  0  0
   -5.0019   -0.1278   -2.3131 H   0  0  0  0  0  0  0  0  0  0  0  0
  1 13  2  0  0  0  0
  2  1  1  0  0  0  0
  2  3  1  0  0  0  0
  3  4  1  0  0  0  0
  4 31  1  0  0  0  0
  4  5  2  0  0  0  0
  5  9  1  0  0  0  0
  6  5  1  0  0  0  0
  6 32  1  0  0  0  0
  7  6  2  0  0  0  0
  8  3  2  0  0  0  0
  8  7  1  0  0  0  0
  9 10  2  0  0  0  0
  9 11  2  0  0  0  0
 12  9  1  0  0  0  0
 12 35  1  0  0  0  0
 13 14  2  0  0  0  0
 14 15  1  0  0  0  0
 15 16  1  0  0  0  0
 16 38  1  0  0  0  0
 16 17  1  0  0  0  0
 17 18  1  0  0  0  0
 17 22  1  0  0  0  0
 18 41  1  0  0  0  0
 18 19  1  0  0  0  0
 19 42  1  0  0  0  0
 19 20  1  0  0  0  0
 20 44  1  0  0  0  0
 20 45  1  0  0  0  0
 21 20  1  0  0  0  0
 21 46  1  0  0  0  0
 22 48  1  0  0  0  0
 22 21  1  0  0  0  0
 23 14  1  0  0  0  0
 24 23  2  0  0  0  0
 25 24  2  0  0  0  0
 26 25  1  0  0  0  0
 26 28  1  0  0  0  0
 27 26  1  0  0  0  0
 28 23  1  0  0  0  0
 29 28  2  0  0  0  0
 29  1  2  0  0  0  0
 30  2  1  0  0  0  0
 33  7  1  0  0  0  0
 34  8  1  0  0  0  0
 36 12  1  0  0  0  0
 37 16  1  0  0  0  0
 39 17  1  0  0  0  0
 40 18  1  0  0  0  0
 43 19  1  0  0  0  0
 47 21  1  0  0  0  0
 49 22  1  0  0  0  0
 50 25  1  0  0  0  0
M  END
$$$$
