
     RDKit          3D

 50 53  0  0  0  0  0  0  0  0999 V2000
    0.0052   -0.0966   -0.1234 C   0  0  0  0  0  0  0  0  0  0  0  0
    1.3866   -0.1257   -0.1110 N   0  0  0  0  0  0  0  0  0  0  0  0
    2.3099    0.0125    0.9180 C   0  0  0  0  0  0  0  0  0  0  0  0
    1.9626    0.0928    2.2762 C   0  0  0  0  0  0  0  0  0  0  0  0
    2.9753    0.2398    3.2224 C   0  0  0  0  0  0  0  0  0  0  0  0
    4.3280    0.2976    2.8937 C   0  0  0  0  0  0  0  0  0  0  0  0
    4.6659    0.2016    1.5394 C   0  0  0  0  0  0  0  0  0  0  0  0
    3.6786    0.0645    0.5693 C   0  0  0  0  0  0  0  0  0  0  0  0
    2.5159    0.2947    4.9499 S   0  0  0  0  0  0  0  0  0  0  0  0
    1.6574   -0.8503    5.2714 O   0  0  0  0  0  0  0  0  0  0  0  0
    3.7271    0.5565    5.7310 O   0  0  0  0  0  0  0  0  0  0  0  0
    1.4775    1.6350    4.9810 N   0  0  0  0  0  0  0  0  0  0  0  0
   -0.6587    0.1187    1.0259 N   0  0  0  0  0  0  0  0  0  0  0  0
   -1.9882    0.1551    1.0224 C   0  0  0  0  0  0  0  0  0  0  0  0
   -2.6789    0.3738    2.1301 O   0  0  0  0  0  0  0  0  0  0  0  0
   -2.0341    0.5455    3.4044 C   0  0  0  0  0  0  0  0  0  0  0  0
   -2.1609   -0.7115    4.2580 C   0  0  0  0  0  0  0  0  0  0  0  0
   -1.7335   -0.4153    5.7042 C   0  0  0  0  0  0  0  0  0  0  0  0
   -1.8702   -1.6501    6.6011 C   0  0  0  0  0  0  0  0  0  0  0  0
   -1.0897   -2.8405    6.0337 C   0  0  0  0  0  0  0  0  0  0  0  0
   -1.5133   -3.1403    4.5920 C   0  0  0  0  0  0  0  0  0  0  0  0
   -1.3691   -1.9034    3.6992 C   0  0  0  0  0  0  0  0  0  0  0  0
   -2.6828   -0.0331   -0.1927 C   0  0  0  0  0  0  0  0  0  0  0  0
   -4.0182   -0.0597   -0.5476 N   0  0  0  0  0  0  0  0  0  0  0  0
   -4.0143   -0.2819   -1.8336 C   0  0  0  0  0  0  0  0  0  0  0  0
   -2.7373   -0.4065   -2.3633 N   0  0  0  0  0  0  0  0  0  0  0  0
   -2.4835   -0.5820   -3.3277 H   0  0  0  0  0  0  0  0  0  0  0  0
   -1.8600   -0.2497   -1.3190 C   0  0  0  0  0  0  0  0  0  0  0  0
   -0.5301   -0.2895   -1.3372 N   0  0  0  0  0  0  0  0  0  0  0  0
    1.7663   -0.2574   -1.0414 H   0  0  0  0  0  0  0  0  0  0  0  0
    0.9184    0.0501    2.5636 H   0  0  0  0  0  0  0  0  0  0  0  0
    5.0779    0.4118    3.6759 H   0  0  0  0  0  0  0  0  0  0  0  0
    5.7147    0.2390    1.2367 H   0  0  0  0  0  0  0  0  0  0  0  0
    3.9613   -0.0010   -0.4850 H   0  0  0  0  0  0  0  0  0  0  0  0
    2.0159    2.4979    5.0739 H   0  0  0  0  0  0  0  0  0  0  0  0
    0.8396    1.5239    5.7719 H   0  0  0  0  0  0  0  0  0  0  0  0
   -2.5714    1.3799    3.8797 H   0  0  0  0  0  0  0  0  0  0  0  0
   -0.9851    0.8386    3.2644 H   0  0  0  0  0  0  0  0  0  0  0  0
   -3.2332   -0.9839    4.2667 H   0  0  0  0  0  0  0  0  0  0  0  0
   -2.3270    0.4225    6.1103 H   0  0  0  0  0  0  0  0  0  0  0  0
   -0.6766   -0.1040    5.6968 H   0  0  0  0  0  0  0  0  0  0  0  0
   -1.5222   -1.4143    7.6205 H   0  0  0  0  0  0  0  0  0  0  0  0
   -2.9397   -1.9173    6.6881 H   0  0  0  0  0  0  0  0  0  0  0  0
   -0.0133   -2.6018    6.0501 H   0  0  0  0  0  0  0  0  0  0  0  0
   -1.2361   -3.7295    6.6698 H   0  0  0  0  0  0  0  0  0  0  0  0
   -0.9141   -3.9700    4.1820 H   0  0  0  0  0  0  0  0  0  0  0  0
   -2.5663   -3.4783    4.5801 H   0  0  0  0  0  0  0  0  0  0  0  0
   -0.3039   -1.6256    3.6420 H   0  0  0  0  0  0  0  0  0  0  0  0
   -1.7018   -2.1329    2.6745 H   0  0  0  0  0  0  0  0  0  0  0  0
   -4.8994   -0.3685   -2.4647 H   0  0  0  0  0  0  0  0  0  0  0  0
  1  2  1  0
  1 13  2  0
  1 29  1  0
  2  3  1  0
  2 30  1  0
  3  4  2  0
  3  8  1  0
  4  5  1  0
  4 31  1  0
  5  6  2  0
  5  9  1  0
  6  7  1  0
  6 32  1  0
  7  8  2  0
  7 33  1  0
  8 34  1  0
  9 10  2  0
  9 11  2  0
  9 12  1  0
 12 35  1  0
 12 36  1  0
 13 14  1  0
 14 15  1  0
 14 23  2  0
 15 16  1  0
 16 17  1  0
 16 37  1  0
 16 38  1  0
 17 18  1  0
 17 22  1  0
 17 39  1  0
 18 19  1  0
 18 40  1  0
 18 41  1  0
 19 20  1  0
 19 42  1  0
 19 43  1  0
 20 21  1  0
 20 44  1  0
 20 45  1  0
 21 22  1  0
 21 46  1  0
 21 47  1  0
 22 48  1  0
 22 49  1  0
 23 24  1  0
 23 28  1  0
 24 25  2  0
 25 26  1  0
 25 50  1  0
 26 27  1  0
 26 28  1  0
 28 29  2  0
M  END

