
     RDKit          3D

 50 53  0  0  0  0  0  0  0  0999 V2000
   -0.0718    0.0152   -0.0496 C   0  0  0  0  0  0  0  0  0  0  0  0
    1.2855    0.2712   -0.0544 N   0  0  0  0  0  0  0  0  0  0  0  0
    2.1867    0.4187    0.9975 C   0  0  0  0  0  0  0  0  0  0  0  0
    1.8305    0.2834    2.3490 C   0  0  0  0  0  0  0  0  0  0  0  0
    2.8049    0.4408    3.3288 C   0  0  0  0  0  0  0  0  0  0  0  0
    4.1390    0.7203    3.0414 C   0  0  0  0  0  0  0  0  0  0  0  0
    4.4885    0.8526    1.6925 C   0  0  0  0  0  0  0  0  0  0  0  0
    3.5342    0.7073    0.6883 C   0  0  0  0  0  0  0  0  0  0  0  0
    2.2834    0.2325    5.0283 S   0  0  0  0  0  0  0  0  0  0  0  0
    1.3166   -0.8696    5.0987 O   0  0  0  0  0  0  0  0  0  0  0  0
    3.4824    0.2500    5.8697 O   0  0  0  0  0  0  0  0  0  0  0  0
    1.3621    1.6259    5.2995 N   0  0  0  0  0  0  0  0  0  0  0  0
   -0.7039   -0.0625    1.1331 N   0  0  0  0  0  0  0  0  0  0  0  0
   -2.0060   -0.3137    1.1843 C   0  0  0  0  0  0  0  0  0  0  0  0
   -2.6162   -0.3871    2.3576 O   0  0  0  0  0  0  0  0  0  0  0  0
   -1.8404   -0.1262    3.5422 C   0  0  0  0  0  0  0  0  0  0  0  0
   -2.7531   -0.2107    4.7524 C   0  0  0  0  0  0  0  0  0  0  0  0
   -3.9600    0.7330    4.6539 C   0  0  0  0  0  0  0  0  0  0  0  0
   -4.8441    0.6481    5.9019 C   0  0  0  0  0  0  0  0  0  0  0  0
   -4.0436    0.9123    7.1818 C   0  0  0  0  0  0  0  0  0  0  0  0
   -2.8296   -0.0177    7.2831 C   0  0  0  0  0  0  0  0  0  0  0  0
   -1.9498    0.0706    6.0325 C   0  0  0  0  0  0  0  0  0  0  0  0
   -2.7201   -0.4936   -0.0197 C   0  0  0  0  0  0  0  0  0  0  0  0
   -4.0392   -0.7541   -0.3366 N   0  0  0  0  0  0  0  0  0  0  0  0
   -4.0639   -0.7972   -1.6411 C   0  0  0  0  0  0  0  0  0  0  0  0
   -2.8221   -0.5765   -2.2192 N   0  0  0  0  0  0  0  0  0  0  0  0
   -2.5945   -0.5633   -3.2058 H   0  0  0  0  0  0  0  0  0  0  0  0
   -1.9348   -0.3772   -1.1903 C   0  0  0  0  0  0  0  0  0  0  0  0
   -0.6279   -0.1285   -1.2598 N   0  0  0  0  0  0  0  0  0  0  0  0
    1.6653    0.3314   -0.9920 H   0  0  0  0  0  0  0  0  0  0  0  0
    0.8050    0.0589    2.6125 H   0  0  0  0  0  0  0  0  0  0  0  0
    4.8679    0.8180    3.8457 H   0  0  0  0  0  0  0  0  0  0  0  0
    5.5235    1.0695    1.4189 H   0  0  0  0  0  0  0  0  0  0  0  0
    3.8312    0.8142   -0.3587 H   0  0  0  0  0  0  0  0  0  0  0  0
    1.9358    2.3632    5.7099 H   0  0  0  0  0  0  0  0  0  0  0  0
    0.5821    1.3779    5.9106 H   0  0  0  0  0  0  0  0  0  0  0  0
   -1.3853    0.8748    3.4577 H   0  0  0  0  0  0  0  0  0  0  0  0
   -1.0193   -0.8551    3.6154 H   0  0  0  0  0  0  0  0  0  0  0  0
   -3.1345   -1.2473    4.8103 H   0  0  0  0  0  0  0  0  0  0  0  0
   -4.5393    0.5015    3.7476 H   0  0  0  0  0  0  0  0  0  0  0  0
   -3.5885    1.7690    4.5357 H   0  0  0  0  0  0  0  0  0  0  0  0
   -5.6846    1.3570    5.8210 H   0  0  0  0  0  0  0  0  0  0  0  0
   -5.2925   -0.3606    5.9571 H   0  0  0  0  0  0  0  0  0  0  0  0
   -3.6944    1.9617    7.1788 H   0  0  0  0  0  0  0  0  0  0  0  0
   -4.6878    0.8010    8.0697 H   0  0  0  0  0  0  0  0  0  0  0  0
   -2.2368    0.2178    8.1825 H   0  0  0  0  0  0  0  0  0  0  0  0
   -3.1769   -1.0596    7.4041 H   0  0  0  0  0  0  0  0  0  0  0  0
   -1.5379    1.0967    5.9581 H   0  0  0  0  0  0  0  0  0  0  0  0
   -1.0881   -0.6122    6.1024 H   0  0  0  0  0  0  0  0  0  0  0  0
   -4.9473   -0.9842   -2.2524 H   0  0  0  0  0  0  0  0  0  0  0  0
  1  2  1  0
  1 13  2  0
  1 29  1  0
  2  3  1  0
  2 30  1  0
  3  4  2  0
  3  8  1  0
  4  5  1  0
  4 31  1  0
  5  6  2  0
  5  9  1  0
  6  7  1  0
  6 32  1  0
  7  8  2  0
  7 33  1  0
  8 34  1  0
  9 10  2  0
  9 11  2  0
  9 12  1  0
 12 35  1  0
 12 36  1  0
 13 14  1  0
 14 15  1  0
 14 23  2  0
 15 16  1  0
 16 17  1  0
 16 37  1  0
 16 38  1  0
 17 18  1  0
 17 22  1  0
 17 39  1  0
 18 19  1  0
 18 40  1  0
 18 41  1  0
 19 20  1  0
 19 42  1  0
 19 43  1  0
 20 21  1  0
 20 44  1  0
 20 45  1  0
 21 22  1  0
 21 46  1  0
 21 47  1  0
 22 48  1  0
 22 49  1  0
 23 24  1  0
 23 28  1  0
 24 25  2  0
 25 26  1  0
 25 50  1  0
 26 27  1  0
 26 28  1  0
 28 29  2  0
M  END

