50
rmsd184.gzmat
C          0.00000        0.00000        0.00000
N          1.38370        0.00000        0.00000
C          2.24740        0.00000        1.11310
C          1.83750        0.19010        2.43980
C          2.78250        0.18680        3.45910
C          4.13270       -0.00990        3.18720
C          4.54210       -0.19670        1.86630
C          3.61600       -0.19050        0.83130
S          2.23770        0.42990        5.11230
O          0.84930        0.03500        5.20920
O          3.24060       -0.06240        6.02590
N          2.22860        2.15630        5.29890
N         -0.70050        0.14350        1.17010
C         -2.05110        0.15410        1.14060
O         -2.76660        0.26940        2.24740
C         -2.09930        0.47630        3.51150
C         -2.18480        1.96830        3.84580
C         -1.18440        2.78240        3.01170
C         -1.23890        4.26450        3.40000
C         -0.94910        4.44610        4.89560
C         -1.92990        3.62210        5.74020
C         -1.89630        2.14110        5.34750
C         -2.73460        0.02210       -0.09040
N         -4.07000       -0.00650       -0.48100
C         -4.07570       -0.15700       -1.79940
N         -2.75670       -0.23210       -2.33420
H         -2.48660       -0.34650       -3.28630
C         -1.89620       -0.12000       -1.25670
N         -0.54420       -0.13690       -1.25210
H          1.81480       -0.11890       -0.92280
H          0.77050        0.32970        2.67550
H          4.87730       -0.03050        3.98790
H          5.59700       -0.35240        1.64500
H          3.95180       -0.33720       -0.19300
H          2.81630        2.54360        6.01640
H          1.32460        2.60630        5.28840
H         -1.06640        0.08110        3.52800
H         -2.72900       -0.14610        4.17650
H         -3.21750        2.33180        3.62300
H         -1.40760        2.66780        1.93440
H         -0.15950        2.39000        3.14840
H         -0.50880        4.83810        2.79980
H         -2.23280        4.68310        3.15450
H          0.09210        4.15090        5.11670
H         -1.02350        5.51490        5.16830
H         -1.69360        3.73300        6.81400
H         -2.95470        4.02040        5.61380
H         -0.91200        1.69380        5.59500
H         -2.63530        1.57850        5.94720
H         -4.94620       -0.21980       -2.43290
