50

C         -0.23320       -0.05180       -0.08700
N          1.14680       -0.12540       -0.02180
C          2.00260       -0.10280        1.07420
C          1.64030        0.44250        2.32030
C          2.55850        0.40980        3.36320
C          3.83990       -0.13150        3.23670
C          4.20280       -0.63800        1.98850
C          3.30050       -0.62940        0.92410
S          2.00610        1.01700        4.95070
O          0.74150        1.73570        4.74200
O          2.10540       -0.05940        5.94030
N          3.22430        2.10860        5.36730
N         -0.92600        0.12960        1.05050
C         -2.25560        0.14860        1.01880
O         -2.96490        0.28860        2.12420
C         -2.31740        0.37720        3.41000
C         -1.69330       -0.93010        3.89510
C         -2.56280       -2.16380        3.61990
C         -1.87770       -3.43850        4.12520
C         -1.51550       -3.34070        5.61160
C         -0.68260       -2.08900        5.90650
C         -1.37720       -0.82440        5.39600
C         -2.91860        0.00960       -0.22180
N         -4.24390       -0.00960       -0.61220
C         -4.20580       -0.17800       -1.90590
N         -2.91500       -0.27490       -2.40670
H         -2.63510       -0.40940       -3.37040
C         -2.06580       -0.15680       -1.33420
N         -0.73480       -0.20020       -1.31990
H          1.55750       -0.36800       -0.91590
H          0.65600        0.87300        2.46470
H          4.52800       -0.14120        4.08200
H          5.20000       -1.05870        1.84140
H          3.59830       -1.04790       -0.04100
H          3.37110        2.05310        6.37610
H          2.97750        3.05510        5.07630
H         -3.13500        0.68000        4.07960
H         -1.56300        1.17760        3.39260
H         -0.73980       -1.06770        3.35900
H         -2.78220       -2.25040        2.54410
H         -3.53890       -2.03950        4.12520
H         -2.52200       -4.31480        3.94260
H         -0.95450       -3.60170        3.53910
H         -2.44760       -3.30230        6.20560
H         -0.97770       -4.24800        5.93460
H         -0.48480       -2.00020        6.98710
H          0.30730       -2.16880        5.42510
H         -2.32600       -0.67890        5.94720
H         -0.75390        0.05850        5.59170
H         -5.07380       -0.24130       -2.56300
