50

C         -0.03830       -0.17850        0.03270
N          1.34000       -0.24110        0.10340
C          2.20730       -0.03640        1.17340
C          1.78520        0.37780        2.44790
C          2.72990        0.54840        3.45410
C          4.09230        0.31920        3.27060
C          4.50690       -0.08660        1.99740
C          3.58610       -0.26020        0.96660
S          2.12640        1.08250        5.05270
O          0.77840        0.54280        5.26520
O          3.19880        0.86990        6.02770
N          1.88690        2.74120        4.81230
N         -0.72220        0.14270        1.14310
C         -2.04840        0.20190        1.12150
O         -2.71200        0.50970        2.22380
C         -1.95710        0.75580        3.42910
C         -2.92830        1.02590        4.56350
C         -3.82800       -0.18500        4.85640
C         -4.79480        0.08930        6.01230
C         -5.63090        1.34750        5.75640
C         -4.73570        2.56020        5.48170
C         -3.76850        2.29020        4.32490
C         -2.72940       -0.06760       -0.08540
N         -4.05750       -0.09610       -0.46450
C         -4.03390       -0.41850       -1.72920
N         -2.75060       -0.60920       -2.22110
H         -2.48280       -0.86400       -3.16380
C         -1.88800       -0.38780       -1.17580
N         -0.55750       -0.45740       -1.17040
H          1.76030       -0.51160       -0.77810
H          0.73290        0.54840        2.63590
H          4.79020        0.44340        4.09840
H          5.56520       -0.27830        1.80670
H          3.93300       -0.58370       -0.01870
H          2.70490        3.27040        5.11630
H          1.05370        3.01940        5.33280
H         -1.29060        1.61650        3.26040
H         -1.32200       -0.11480        3.64640
H         -2.28630        1.19590        5.44830
H         -3.20220       -1.06580        5.07890
H         -4.40070       -0.42600        3.94430
H         -5.45070       -0.78230        6.17340
H         -4.21720        0.22250        6.94550
H         -6.28450        1.17570        4.88160
H         -6.29730        1.54770        6.61200
H         -5.34900        3.45050        5.26450
H         -4.15580        2.79440        6.39370
H         -4.33830        2.16160        3.38860
H         -3.10240        3.15680        4.17010
H         -4.90860       -0.53640       -2.36970
