39
rmsd166.gzmat
C          0.00000        0.00000        0.00000
C          1.39100        0.00000        0.00000
C          2.10120        0.00000        1.20420
C          1.40550        0.00150        2.41790
C          0.01600       -0.00540        2.43390
C         -0.68280       -0.01490        1.22010
N         -2.10600        0.00470        1.26640
C         -2.89240       -0.85340        0.60850
C         -4.28110       -0.86950        0.66950
C         -4.77070       -1.94680       -0.16620
O         -5.87430       -2.33420       -0.43220
O         -3.67170       -2.60860       -0.73400
C         -2.45850       -1.98430       -0.30600
C         -5.06090        0.05810        1.46610
O         -4.50720        0.91020        2.15350
N         -6.43870       -0.07410        1.40040
C         -7.37900        0.74550        2.06040
C         -7.02610        1.70660        3.01630
C         -8.02220        2.47040        3.61730
C         -9.36120        2.29100        3.27720
C         -9.70990        1.33020        2.32890
C         -8.73210        0.55380        1.72030
C          3.58960        0.02200        1.19780
H         -0.54440        0.03590       -0.94230
H          1.92970        0.00840       -0.94720
H          1.95620        0.00810        3.35840
H         -0.52340       -0.00540        3.38200
H         -2.57500        0.69560        1.89250
H         -1.94240       -1.64980       -1.22290
H         -1.86450       -2.76140        0.20890
H         -6.81110       -0.81230        0.79300
H         -5.98240        1.86490        3.29300
H         -7.74710        3.21690        4.36110
H        -10.13000        2.89610        3.74840
H        -10.75610        1.18810        2.06130
H         -9.01360       -0.19490        0.98390
H          3.96570        1.05760        1.23650
H          4.01540       -0.43990        0.29580
H          4.02180       -0.50760        2.05910
