rmsd185.gzmat
 OpenBabel08211713393D

 39 41  0  0  0  0  0  0  0  0999 V2000
    0.0000    0.0000    0.0000 C   0  0  0  0  0  0  0  0  0  0  0  0
    1.3906    0.0000    0.0000 C   0  0  0  0  0  0  0  0  0  0  0  0
    2.0998    0.0000    1.2045 C   0  0  0  0  0  0  0  0  0  0  0  0
    1.4040    0.0019    2.4181 C   0  0  0  0  0  0  0  0  0  0  0  0
    0.0142    0.0013    2.4341 C   0  0  0  0  0  0  0  0  0  0  0  0
   -0.6830    0.0055    1.2201 C   0  0  0  0  0  0  0  0  0  0  0  0
   -2.1071   -0.0287    1.2558 N   0  0  0  0  0  0  0  0  0  0  0  0
   -2.8899    0.8540    0.6276 C   0  0  0  0  0  0  0  0  0  0  0  0
   -4.2794    0.8340    0.6286 C   0  0  0  0  0  0  0  0  0  0  0  0
   -4.7605    1.9621   -0.1430 C   0  0  0  0  0  0  0  0  0  0  0  0
   -5.8617    2.3440   -0.4272 O   0  0  0  0  0  0  0  0  0  0  0  0
   -3.6561    2.6888   -0.6121 O   0  0  0  0  0  0  0  0  0  0  0  0
   -2.4463    2.0618   -0.1788 C   0  0  0  0  0  0  0  0  0  0  0  0
   -5.0706   -0.1732    1.3093 C   0  0  0  0  0  0  0  0  0  0  0  0
   -4.5308   -1.0568    1.9666 O   0  0  0  0  0  0  0  0  0  0  0  0
   -6.4456   -0.0791    1.1640 N   0  0  0  0  0  0  0  0  0  0  0  0
   -7.3970   -0.9737    1.6987 C   0  0  0  0  0  0  0  0  0  0  0  0
   -7.0846   -1.9525    2.6505 C   0  0  0  0  0  0  0  0  0  0  0  0
   -8.0916   -2.7878    3.1257 C   0  0  0  0  0  0  0  0  0  0  0  0
   -9.4008   -2.6597    2.6667 C   0  0  0  0  0  0  0  0  0  0  0  0
   -9.7094   -1.6805    1.7229 C   0  0  0  0  0  0  0  0  0  0  0  0
   -8.7203   -0.8359    1.2360 C   0  0  0  0  0  0  0  0  0  0  0  0
    3.5882   -0.0271    1.2008 C   0  0  0  0  0  0  0  0  0  0  0  0
   -0.5460   -0.0260   -0.9423 H   0  0  0  0  0  0  0  0  0  0  0  0
    1.9298   -0.0088   -0.9468 H   0  0  0  0  0  0  0  0  0  0  0  0
    1.9552    0.0041    3.3580 H   0  0  0  0  0  0  0  0  0  0  0  0
   -0.5263   -0.0002    3.3812 H   0  0  0  0  0  0  0  0  0  0  0  0
   -2.5761   -0.7754    1.8119 H   0  0  0  0  0  0  0  0  0  0  0  0
   -1.8963    2.8106    0.4203 H   0  0  0  0  0  0  0  0  0  0  0  0
   -1.8803    1.8132   -1.0933 H   0  0  0  0  0  0  0  0  0  0  0  0
   -6.8057    0.6906    0.5895 H   0  0  0  0  0  0  0  0  0  0  0  0
   -6.0646   -2.0680    3.0208 H   0  0  0  0  0  0  0  0  0  0  0  0
   -7.8490   -3.5493    3.8657 H   0  0  0  0  0  0  0  0  0  0  0  0
  -10.1780   -3.3184    3.0427 H   0  0  0  0  0  0  0  0  0  0  0  0
  -10.7323   -1.5760    1.3636 H   0  0  0  0  0  0  0  0  0  0  0  0
   -8.9690   -0.0757    0.4992 H   0  0  0  0  0  0  0  0  0  0  0  0
    4.0192    0.6151    1.9825 H   0  0  0  0  0  0  0  0  0  0  0  0
    4.0186    0.3041    0.2454 H   0  0  0  0  0  0  0  0  0  0  0  0
    3.9607   -1.0490    1.3823 H   0  0  0  0  0  0  0  0  0  0  0  0
  1  6  1  0  0  0  0
  2  1  2  0  0  0  0
  2  3  1  0  0  0  0
  3  4  2  0  0  0  0
  4  5  1  0  0  0  0
  4 26  1  0  0  0  0
  5 27  1  0  0  0  0
  6  7  1  0  0  0  0
  6  5  2  0  0  0  0
  7 28  1  0  0  0  0
  8  9  2  0  0  0  0
  8  7  1  0  0  0  0
  9 14  1  0  0  0  0
 10  9  1  0  0  0  0
 11 10  2  0  0  0  0
 12 13  1  0  0  0  0
 12 10  1  0  0  0  0
 13 29  1  0  0  0  0
 13  8  1  0  0  0  0
 14 15  2  0  0  0  0
 16 14  1  0  0  0  0
 16 17  1  0  0  0  0
 17 18  1  0  0  0  0
 18 32  1  0  0  0  0
 18 19  2  0  0  0  0
 19 33  1  0  0  0  0
 20 34  1  0  0  0  0
 20 19  1  0  0  0  0
 21 20  2  0  0  0  0
 22 17  2  0  0  0  0
 22 21  1  0  0  0  0
 23  3  1  0  0  0  0
 23 39  1  0  0  0  0
 23 37  1  0  0  0  0
 24  1  1  0  0  0  0
 25  2  1  0  0  0  0
 30 13  1  0  0  0  0
 31 16  1  0  0  0  0
 35 21  1  0  0  0  0
 36 22  1  0  0  0  0
 38 23  1  0  0  0  0
M  END
$$$$
