39
rmsd178.gzmat
C          0.00000        0.00000        0.00000
C          1.39120        0.00000        0.00000
C          2.09930        0.00000        1.20500
C          1.40310        0.00080        2.41910
C          0.01360        0.00170        2.43490
C         -0.68120        0.00550        1.22030
N         -2.10680       -0.02890        1.24940
C         -2.87860        0.93800        0.74670
C         -4.26890        0.94340        0.76410
C         -4.73650        2.16260        0.13820
O         -5.83290        2.59690       -0.08120
O         -3.62220        2.91920       -0.25690
C         -2.42010        2.22280        0.08200
C         -5.06360       -0.12150        1.34270
O         -4.52240       -1.09270        1.86150
N         -6.44030        0.02290        1.27750
C         -7.38820       -0.89830        1.77180
C         -7.04570       -2.00510        2.55980
C         -8.04750       -2.85870        3.01230
C         -9.38270       -2.62490        2.69010
C         -9.72110       -1.52060        1.90870
C         -8.73720       -0.65430        1.44890
C          3.58800       -0.00980        1.21020
H         -0.54950       -0.02490       -0.94040
H          1.93020       -0.00680       -0.94680
H          1.95520        0.00100        3.35870
H         -0.52910       -0.00010        3.38090
H         -2.58060       -0.83590        1.70900
H         -1.84740        2.88620        0.75560
H         -1.86960        2.06790       -0.86260
H         -6.80330        0.86090        0.81110
H         -6.00510       -2.20730        2.82040
H         -7.77960       -3.71870        3.62480
H        -10.15630       -3.29890        3.04580
H        -10.76460       -1.33560        1.65660
H         -9.01030        0.20510        0.84200
H          3.99640        0.84570        1.77030
H          4.02250        0.03240        0.20170
H          3.97990       -0.92250        1.68740
