39

C          0.15270       -0.89800        0.27100
C          1.54150       -0.81220        0.39780
C          2.14980       -0.00840        1.36850
C          1.30570        0.72020        2.22380
C         -0.07730        0.64710        2.11260
C         -0.67850       -0.16530        1.13190
N         -2.07820       -0.17730        1.09300
C         -2.95290       -0.82710        0.31310
C         -4.32280       -0.71610        0.42180
C         -4.93810       -1.56690       -0.58780
O         -6.10850       -1.75730       -0.82980
O         -3.93900       -2.18590       -1.30000
C         -2.66680       -1.78900       -0.81450
C         -5.00550        0.12910        1.40810
O         -4.35250        0.80590        2.21630
N         -6.36600        0.08930        1.34040
C         -7.31330        0.76440        2.12380
C         -6.97230        1.64330        3.16730
C         -7.98570        2.27130        3.89420
C         -9.33330        2.04330        3.60490
C         -9.66880        1.16870        2.56660
C         -8.67040        0.53390        1.83130
C          3.64800        0.08070        1.50070
H         -0.25580       -1.54030       -0.50470
H          2.16630       -1.39320       -0.28540
H          1.74240        1.36000        2.99540
H         -0.71300        1.22320        2.78960
H         -2.58250        0.40950        1.77740
H         -2.09360       -1.31320       -1.62780
H         -2.10990       -2.67620       -0.46900
H         -6.73060       -0.52680        0.60850
H         -5.92350        1.81950        3.39110
H         -7.71050        2.95260        4.70330
H        -10.11550        2.54140        4.18190
H        -10.71720        0.97740        2.32500
H         -8.93540       -0.14950        1.02000
H          4.00080        1.11620        1.36230
H          4.15690       -0.55020        0.75780
H          3.98100       -0.24120        2.50140
