rmsd156.gzmat
 OpenBabel08211713393D

 39 41  0  0  0  0  0  0  0  0999 V2000
    0.0000    0.0000    0.0000 C   0  0  0  0  0  0  0  0  0  0  0  0
    1.3909    0.0000    0.0000 C   0  0  0  0  0  0  0  0  0  0  0  0
    2.0987    0.0000    1.2054 C   0  0  0  0  0  0  0  0  0  0  0  0
    1.4027   -0.0011    2.4196 C   0  0  0  0  0  0  0  0  0  0  0  0
    0.0130    0.0006    2.4351 C   0  0  0  0  0  0  0  0  0  0  0  0
   -0.6811   -0.0034    1.2206 C   0  0  0  0  0  0  0  0  0  0  0  0
   -2.1071    0.0314    1.2464 N   0  0  0  0  0  0  0  0  0  0  0  0
   -2.8729   -0.9501    0.7631 C   0  0  0  0  0  0  0  0  0  0  0  0
   -4.2628   -0.9560    0.7547 C   0  0  0  0  0  0  0  0  0  0  0  0
   -4.7176   -2.1985    0.1656 C   0  0  0  0  0  0  0  0  0  0  0  0
   -5.8094   -2.6458   -0.0506 O   0  0  0  0  0  0  0  0  0  0  0  0
   -3.5959   -2.9633   -0.1910 O   0  0  0  0  0  0  0  0  0  0  0  0
   -2.4008   -2.2575    0.1525 C   0  0  0  0  0  0  0  0  0  0  0  0
   -5.0704    0.1330    1.2679 C   0  0  0  0  0  0  0  0  0  0  0  0
   -4.5419    1.1284    1.7521 O   0  0  0  0  0  0  0  0  0  0  0  0
   -6.4452   -0.0198    1.1782 N   0  0  0  0  0  0  0  0  0  0  0  0
   -7.4109    0.9151    1.6066 C   0  0  0  0  0  0  0  0  0  0  0  0
   -8.7581    0.5118    1.5275 C   0  0  0  0  0  0  0  0  0  0  0  0
   -9.7617    1.3850    1.9274 C   0  0  0  0  0  0  0  0  0  0  0  0
   -9.4441    2.6548    2.4082 C   0  0  0  0  0  0  0  0  0  0  0  0
   -8.1104    3.0515    2.4797 C   0  0  0  0  0  0  0  0  0  0  0  0
   -7.0898    2.1939    2.0803 C   0  0  0  0  0  0  0  0  0  0  0  0
    3.5871    0.0130    1.2070 C   0  0  0  0  0  0  0  0  0  0  0  0
   -0.5493    0.0217   -0.9410 H   0  0  0  0  0  0  0  0  0  0  0  0
    1.9302    0.0076   -0.9470 H   0  0  0  0  0  0  0  0  0  0  0  0
    1.9545   -0.0032    3.3597 H   0  0  0  0  0  0  0  0  0  0  0  0
   -0.5304    0.0036    3.3809 H   0  0  0  0  0  0  0  0  0  0  0  0
   -2.5830    0.8543    1.6713 H   0  0  0  0  0  0  0  0  0  0  0  0
   -1.8271   -2.1353   -0.7826 H   0  0  0  0  0  0  0  0  0  0  0  0
   -1.8458   -2.8980    0.8622 H   0  0  0  0  0  0  0  0  0  0  0  0
   -6.7934   -0.8970    0.7767 H   0  0  0  0  0  0  0  0  0  0  0  0
   -9.0151   -0.4773    1.1562 H   0  0  0  0  0  0  0  0  0  0  0  0
  -10.8039    1.0749    1.8640 H   0  0  0  0  0  0  0  0  0  0  0  0
  -10.2326    3.3308    2.7255 H   0  0  0  0  0  0  0  0  0  0  0  0
   -7.8592    4.0442    2.8508 H   0  0  0  0  0  0  0  0  0  0  0  0
   -6.0516    2.5251    2.1394 H   0  0  0  0  0  0  0  0  0  0  0  0
    3.9754    0.9677    1.5969 H   0  0  0  0  0  0  0  0  0  0  0  0
    4.0193   -0.1203    0.2053 H   0  0  0  0  0  0  0  0  0  0  0  0
    4.0017   -0.7841    1.8423 H   0  0  0  0  0  0  0  0  0  0  0  0
  1  6  1  0  0  0  0
  2  1  2  0  0  0  0
  2  3  1  0  0  0  0
  3 23  1  0  0  0  0
  3  4  2  0  0  0  0
  4  5  1  0  0  0  0
  4 26  1  0  0  0  0
  5 27  1  0  0  0  0
  6  7  1  0  0  0  0
  6  5  2  0  0  0  0
  7 28  1  0  0  0  0
  8  7  1  0  0  0  0
  9  8  2  0  0  0  0
  9 14  1  0  0  0  0
 10  9  1  0  0  0  0
 11 10  2  0  0  0  0
 12 13  1  0  0  0  0
 12 10  1  0  0  0  0
 13  8  1  0  0  0  0
 13 30  1  0  0  0  0
 14 15  2  0  0  0  0
 16 14  1  0  0  0  0
 16 17  1  0  0  0  0
 17 22  1  0  0  0  0
 18 17  2  0  0  0  0
 18 19  1  0  0  0  0
 19 20  2  0  0  0  0
 20 21  1  0  0  0  0
 20 34  1  0  0  0  0
 21 35  1  0  0  0  0
 22 36  1  0  0  0  0
 22 21  2  0  0  0  0
 23 37  1  0  0  0  0
 23 39  1  0  0  0  0
 24  1  1  0  0  0  0
 25  2  1  0  0  0  0
 29 13  1  0  0  0  0
 31 16  1  0  0  0  0
 32 18  1  0  0  0  0
 33 19  1  0  0  0  0
 38 23  1  0  0  0  0
M  END
$$$$
