
     RDKit          3D

 39 41  0  0  0  0  0  0  0  0999 V2000
    0.1527   -0.8980    0.2710 C   0  0  0  0  0  0  0  0  0  0  0  0
    1.5415   -0.8122    0.3978 C   0  0  0  0  0  0  0  0  0  0  0  0
    2.1498   -0.0084    1.3685 C   0  0  0  0  0  0  0  0  0  0  0  0
    1.3057    0.7202    2.2238 C   0  0  0  0  0  0  0  0  0  0  0  0
   -0.0773    0.6471    2.1126 C   0  0  0  0  0  0  0  0  0  0  0  0
   -0.6785   -0.1653    1.1319 C   0  0  0  0  0  0  0  0  0  0  0  0
   -2.0782   -0.1773    1.0930 N   0  0  0  0  0  0  0  0  0  0  0  0
   -2.9529   -0.8271    0.3131 C   0  0  0  0  0  0  0  0  0  0  0  0
   -4.3228   -0.7161    0.4218 C   0  0  0  0  0  0  0  0  0  0  0  0
   -4.9381   -1.5669   -0.5878 C   0  0  0  0  0  0  0  0  0  0  0  0
   -6.1085   -1.7573   -0.8298 O   0  0  0  0  0  0  0  0  0  0  0  0
   -3.9390   -2.1859   -1.3000 O   0  0  0  0  0  0  0  0  0  0  0  0
   -2.6668   -1.7890   -0.8145 C   0  0  0  0  0  0  0  0  0  0  0  0
   -5.0055    0.1291    1.4081 C   0  0  0  0  0  0  0  0  0  0  0  0
   -4.3525    0.8059    2.2163 O   0  0  0  0  0  0  0  0  0  0  0  0
   -6.3660    0.0893    1.3404 N   0  0  0  0  0  0  0  0  0  0  0  0
   -7.3133    0.7644    2.1238 C   0  0  0  0  0  0  0  0  0  0  0  0
   -6.9723    1.6433    3.1673 C   0  0  0  0  0  0  0  0  0  0  0  0
   -7.9857    2.2713    3.8942 C   0  0  0  0  0  0  0  0  0  0  0  0
   -9.3333    2.0433    3.6049 C   0  0  0  0  0  0  0  0  0  0  0  0
   -9.6688    1.1687    2.5666 C   0  0  0  0  0  0  0  0  0  0  0  0
   -8.6704    0.5339    1.8313 C   0  0  0  0  0  0  0  0  0  0  0  0
    3.6480    0.0807    1.5007 C   0  0  0  0  0  0  0  0  0  0  0  0
   -0.2558   -1.5403   -0.5047 H   0  0  0  0  0  0  0  0  0  0  0  0
    2.1663   -1.3932   -0.2854 H   0  0  0  0  0  0  0  0  0  0  0  0
    1.7424    1.3600    2.9954 H   0  0  0  0  0  0  0  0  0  0  0  0
   -0.7130    1.2232    2.7896 H   0  0  0  0  0  0  0  0  0  0  0  0
   -2.5825    0.4095    1.7774 H   0  0  0  0  0  0  0  0  0  0  0  0
   -2.0936   -1.3132   -1.6278 H   0  0  0  0  0  0  0  0  0  0  0  0
   -2.1099   -2.6762   -0.4690 H   0  0  0  0  0  0  0  0  0  0  0  0
   -6.7306   -0.5268    0.6085 H   0  0  0  0  0  0  0  0  0  0  0  0
   -5.9235    1.8195    3.3911 H   0  0  0  0  0  0  0  0  0  0  0  0
   -7.7105    2.9526    4.7033 H   0  0  0  0  0  0  0  0  0  0  0  0
  -10.1155    2.5414    4.1819 H   0  0  0  0  0  0  0  0  0  0  0  0
  -10.7172    0.9774    2.3250 H   0  0  0  0  0  0  0  0  0  0  0  0
   -8.9354   -0.1495    1.0200 H   0  0  0  0  0  0  0  0  0  0  0  0
    4.0008    1.1162    1.3623 H   0  0  0  0  0  0  0  0  0  0  0  0
    4.1569   -0.5502    0.7578 H   0  0  0  0  0  0  0  0  0  0  0  0
    3.9810   -0.2412    2.5014 H   0  0  0  0  0  0  0  0  0  0  0  0
  1  2  2  0
  1  6  1  0
  1 24  1  0
  2  3  1  0
  2 25  1  0
  3  4  2  0
  3 23  1  0
  4  5  1  0
  4 26  1  0
  5  6  2  0
  5 27  1  0
  6  7  1  0
  7  8  1  0
  7 28  1  0
  8  9  2  0
  8 13  1  0
  9 10  1  0
  9 14  1  0
 10 11  2  0
 10 12  1  0
 12 13  1  0
 13 29  1  0
 13 30  1  0
 14 15  2  0
 14 16  1  0
 16 17  1  0
 16 31  1  0
 17 18  2  0
 17 22  1  0
 18 19  1  0
 18 32  1  0
 19 20  2  0
 19 33  1  0
 20 21  1  0
 20 34  1  0
 21 22  2  0
 21 35  1  0
 22 36  1  0
 23 37  1  0
 23 38  1  0
 23 39  1  0
M  END

