rmsd187.gzmat
 OpenBabel08211713393D

 39 41  0  0  0  0  0  0  0  0999 V2000
    0.0000    0.0000    0.0000 C   0  0  0  0  0  0  0  0  0  0  0  0
    1.3906    0.0000    0.0000 C   0  0  0  0  0  0  0  0  0  0  0  0
    2.0987    0.0000    1.2050 C   0  0  0  0  0  0  0  0  0  0  0  0
    1.4020   -0.0125    2.4183 C   0  0  0  0  0  0  0  0  0  0  0  0
    0.0124   -0.0145    2.4343 C   0  0  0  0  0  0  0  0  0  0  0  0
   -0.6831    0.0034    1.2208 C   0  0  0  0  0  0  0  0  0  0  0  0
   -2.1078   -0.0175    1.2008 N   0  0  0  0  0  0  0  0  0  0  0  0
   -2.8740    0.8952    1.8055 C   0  0  0  0  0  0  0  0  0  0  0  0
   -4.2638    0.9112    1.7850 C   0  0  0  0  0  0  0  0  0  0  0  0
   -4.7268    2.0583    2.5386 C   0  0  0  0  0  0  0  0  0  0  0  0
   -5.8214    2.4730    2.8005 O   0  0  0  0  0  0  0  0  0  0  0  0
   -3.6102    2.7608    3.0166 O   0  0  0  0  0  0  0  0  0  0  0  0
   -2.4111    2.0989    2.6061 C   0  0  0  0  0  0  0  0  0  0  0  0
   -5.0662   -0.0767    1.0902 C   0  0  0  0  0  0  0  0  0  0  0  0
   -4.5325   -0.9812    0.4558 O   0  0  0  0  0  0  0  0  0  0  0  0
   -6.4413    0.0639    1.1863 N   0  0  0  0  0  0  0  0  0  0  0  0
   -7.4034   -0.7864    0.6012 C   0  0  0  0  0  0  0  0  0  0  0  0
   -8.7521   -0.5105    0.8997 C   0  0  0  0  0  0  0  0  0  0  0  0
   -9.7528   -1.3057    0.3559 C   0  0  0  0  0  0  0  0  0  0  0  0
   -9.4311   -2.3706   -0.4851 C   0  0  0  0  0  0  0  0  0  0  0  0
   -8.0961   -2.6390   -0.7783 C   0  0  0  0  0  0  0  0  0  0  0  0
   -7.0776   -1.8562   -0.2428 C   0  0  0  0  0  0  0  0  0  0  0  0
    3.5874   -0.0002    1.2131 C   0  0  0  0  0  0  0  0  0  0  0  0
   -0.5510    0.0000   -0.9414 H   0  0  0  0  0  0  0  0  0  0  0  0
    1.9289   -0.0005   -0.9477 H   0  0  0  0  0  0  0  0  0  0  0  0
    1.9541   -0.0284    3.3576 H   0  0  0  0  0  0  0  0  0  0  0  0
   -0.5242   -0.0520    3.3814 H   0  0  0  0  0  0  0  0  0  0  0  0
   -2.5907   -0.7589    0.6485 H   0  0  0  0  0  0  0  0  0  0  0  0
   -1.8648    1.8430    3.5303 H   0  0  0  0  0  0  0  0  0  0  0  0
   -1.8335    2.8277    2.0085 H   0  0  0  0  0  0  0  0  0  0  0  0
   -6.7939    0.8524    1.7396 H   0  0  0  0  0  0  0  0  0  0  0  0
   -9.0127    0.3195    1.5520 H   0  0  0  0  0  0  0  0  0  0  0  0
  -10.7955   -1.0947    0.5887 H   0  0  0  0  0  0  0  0  0  0  0  0
  -10.2173   -2.9880   -0.9087 H   0  0  0  0  0  0  0  0  0  0  0  0
   -7.8415   -3.4699   -1.4354 H   0  0  0  0  0  0  0  0  0  0  0  0
   -6.0381   -2.0829   -0.4862 H   0  0  0  0  0  0  0  0  0  0  0  0
    3.9913    0.8117    1.8369 H   0  0  0  0  0  0  0  0  0  0  0  0
    4.0239    0.1212    0.2121 H   0  0  0  0  0  0  0  0  0  0  0  0
    3.9822   -0.9446    1.6206 H   0  0  0  0  0  0  0  0  0  0  0  0
  1  2  2  0  0  0  0
  1  6  1  0  0  0  0
  2  3  1  0  0  0  0
  3 23  1  0  0  0  0
  3  4  2  0  0  0  0
  4  5  1  0  0  0  0
  4 26  1  0  0  0  0
  5 27  1  0  0  0  0
  6  5  2  0  0  0  0
  7  6  1  0  0  0  0
  7  8  1  0  0  0  0
  8 13  1  0  0  0  0
  9  8  2  0  0  0  0
  9 10  1  0  0  0  0
 10 11  2  0  0  0  0
 10 12  1  0  0  0  0
 13 12  1  0  0  0  0
 13 29  1  0  0  0  0
 14 16  1  0  0  0  0
 14  9  1  0  0  0  0
 15 14  2  0  0  0  0
 16 31  1  0  0  0  0
 17 18  1  0  0  0  0
 17 16  1  0  0  0  0
 18 32  1  0  0  0  0
 19 33  1  0  0  0  0
 19 18  2  0  0  0  0
 20 19  1  0  0  0  0
 21 20  2  0  0  0  0
 21 22  1  0  0  0  0
 22 17  2  0  0  0  0
 23 39  1  0  0  0  0
 23 37  1  0  0  0  0
 24  1  1  0  0  0  0
 25  2  1  0  0  0  0
 28  7  1  0  0  0  0
 30 13  1  0  0  0  0
 34 20  1  0  0  0  0
 35 21  1  0  0  0  0
 36 22  1  0  0  0  0
 38 23  1  0  0  0  0
M  END
$$$$
