rmsd165.gzmat
 OpenBabel08211713393D

 39 41  0  0  0  0  0  0  0  0999 V2000
    0.0000    0.0000    0.0000 C   0  0  0  0  0  0  0  0  0  0  0  0
    1.3906    0.0000    0.0000 C   0  0  0  0  0  0  0  0  0  0  0  0
    2.0993    0.0000    1.2051 C   0  0  0  0  0  0  0  0  0  0  0  0
    1.4038   -0.0040    2.4191 C   0  0  0  0  0  0  0  0  0  0  0  0
    0.0138    0.0026    2.4352 C   0  0  0  0  0  0  0  0  0  0  0  0
   -0.6811    0.0117    1.2211 C   0  0  0  0  0  0  0  0  0  0  0  0
   -2.1074   -0.0007    1.2469 N   0  0  0  0  0  0  0  0  0  0  0  0
   -2.8552    0.9739    0.7221 C   0  0  0  0  0  0  0  0  0  0  0  0
   -4.2441    0.9925    0.6854 C   0  0  0  0  0  0  0  0  0  0  0  0
   -4.6748    2.2203    0.0487 C   0  0  0  0  0  0  0  0  0  0  0  0
   -5.7575    2.6670   -0.2109 O   0  0  0  0  0  0  0  0  0  0  0  0
   -3.5393    2.9670   -0.3009 O   0  0  0  0  0  0  0  0  0  0  0  0
   -2.3585    2.2611    0.0889 C   0  0  0  0  0  0  0  0  0  0  0  0
   -5.0737   -0.0724    1.2142 C   0  0  0  0  0  0  0  0  0  0  0  0
   -4.5678   -1.0446    1.7650 O   0  0  0  0  0  0  0  0  0  0  0  0
   -6.4429    0.0746    1.0556 N   0  0  0  0  0  0  0  0  0  0  0  0
   -7.4283   -0.8390    1.4853 C   0  0  0  0  0  0  0  0  0  0  0  0
   -8.7694   -0.4310    1.3487 C   0  0  0  0  0  0  0  0  0  0  0  0
   -9.7914   -1.2901    1.7318 C   0  0  0  0  0  0  0  0  0  0  0  0
   -9.4980   -2.5508    2.2505 C   0  0  0  0  0  0  0  0  0  0  0  0
   -8.1698   -2.9487    2.3876 C   0  0  0  0  0  0  0  0  0  0  0  0
   -7.1307   -2.1033    2.0105 C   0  0  0  0  0  0  0  0  0  0  0  0
    3.5880   -0.0128    1.2023 C   0  0  0  0  0  0  0  0  0  0  0  0
   -0.5492   -0.0283   -0.9409 H   0  0  0  0  0  0  0  0  0  0  0  0
    1.9299   -0.0061   -0.9466 H   0  0  0  0  0  0  0  0  0  0  0  0
    1.9557   -0.0111    3.3587 H   0  0  0  0  0  0  0  0  0  0  0  0
   -0.5283    0.0044    3.3815 H   0  0  0  0  0  0  0  0  0  0  0  0
   -2.5981   -0.8065    1.6865 H   0  0  0  0  0  0  0  0  0  0  0  0
   -1.8158    2.9154    0.7960 H   0  0  0  0  0  0  0  0  0  0  0  0
   -1.7636    2.1116   -0.8286 H   0  0  0  0  0  0  0  0  0  0  0  0
   -6.7728    0.9348    0.6044 H   0  0  0  0  0  0  0  0  0  0  0  0
   -9.0072    0.5514    0.9478 H   0  0  0  0  0  0  0  0  0  0  0  0
  -10.8287   -0.9756    1.6252 H   0  0  0  0  0  0  0  0  0  0  0  0
  -10.3014   -3.2190    2.5458 H   0  0  0  0  0  0  0  0  0  0  0  0
   -7.9372   -3.9327    2.7928 H   0  0  0  0  0  0  0  0  0  0  0  0
   -6.0965   -2.4327    2.1258 H   0  0  0  0  0  0  0  0  0  0  0  0
    4.0097    0.6895    1.9366 H   0  0  0  0  0  0  0  0  0  0  0  0
    4.0161    0.2560    0.2265 H   0  0  0  0  0  0  0  0  0  0  0  0
    3.9737   -1.0138    1.4561 H   0  0  0  0  0  0  0  0  0  0  0  0
  1  6  1  0  0  0  0
  2  1  2  0  0  0  0
  2  3  1  0  0  0  0
  3  4  2  0  0  0  0
  4  5  1  0  0  0  0
  4 26  1  0  0  0  0
  5 27  1  0  0  0  0
  6  7  1  0  0  0  0
  6  5  2  0  0  0  0
  7 28  1  0  0  0  0
  8  7  1  0  0  0  0
  9  8  2  0  0  0  0
  9 14  1  0  0  0  0
 10  9  1  0  0  0  0
 11 10  2  0  0  0  0
 12 10  1  0  0  0  0
 12 13  1  0  0  0  0
 13  8  1  0  0  0  0
 13 29  1  0  0  0  0
 14 15  2  0  0  0  0
 16 14  1  0  0  0  0
 16 17  1  0  0  0  0
 17 22  1  0  0  0  0
 18 17  2  0  0  0  0
 18 19  1  0  0  0  0
 19 20  2  0  0  0  0
 20 21  1  0  0  0  0
 20 34  1  0  0  0  0
 21 35  1  0  0  0  0
 22 36  1  0  0  0  0
 22 21  2  0  0  0  0
 23  3  1  0  0  0  0
 23 39  1  0  0  0  0
 23 37  1  0  0  0  0
 24  1  1  0  0  0  0
 25  2  1  0  0  0  0
 30 13  1  0  0  0  0
 31 16  1  0  0  0  0
 32 18  1  0  0  0  0
 33 19  1  0  0  0  0
 38 23  1  0  0  0  0
M  END
$$$$
