39
rmsd169.gzmat
C          0.00000        0.00000        0.00000
C          1.39090        0.00000        0.00000
C          2.09980        0.00000        1.20440
C          1.40290        0.01290        2.41740
C          0.01340        0.00360        2.43330
C         -0.68380       -0.01360        1.21940
N         -2.10730        0.00260        1.25840
C         -2.88650       -0.85260        0.58800
C         -4.27640       -0.84450        0.60030
C         -4.75590       -1.92020       -0.24360
O         -5.85650       -2.28720       -0.54850
O         -3.65010       -2.60730       -0.76540
C         -2.44180       -2.00970       -0.28830
C         -5.06830        0.10830        1.35380
O         -4.52600        0.95450        2.05680
N         -6.44440        0.00430        1.22800
C         -7.39810        0.84600        1.83840
C         -8.75240        0.52470        1.62230
C         -9.74480        1.32690        2.17100
C         -9.40930        2.44280        2.93680
C         -8.06850        2.75130        3.15550
C         -7.05820        1.96280        2.61290
C          3.58840        0.00110        1.20150
H         -0.54460        0.03140       -0.94270
H          1.92990        0.00640       -0.94680
H          1.95420        0.02910        3.35720
H         -0.52670        0.00640        3.38080
H         -2.58240        0.70660        1.86410
H         -1.87120       -1.71050       -1.18410
H         -1.89740       -2.79340        0.27070
H         -6.80490       -0.74760        0.62990
H         -9.02290       -0.34540        1.02920
H        -10.79200        1.08260        2.00020
H        -10.18910        3.06910        3.35950
H         -7.80310        3.62150        3.75420
H         -6.01380        2.22390        2.79280
H          3.98190        1.02120        1.34000
H          4.01170       -0.37950        0.26130
H          4.00670       -0.61670        2.00970
