39
rmsd165.gzmat
C          0.00000        0.00000        0.00000
C          1.39060        0.00000        0.00000
C          2.09930        0.00000        1.20510
C          1.40380       -0.00400        2.41910
C          0.01380        0.00260        2.43520
C         -0.68110        0.01170        1.22110
N         -2.10740       -0.00070        1.24690
C         -2.85520        0.97390        0.72210
C         -4.24410        0.99250        0.68540
C         -4.67480        2.22030        0.04870
O         -5.75750        2.66700       -0.21090
O         -3.53930        2.96700       -0.30090
C         -2.35850        2.26110        0.08890
C         -5.07370       -0.07240        1.21420
O         -4.56780       -1.04460        1.76500
N         -6.44290        0.07460        1.05560
C         -7.42830       -0.83900        1.48530
C         -8.76940       -0.43100        1.34870
C         -9.79140       -1.29010        1.73180
C         -9.49800       -2.55080        2.25050
C         -8.16980       -2.94870        2.38760
C         -7.13070       -2.10330        2.01050
C          3.58800       -0.01280        1.20230
H         -0.54920       -0.02830       -0.94090
H          1.92990       -0.00610       -0.94660
H          1.95570       -0.01110        3.35870
H         -0.52830        0.00440        3.38150
H         -2.59810       -0.80650        1.68650
H         -1.81580        2.91540        0.79600
H         -1.76360        2.11160       -0.82860
H         -6.77280        0.93480        0.60440
H         -9.00720        0.55140        0.94780
H        -10.82870       -0.97560        1.62520
H        -10.30140       -3.21900        2.54580
H         -7.93720       -3.93270        2.79280
H         -6.09650       -2.43270        2.12580
H          4.00970        0.68950        1.93660
H          4.01610        0.25600        0.22650
H          3.97370       -1.01380        1.45610
