41
rmsd1.gzmat
O          0.00000        0.00000        0.00000
C          1.21100        0.00000        0.00000
C          1.99370        0.00000        1.29750
C          3.35350       -0.70850        1.17030
H          3.17060       -1.77430        0.88360
C          4.22850       -0.05900        0.07190
C          3.44290        0.03290       -1.17550
N          3.93050        0.11700       -2.43540
N          2.84090        0.17510       -3.25730
C          1.65770        0.13120       -2.55850
C          2.01000        0.04610       -1.20110
C          0.31440        0.18570       -3.19290
O          0.17740        1.39630       -3.91160
C         -0.16240        2.51600       -3.10180
C         -1.62710        2.48510       -2.78180
C         -2.06770        2.07490       -1.52370
C         -3.43290        2.03050       -1.24660
C         -4.35680        2.39490       -2.22400
C         -3.91570        2.80180       -3.48280
C         -2.55220        2.84480       -3.76300
C          3.03360        0.31000       -4.69030
C          4.09200       -0.67160        2.50960
H          2.13180        1.05310        1.61870
H          1.38770       -0.47470        2.09580
H          5.15810       -0.64690       -0.07680
H          4.56640        0.95180        0.38650
H         -0.49390        0.06310       -2.43530
H          0.18050       -0.58630       -3.97880
H          0.11160        3.36380       -3.76110
H          0.47530        2.55070       -2.19930
H         -1.35110        1.77760       -0.75430
H         -3.77460        1.70490       -0.26580
H         -5.42210        2.36110       -2.00680
H         -4.63680        3.08310       -4.24620
H         -2.20700        3.15140       -4.74880
H          4.02210        0.75910       -4.91180
H          2.24570        0.96180       -5.12110
H          2.99280       -0.68050       -5.18240
H          4.29720        0.35430        2.83460
H          5.05280       -1.19570        2.44920
H          3.50730       -1.15620        3.30020
