rmsd135.gzmat
 OpenBabel08211713383D

 41 43  0  0  1  0  0  0  0  0999 V2000
    0.0000    0.0000    0.0000 O   0  0  0  0  0  0  0  0  0  0  0  0
    1.2116    0.0000    0.0000 C   0  0  0  0  0  0  0  0  0  0  0  0
    1.9967    0.0000    1.2963 C   0  0  0  0  0  0  0  0  0  0  0  0
    3.3460   -0.7293    1.1672 C   0  0  1  0  0  0  0  0  0  0  0  0
    3.1454   -1.7921    0.8756 H   0  0  0  0  0  0  0  0  0  0  0  0
    4.2259   -0.0892    0.0669 C   0  0  0  0  0  0  0  0  0  0  0  0
    3.4413   -0.0338   -1.1837 C   0  0  0  0  0  0  0  0  0  0  0  0
    3.9211   -0.0568   -2.4482 N   0  0  0  0  0  0  0  0  0  0  0  0
    2.8273   -0.0208   -3.2672 N   0  0  0  0  0  0  0  0  0  0  0  0
    1.6494    0.0078   -2.5595 C   0  0  0  0  0  0  0  0  0  0  0  0
    2.0097    0.0160   -1.2017 C   0  0  0  0  0  0  0  0  0  0  0  0
    0.2939    0.0078   -3.1673 C   0  0  0  0  0  0  0  0  0  0  0  0
    0.1211   -1.1265   -3.9960 O   0  0  0  0  0  0  0  0  0  0  0  0
   -0.3243   -2.2960   -3.3242 C   0  0  0  0  0  0  0  0  0  0  0  0
    0.7564   -2.9013   -2.4799 C   0  0  0  0  0  0  0  0  0  0  0  0
    0.5599   -3.0925   -1.1120 C   0  0  0  0  0  0  0  0  0  0  0  0
    1.5795   -3.6362   -0.3336 C   0  0  0  0  0  0  0  0  0  0  0  0
    2.7968   -3.9811   -0.9179 C   0  0  0  0  0  0  0  0  0  0  0  0
    2.9916   -3.7927   -2.2854 C   0  0  0  0  0  0  0  0  0  0  0  0
    1.9700   -3.2603   -3.0681 C   0  0  0  0  0  0  0  0  0  0  0  0
    3.0159   -0.0869   -4.7056 C   0  0  0  0  0  0  0  0  0  0  0  0
    4.0856   -0.7065    2.5055 C   0  0  0  0  0  0  0  0  0  0  0  0
    2.1516    1.0534    1.6078 H   0  0  0  0  0  0  0  0  0  0  0  0
    1.3859   -0.4601    2.0985 H   0  0  0  0  0  0  0  0  0  0  0  0
    5.1621   -0.6698   -0.0677 H   0  0  0  0  0  0  0  0  0  0  0  0
    4.5472    0.9315    0.3652 H   0  0  0  0  0  0  0  0  0  0  0  0
    0.1466    0.8511   -3.8749 H   0  0  0  0  0  0  0  0  0  0  0  0
   -0.4884    0.0626   -2.3759 H   0  0  0  0  0  0  0  0  0  0  0  0
   -0.5925   -2.9498   -4.1808 H   0  0  0  0  0  0  0  0  0  0  0  0
   -1.2417   -2.0690   -2.7490 H   0  0  0  0  0  0  0  0  0  0  0  0
   -0.3808   -2.7972   -0.6455 H   0  0  0  0  0  0  0  0  0  0  0  0
    1.4247   -3.7856    0.7332 H   0  0  0  0  0  0  0  0  0  0  0  0
    3.5960   -4.3957   -0.3080 H   0  0  0  0  0  0  0  0  0  0  0  0
    3.9448   -4.0531   -2.7407 H   0  0  0  0  0  0  0  0  0  0  0  0
    2.1212   -3.1070   -4.1349 H   0  0  0  0  0  0  0  0  0  0  0  0
    3.0635    0.9315   -5.1360 H   0  0  0  0  0  0  0  0  0  0  0  0
    2.1806   -0.6425   -5.1764 H   0  0  0  0  0  0  0  0  0  0  0  0
    3.9653   -0.6032   -4.9518 H   0  0  0  0  0  0  0  0  0  0  0  0
    4.3176    0.3158    2.8243 H   0  0  0  0  0  0  0  0  0  0  0  0
    5.0312   -1.2571    2.4478 H   0  0  0  0  0  0  0  0  0  0  0  0
    3.4866   -1.1689    3.2984 H   0  0  0  0  0  0  0  0  0  0  0  0
  1  2  2  0  0  0  0
  2  3  1  0  0  0  0
  3 23  1  0  0  0  0
  3 24  1  0  0  0  0
  4  5  1  6  0  0  0
  4  3  1  0  0  0  0
  4 22  1  0  0  0  0
  6 26  1  0  0  0  0
  6  4  1  0  0  0  0
  7  6  1  0  0  0  0
  8  7  2  0  0  0  0
  9 10  1  0  0  0  0
  9  8  1  0  0  0  0
 10 11  2  0  0  0  0
 11  7  1  0  0  0  0
 11  2  1  0  0  0  0
 12 10  1  0  0  0  0
 12 28  1  0  0  0  0
 13 14  1  0  0  0  0
 13 12  1  0  0  0  0
 14 30  1  0  0  0  0
 14 15  1  0  0  0  0
 15 16  1  0  0  0  0
 16 31  1  0  0  0  0
 16 17  2  0  0  0  0
 17 32  1  0  0  0  0
 18 17  1  0  0  0  0
 18 33  1  0  0  0  0
 19 18  2  0  0  0  0
 20 15  2  0  0  0  0
 20 19  1  0  0  0  0
 21  9  1  0  0  0  0
 22 39  1  0  0  0  0
 22 41  1  0  0  0  0
 25  6  1  0  0  0  0
 27 12  1  0  0  0  0
 29 14  1  0  0  0  0
 34 19  1  0  0  0  0
 35 20  1  0  0  0  0
 36 21  1  0  0  0  0
 37 21  1  0  0  0  0
 38 21  1  0  0  0  0
 40 22  1  0  0  0  0
M  END
$$$$
