
     RDKit          3D

 41 43  0  0  0  0  0  0  0  0999 V2000
    0.0032    0.0545    0.0247 O   0  0  0  0  0  0  0  0  0  0  0  0
    1.2255    0.0206    0.0082 C   0  0  0  0  0  0  0  0  0  0  0  0
    2.0433   -0.0123    1.2981 C   0  0  0  0  0  0  0  0  0  0  0  0
    3.4179   -0.6967    1.1802 C   0  0  1  0  0  0  0  0  0  0  0  0
    3.2386   -1.7463    0.8826 H   0  0  0  0  0  0  0  0  0  0  0  0
    4.2588   -0.0446    0.0657 C   0  0  0  0  0  0  0  0  0  0  0  0
    3.4584    0.0344   -1.1946 C   0  0  0  0  0  0  0  0  0  0  0  0
    3.9474    0.1049   -2.4234 N   0  0  0  0  0  0  0  0  0  0  0  0
    2.8615    0.1691   -3.2350 N   0  0  0  0  0  0  0  0  0  0  0  0
    1.6856    0.1290   -2.5614 C   0  0  0  0  0  0  0  0  0  0  0  0
    2.0343    0.0524   -1.2068 C   0  0  0  0  0  0  0  0  0  0  0  0
    0.3496    0.1844   -3.2453 C   0  0  0  0  0  0  0  0  0  0  0  0
    0.1749    1.3882   -3.9722 O   0  0  0  0  0  0  0  0  0  0  0  0
   -0.1818    2.5100   -3.1641 C   0  0  0  0  0  0  0  0  0  0  0  0
   -1.6501    2.5167   -2.8108 C   0  0  0  0  0  0  0  0  0  0  0  0
   -2.1006    2.0887   -1.5544 C   0  0  0  0  0  0  0  0  0  0  0  0
   -3.4693    2.0576   -1.2674 C   0  0  0  0  0  0  0  0  0  0  0  0
   -4.3991    2.4523   -2.2315 C   0  0  0  0  0  0  0  0  0  0  0  0
   -3.9577    2.8760   -3.4902 C   0  0  0  0  0  0  0  0  0  0  0  0
   -2.5928    2.9050   -3.7759 C   0  0  0  0  0  0  0  0  0  0  0  0
    3.0444    0.2362   -4.6719 C   0  0  0  0  0  0  0  0  0  0  0  0
    4.1564   -0.6965    2.5175 C   0  0  0  0  0  0  0  0  0  0  0  0
    2.1875    1.0418    1.6071 H   0  0  0  0  0  0  0  0  0  0  0  0
    1.4205   -0.4804    2.0752 H   0  0  0  0  0  0  0  0  0  0  0  0
    5.1930   -0.6011   -0.1069 H   0  0  0  0  0  0  0  0  0  0  0  0
    4.5543    0.9732    0.3844 H   0  0  0  0  0  0  0  0  0  0  0  0
   -0.4330    0.0386   -2.4857 H   0  0  0  0  0  0  0  0  0  0  0  0
    0.2670   -0.6313   -3.9812 H   0  0  0  0  0  0  0  0  0  0  0  0
    0.0690    3.3939   -3.7693 H   0  0  0  0  0  0  0  0  0  0  0  0
    0.4370    2.5380   -2.2494 H   0  0  0  0  0  0  0  0  0  0  0  0
   -1.3828    1.7537   -0.8025 H   0  0  0  0  0  0  0  0  0  0  0  0
   -3.8072    1.7184   -0.2852 H   0  0  0  0  0  0  0  0  0  0  0  0
   -5.4681    2.4300   -2.0052 H   0  0  0  0  0  0  0  0  0  0  0  0
   -4.6812    3.1860   -4.2484 H   0  0  0  0  0  0  0  0  0  0  0  0
   -2.2476    3.2315   -4.7609 H   0  0  0  0  0  0  0  0  0  0  0  0
    4.0078    0.7225   -4.8671 H   0  0  0  0  0  0  0  0  0  0  0  0
    2.2278    0.8247   -5.1080 H   0  0  0  0  0  0  0  0  0  0  0  0
    3.0577   -0.7729   -5.1155 H   0  0  0  0  0  0  0  0  0  0  0  0
    4.3500    0.3343    2.8593 H   0  0  0  0  0  0  0  0  0  0  0  0
    5.1275   -1.2102    2.4366 H   0  0  0  0  0  0  0  0  0  0  0  0
    3.5689   -1.2031    3.2992 H   0  0  0  0  0  0  0  0  0  0  0  0
  1  2  2  0
  2  3  1  0
  2 11  1  0
  3  4  1  0
  3 23  1  0
  3 24  1  0
  4  5  1  6
  4  6  1  0
  4 22  1  0
  6  7  1  0
  6 25  1  0
  6 26  1  0
  7  8  2  0
  7 11  1  0
  8  9  1  0
  9 10  1  0
  9 21  1  0
 10 11  2  0
 10 12  1  0
 12 13  1  0
 12 27  1  0
 12 28  1  0
 13 14  1  0
 14 15  1  0
 14 29  1  0
 14 30  1  0
 15 16  2  0
 15 20  1  0
 16 17  1  0
 16 31  1  0
 17 18  2  0
 17 32  1  0
 18 19  1  0
 18 33  1  0
 19 20  2  0
 19 34  1  0
 20 35  1  0
 21 36  1  0
 21 37  1  0
 21 38  1  0
 22 39  1  0
 22 40  1  0
 22 41  1  0
M  END

