41

O         -0.05500       -0.10850       -0.04170
C          1.16710       -0.07390       -0.03480
C          1.96740       -0.07330        1.26620
C          3.34890       -0.74990        1.17800
H          3.17610       -1.80320        0.89980
C          4.20270       -0.12390        0.05760
C          3.41570       -0.07010       -1.21190
N          3.91350       -0.09060       -2.43960
N          2.83270       -0.04320       -3.26170
C          1.65550       -0.00700       -2.59150
C          1.99420       -0.01890       -1.23520
C          0.31090        0.00210       -3.25810
O          0.09630       -1.10970       -4.11350
C         -0.33790       -2.28930       -3.45350
C          0.68650       -2.89580       -2.51850
C          1.97800       -3.18940       -2.98180
C          2.94310       -3.70300       -2.11770
C          2.62100       -3.95200       -0.77850
C          1.33470       -3.67420       -0.31160
C          0.37560       -3.14020       -1.17690
C          3.03270       -0.05070       -4.69590
C          4.07210       -0.71540        2.52290
H          2.09930        0.98730        1.55820
H          1.33970       -0.53560        2.04280
H          5.13470       -0.69000       -0.09400
H          4.50030        0.89950        0.35620
H          0.21050        0.89550       -3.89600
H         -0.44930        0.05530       -2.46260
H         -0.57660       -2.99420       -4.26590
H         -1.27100       -2.08790       -2.89530
H          2.22980       -2.99110       -4.02640
H          3.95080       -3.90840       -2.48600
H          3.37570       -4.35840       -0.10080
H          1.07980       -3.85500        0.73540
H         -0.61420       -2.87920       -0.79650
H          3.23590        0.96530       -5.07160
H          2.13710       -0.45810       -5.18010
H          3.89820       -0.68800       -4.91840
H          4.25880        0.32330        2.84440
H          5.04600       -1.22720        2.46490
H          3.47780       -1.20640        3.30970
