
     RDKit          3D

 41 43  0  0  0  0  0  0  0  0999 V2000
   -0.0550   -0.1085   -0.0417 O   0  0  0  0  0  0  0  0  0  0  0  0
    1.1671   -0.0739   -0.0348 C   0  0  0  0  0  0  0  0  0  0  0  0
    1.9674   -0.0733    1.2662 C   0  0  0  0  0  0  0  0  0  0  0  0
    3.3489   -0.7499    1.1780 C   0  0  1  0  0  0  0  0  0  0  0  0
    3.1761   -1.8032    0.8998 H   0  0  0  0  0  0  0  0  0  0  0  0
    4.2027   -0.1239    0.0576 C   0  0  0  0  0  0  0  0  0  0  0  0
    3.4157   -0.0701   -1.2119 C   0  0  0  0  0  0  0  0  0  0  0  0
    3.9135   -0.0906   -2.4396 N   0  0  0  0  0  0  0  0  0  0  0  0
    2.8327   -0.0432   -3.2617 N   0  0  0  0  0  0  0  0  0  0  0  0
    1.6555   -0.0070   -2.5915 C   0  0  0  0  0  0  0  0  0  0  0  0
    1.9942   -0.0189   -1.2352 C   0  0  0  0  0  0  0  0  0  0  0  0
    0.3109    0.0021   -3.2581 C   0  0  0  0  0  0  0  0  0  0  0  0
    0.0963   -1.1097   -4.1135 O   0  0  0  0  0  0  0  0  0  0  0  0
   -0.3379   -2.2893   -3.4535 C   0  0  0  0  0  0  0  0  0  0  0  0
    0.6865   -2.8958   -2.5185 C   0  0  0  0  0  0  0  0  0  0  0  0
    1.9780   -3.1894   -2.9818 C   0  0  0  0  0  0  0  0  0  0  0  0
    2.9431   -3.7030   -2.1177 C   0  0  0  0  0  0  0  0  0  0  0  0
    2.6210   -3.9520   -0.7785 C   0  0  0  0  0  0  0  0  0  0  0  0
    1.3347   -3.6742   -0.3116 C   0  0  0  0  0  0  0  0  0  0  0  0
    0.3756   -3.1402   -1.1769 C   0  0  0  0  0  0  0  0  0  0  0  0
    3.0327   -0.0507   -4.6959 C   0  0  0  0  0  0  0  0  0  0  0  0
    4.0721   -0.7154    2.5229 C   0  0  0  0  0  0  0  0  0  0  0  0
    2.0993    0.9873    1.5582 H   0  0  0  0  0  0  0  0  0  0  0  0
    1.3397   -0.5356    2.0428 H   0  0  0  0  0  0  0  0  0  0  0  0
    5.1347   -0.6900   -0.0940 H   0  0  0  0  0  0  0  0  0  0  0  0
    4.5003    0.8995    0.3562 H   0  0  0  0  0  0  0  0  0  0  0  0
    0.2105    0.8955   -3.8960 H   0  0  0  0  0  0  0  0  0  0  0  0
   -0.4493    0.0553   -2.4626 H   0  0  0  0  0  0  0  0  0  0  0  0
   -0.5766   -2.9942   -4.2659 H   0  0  0  0  0  0  0  0  0  0  0  0
   -1.2710   -2.0879   -2.8953 H   0  0  0  0  0  0  0  0  0  0  0  0
    2.2298   -2.9911   -4.0264 H   0  0  0  0  0  0  0  0  0  0  0  0
    3.9508   -3.9084   -2.4860 H   0  0  0  0  0  0  0  0  0  0  0  0
    3.3757   -4.3584   -0.1008 H   0  0  0  0  0  0  0  0  0  0  0  0
    1.0798   -3.8550    0.7354 H   0  0  0  0  0  0  0  0  0  0  0  0
   -0.6142   -2.8792   -0.7965 H   0  0  0  0  0  0  0  0  0  0  0  0
    3.2359    0.9653   -5.0716 H   0  0  0  0  0  0  0  0  0  0  0  0
    2.1371   -0.4581   -5.1801 H   0  0  0  0  0  0  0  0  0  0  0  0
    3.8982   -0.6880   -4.9184 H   0  0  0  0  0  0  0  0  0  0  0  0
    4.2588    0.3233    2.8444 H   0  0  0  0  0  0  0  0  0  0  0  0
    5.0460   -1.2272    2.4649 H   0  0  0  0  0  0  0  0  0  0  0  0
    3.4778   -1.2064    3.3097 H   0  0  0  0  0  0  0  0  0  0  0  0
  1  2  2  0
  2  3  1  0
  2 11  1  0
  3  4  1  0
  3 23  1  0
  3 24  1  0
  4  5  1  6
  4  6  1  0
  4 22  1  0
  6  7  1  0
  6 25  1  0
  6 26  1  0
  7  8  2  0
  7 11  1  0
  8  9  1  0
  9 10  1  0
  9 21  1  0
 10 11  2  0
 10 12  1  0
 12 13  1  0
 12 27  1  0
 12 28  1  0
 13 14  1  0
 14 15  1  0
 14 29  1  0
 14 30  1  0
 15 16  2  0
 15 20  1  0
 16 17  1  0
 16 31  1  0
 17 18  2  0
 17 32  1  0
 18 19  1  0
 18 33  1  0
 19 20  2  0
 19 34  1  0
 20 35  1  0
 21 36  1  0
 21 37  1  0
 21 38  1  0
 22 39  1  0
 22 40  1  0
 22 41  1  0
M  END

