rmsd152.gzmat
 OpenBabel08211713383D

 41 43  0  0  1  0  0  0  0  0999 V2000
    0.0000    0.0000    0.0000 O   0  0  0  0  0  0  0  0  0  0  0  0
    1.2116    0.0000    0.0000 C   0  0  0  0  0  0  0  0  0  0  0  0
    1.9973    0.0000    1.2958 C   0  0  0  0  0  0  0  0  0  0  0  0
    3.3513   -0.7196    1.1633 C   0  0  1  0  0  0  0  0  0  0  0  0
    3.1576   -1.7822    0.8667 H   0  0  0  0  0  0  0  0  0  0  0  0
    4.2265   -0.0696    0.0653 C   0  0  0  0  0  0  0  0  0  0  0  0
    3.4415   -0.0198   -1.1853 C   0  0  0  0  0  0  0  0  0  0  0  0
    3.9206   -0.0384   -2.4504 N   0  0  0  0  0  0  0  0  0  0  0  0
    2.8261   -0.0137   -3.2680 N   0  0  0  0  0  0  0  0  0  0  0  0
    1.6482    0.0017   -2.5596 C   0  0  0  0  0  0  0  0  0  0  0  0
    2.0094    0.0167   -1.2024 C   0  0  0  0  0  0  0  0  0  0  0  0
    0.2953   -0.0192   -3.1723 C   0  0  0  0  0  0  0  0  0  0  0  0
    0.1429   -1.1608   -3.9953 O   0  0  0  0  0  0  0  0  0  0  0  0
   -0.3016   -2.3292   -3.3209 C   0  0  0  0  0  0  0  0  0  0  0  0
    0.7757   -2.9232   -2.4643 C   0  0  0  0  0  0  0  0  0  0  0  0
    0.5700   -3.1059   -1.0969 C   0  0  0  0  0  0  0  0  0  0  0  0
    1.5858   -3.6403   -0.3068 C   0  0  0  0  0  0  0  0  0  0  0  0
    2.8100   -3.9808   -0.8788 C   0  0  0  0  0  0  0  0  0  0  0  0
    3.0149   -3.7995   -2.2459 C   0  0  0  0  0  0  0  0  0  0  0  0
    1.9955   -3.2795   -3.0399 C   0  0  0  0  0  0  0  0  0  0  0  0
    3.0065   -0.0849   -4.7070 C   0  0  0  0  0  0  0  0  0  0  0  0
    4.0928   -0.6990    2.5006 C   0  0  0  0  0  0  0  0  0  0  0  0
    2.1448    1.0530    1.6115 H   0  0  0  0  0  0  0  0  0  0  0  0
    1.3903   -0.4685    2.0961 H   0  0  0  0  0  0  0  0  0  0  0  0
    5.1675   -0.6418   -0.0701 H   0  0  0  0  0  0  0  0  0  0  0  0
    4.5387    0.9530    0.3659 H   0  0  0  0  0  0  0  0  0  0  0  0
    0.1410    0.8173   -3.8863 H   0  0  0  0  0  0  0  0  0  0  0  0
   -0.4912    0.0302   -2.3851 H   0  0  0  0  0  0  0  0  0  0  0  0
   -0.5585   -2.9898   -4.1764 H   0  0  0  0  0  0  0  0  0  0  0  0
   -1.2254   -2.1046   -2.7548 H   0  0  0  0  0  0  0  0  0  0  0  0
   -0.3750   -2.8125   -0.6392 H   0  0  0  0  0  0  0  0  0  0  0  0
    1.4225   -3.7851    0.7596 H   0  0  0  0  0  0  0  0  0  0  0  0
    3.6069   -4.3867   -0.2598 H   0  0  0  0  0  0  0  0  0  0  0  0
    3.9736   -4.0559   -2.6912 H   0  0  0  0  0  0  0  0  0  0  0  0
    2.1527   -3.1355   -4.1068 H   0  0  0  0  0  0  0  0  0  0  0  0
    2.8045    0.8995   -5.1692 H   0  0  0  0  0  0  0  0  0  0  0  0
    2.3142   -0.8343   -5.1417 H   0  0  0  0  0  0  0  0  0  0  0  0
    4.0456   -0.3774   -4.9575 H   0  0  0  0  0  0  0  0  0  0  0  0
    4.3050    0.3234    2.8322 H   0  0  0  0  0  0  0  0  0  0  0  0
    5.0500   -1.2283    2.4330 H   0  0  0  0  0  0  0  0  0  0  0  0
    3.5066   -1.1856    3.2885 H   0  0  0  0  0  0  0  0  0  0  0  0
  1  2  2  0  0  0  0
  2  3  1  0  0  0  0
  3 23  1  0  0  0  0
  3 24  1  0  0  0  0
  4  5  1  6  0  0  0
  4  3  1  0  0  0  0
  4 22  1  0  0  0  0
  6 26  1  0  0  0  0
  6  4  1  0  0  0  0
  7  6  1  0  0  0  0
  8  7  2  0  0  0  0
  9 10  1  0  0  0  0
  9  8  1  0  0  0  0
 10 11  2  0  0  0  0
 11  7  1  0  0  0  0
 11  2  1  0  0  0  0
 12 10  1  0  0  0  0
 12 28  1  0  0  0  0
 13 14  1  0  0  0  0
 13 12  1  0  0  0  0
 14 30  1  0  0  0  0
 14 15  1  0  0  0  0
 15 16  1  0  0  0  0
 16 31  1  0  0  0  0
 16 17  2  0  0  0  0
 17 32  1  0  0  0  0
 18 17  1  0  0  0  0
 18 33  1  0  0  0  0
 19 18  2  0  0  0  0
 20 15  2  0  0  0  0
 20 19  1  0  0  0  0
 21  9  1  0  0  0  0
 22 39  1  0  0  0  0
 22 41  1  0  0  0  0
 25  6  1  0  0  0  0
 27 12  1  0  0  0  0
 29 14  1  0  0  0  0
 34 19  1  0  0  0  0
 35 20  1  0  0  0  0
 36 21  1  0  0  0  0
 37 21  1  0  0  0  0
 38 21  1  0  0  0  0
 40 22  1  0  0  0  0
M  END
$$$$
