rmsd136.gzmat
 OpenBabel08211713383D

 41 43  0  0  1  0  0  0  0  0999 V2000
    0.0000    0.0000    0.0000 O   0  0  0  0  0  0  0  0  0  0  0  0
    1.2115    0.0000    0.0000 C   0  0  0  0  0  0  0  0  0  0  0  0
    1.9969    0.0000    1.2963 C   0  0  0  0  0  0  0  0  0  0  0  0
    3.3531   -0.7151    1.1638 C   0  0  1  0  0  0  0  0  0  0  0  0
    3.1638   -1.7786    0.8665 H   0  0  0  0  0  0  0  0  0  0  0  0
    4.2257   -0.0613    0.0660 C   0  0  0  0  0  0  0  0  0  0  0  0
    3.4407   -0.0164   -1.1848 C   0  0  0  0  0  0  0  0  0  0  0  0
    3.9197   -0.0354   -2.4498 N   0  0  0  0  0  0  0  0  0  0  0  0
    2.8249   -0.0145   -3.2679 N   0  0  0  0  0  0  0  0  0  0  0  0
    1.6472    0.0004   -2.5592 C   0  0  0  0  0  0  0  0  0  0  0  0
    2.0088    0.0171   -1.2017 C   0  0  0  0  0  0  0  0  0  0  0  0
    0.2921   -0.0204   -3.1677 C   0  0  0  0  0  0  0  0  0  0  0  0
    0.1593   -1.1279   -4.0392 O   0  0  0  0  0  0  0  0  0  0  0  0
   -0.2757   -2.3298   -3.4198 C   0  0  0  0  0  0  0  0  0  0  0  0
    0.7794   -2.9160   -2.5308 C   0  0  0  0  0  0  0  0  0  0  0  0
    0.5433   -3.0789   -1.1657 C   0  0  0  0  0  0  0  0  0  0  0  0
    1.5423   -3.6001   -0.3457 C   0  0  0  0  0  0  0  0  0  0  0  0
    2.7795   -3.9473   -0.8852 C   0  0  0  0  0  0  0  0  0  0  0  0
    3.0136   -3.7881   -2.2502 C   0  0  0  0  0  0  0  0  0  0  0  0
    2.0113   -3.2820   -3.0740 C   0  0  0  0  0  0  0  0  0  0  0  0
    3.0136   -0.0795   -4.7062 C   0  0  0  0  0  0  0  0  0  0  0  0
    4.0943   -0.6920    2.5013 C   0  0  0  0  0  0  0  0  0  0  0  0
    2.1422    1.0528    1.6138 H   0  0  0  0  0  0  0  0  0  0  0  0
    1.3907   -0.4713    2.0955 H   0  0  0  0  0  0  0  0  0  0  0  0
    5.1693   -0.6295   -0.0677 H   0  0  0  0  0  0  0  0  0  0  0  0
    4.5330    0.9631    0.3654 H   0  0  0  0  0  0  0  0  0  0  0  0
    0.1189    0.8441   -3.8434 H   0  0  0  0  0  0  0  0  0  0  0  0
   -0.4922   -0.0198   -2.3765 H   0  0  0  0  0  0  0  0  0  0  0  0
   -0.4724   -2.9703   -4.3058 H   0  0  0  0  0  0  0  0  0  0  0  0
   -1.2314   -2.1487   -2.8920 H   0  0  0  0  0  0  0  0  0  0  0  0
   -0.4123   -2.7803   -0.7330 H   0  0  0  0  0  0  0  0  0  0  0  0
    1.3537   -3.7310    0.7182 H   0  0  0  0  0  0  0  0  0  0  0  0
    3.5638   -4.3412   -0.2427 H   0  0  0  0  0  0  0  0  0  0  0  0
    3.9818   -4.0510   -2.6705 H   0  0  0  0  0  0  0  0  0  0  0  0
    2.1922   -3.1550   -4.1394 H   0  0  0  0  0  0  0  0  0  0  0  0
    2.9831    0.9361   -5.1454 H   0  0  0  0  0  0  0  0  0  0  0  0
    2.2198   -0.6998   -5.1690 H   0  0  0  0  0  0  0  0  0  0  0  0
    3.9972   -0.5281   -4.9516 H   0  0  0  0  0  0  0  0  0  0  0  0
    4.3039    0.3310    2.8329 H   0  0  0  0  0  0  0  0  0  0  0  0
    5.0529   -1.2191    2.4340 H   0  0  0  0  0  0  0  0  0  0  0  0
    3.5086   -1.1787    3.2893 H   0  0  0  0  0  0  0  0  0  0  0  0
  1  2  2  0  0  0  0
  2  3  1  0  0  0  0
  3 23  1  0  0  0  0
  3 24  1  0  0  0  0
  4  5  1  6  0  0  0
  4  3  1  0  0  0  0
  4 22  1  0  0  0  0
  6 26  1  0  0  0  0
  6  4  1  0  0  0  0
  7  6  1  0  0  0  0
  8  7  2  0  0  0  0
  9 10  1  0  0  0  0
  9  8  1  0  0  0  0
 10 11  2  0  0  0  0
 11  7  1  0  0  0  0
 11  2  1  0  0  0  0
 12 10  1  0  0  0  0
 12 28  1  0  0  0  0
 13 14  1  0  0  0  0
 13 12  1  0  0  0  0
 14 30  1  0  0  0  0
 14 15  1  0  0  0  0
 15 16  1  0  0  0  0
 16 31  1  0  0  0  0
 16 17  2  0  0  0  0
 17 32  1  0  0  0  0
 18 17  1  0  0  0  0
 18 33  1  0  0  0  0
 19 18  2  0  0  0  0
 20 15  2  0  0  0  0
 20 19  1  0  0  0  0
 21  9  1  0  0  0  0
 22 39  1  0  0  0  0
 22 41  1  0  0  0  0
 25  6  1  0  0  0  0
 27 12  1  0  0  0  0
 29 14  1  0  0  0  0
 34 19  1  0  0  0  0
 35 20  1  0  0  0  0
 36 21  1  0  0  0  0
 37 21  1  0  0  0  0
 38 21  1  0  0  0  0
 40 22  1  0  0  0  0
M  END
$$$$
