rmsd250.gzmat
 OpenBabel08211713383D

 41 43  0  0  1  0  0  0  0  0999 V2000
    0.0000    0.0000    0.0000 O   0  0  0  0  0  0  0  0  0  0  0  0
    1.2116    0.0000    0.0000 C   0  0  0  0  0  0  0  0  0  0  0  0
    1.9978    0.0000    1.2956 C   0  0  0  0  0  0  0  0  0  0  0  0
    3.3481   -0.7271    1.1641 C   0  0  1  0  0  0  0  0  0  0  0  0
    3.1495   -1.7898    0.8708 H   0  0  0  0  0  0  0  0  0  0  0  0
    4.2260   -0.0844    0.0638 C   0  0  0  0  0  0  0  0  0  0  0  0
    3.4406   -0.0315   -1.1864 C   0  0  0  0  0  0  0  0  0  0  0  0
    3.9187   -0.0534   -2.4519 N   0  0  0  0  0  0  0  0  0  0  0  0
    2.8239   -0.0186   -3.2688 N   0  0  0  0  0  0  0  0  0  0  0  0
    1.6467    0.0027   -2.5594 C   0  0  0  0  0  0  0  0  0  0  0  0
    2.0089    0.0141   -1.2024 C   0  0  0  0  0  0  0  0  0  0  0  0
    0.2937   -0.0054   -3.1719 C   0  0  0  0  0  0  0  0  0  0  0  0
    0.1415   -1.1288   -4.0191 O   0  0  0  0  0  0  0  0  0  0  0  0
   -0.3068   -2.3097   -3.3696 C   0  0  0  0  0  0  0  0  0  0  0  0
    0.7679   -2.9190   -2.5203 C   0  0  0  0  0  0  0  0  0  0  0  0
    0.5901   -3.0524   -1.1432 C   0  0  0  0  0  0  0  0  0  0  0  0
    1.6056   -3.6000   -0.3618 C   0  0  0  0  0  0  0  0  0  0  0  0
    2.8016   -4.0040   -0.9527 C   0  0  0  0  0  0  0  0  0  0  0  0
    2.9784   -3.8729   -2.3292 C   0  0  0  0  0  0  0  0  0  0  0  0
    1.9598   -3.3382   -3.1143 C   0  0  0  0  0  0  0  0  0  0  0  0
    3.0001   -0.1036   -4.7076 C   0  0  0  0  0  0  0  0  0  0  0  0
    4.0904   -0.7075    2.5009 C   0  0  0  0  0  0  0  0  0  0  0  0
    2.1510    1.0534    1.6077 H   0  0  0  0  0  0  0  0  0  0  0  0
    1.3892   -0.4612    2.0987 H   0  0  0  0  0  0  0  0  0  0  0  0
    5.1633   -0.6625   -0.0717 H   0  0  0  0  0  0  0  0  0  0  0  0
    4.5448    0.9367    0.3627 H   0  0  0  0  0  0  0  0  0  0  0  0
    0.1398    0.8471   -3.8668 H   0  0  0  0  0  0  0  0  0  0  0  0
   -0.4931    0.0271   -2.3840 H   0  0  0  0  0  0  0  0  0  0  0  0
   -0.5607   -2.9525   -4.2382 H   0  0  0  0  0  0  0  0  0  0  0  0
   -1.2328   -2.0964   -2.8037 H   0  0  0  0  0  0  0  0  0  0  0  0
   -0.3324   -2.7104   -0.6713 H   0  0  0  0  0  0  0  0  0  0  0  0
    1.4637   -3.7072    0.7120 H   0  0  0  0  0  0  0  0  0  0  0  0
    3.5987   -4.4191   -0.3399 H   0  0  0  0  0  0  0  0  0  0  0  0
    3.9142   -4.1818   -2.7900 H   0  0  0  0  0  0  0  0  0  0  0  0
    2.0956   -3.2335   -4.1887 H   0  0  0  0  0  0  0  0  0  0  0  0
    4.0693   -0.2420   -4.9645 H   0  0  0  0  0  0  0  0  0  0  0  0
    2.6418    0.8227   -5.1942 H   0  0  0  0  0  0  0  0  0  0  0  0
    2.4249   -0.9616   -5.1120 H   0  0  0  0  0  0  0  0  0  0  0  0
    4.2911    0.3146    2.8401 H   0  0  0  0  0  0  0  0  0  0  0  0
    5.0538   -1.2253    2.4285 H   0  0  0  0  0  0  0  0  0  0  0  0
    3.5107   -1.2067    3.2855 H   0  0  0  0  0  0  0  0  0  0  0  0
  1  2  2  0  0  0  0
  2  3  1  0  0  0  0
  3 23  1  0  0  0  0
  3 24  1  0  0  0  0
  4  5  1  6  0  0  0
  4  3  1  0  0  0  0
  4 22  1  0  0  0  0
  6 26  1  0  0  0  0
  6  4  1  0  0  0  0
  7  6  1  0  0  0  0
  8  7  2  0  0  0  0
  9 10  1  0  0  0  0
  9  8  1  0  0  0  0
 10 11  2  0  0  0  0
 11  7  1  0  0  0  0
 11  2  1  0  0  0  0
 12 10  1  0  0  0  0
 12 28  1  0  0  0  0
 13 14  1  0  0  0  0
 13 12  1  0  0  0  0
 14 30  1  0  0  0  0
 14 15  1  0  0  0  0
 15 16  1  0  0  0  0
 16 31  1  0  0  0  0
 16 17  2  0  0  0  0
 17 32  1  0  0  0  0
 18 17  1  0  0  0  0
 18 33  1  0  0  0  0
 19 18  2  0  0  0  0
 20 15  2  0  0  0  0
 20 19  1  0  0  0  0
 21  9  1  0  0  0  0
 22 39  1  0  0  0  0
 22 41  1  0  0  0  0
 25  6  1  0  0  0  0
 27 12  1  0  0  0  0
 29 14  1  0  0  0  0
 34 19  1  0  0  0  0
 35 20  1  0  0  0  0
 36 21  1  0  0  0  0
 37 21  1  0  0  0  0
 38 21  1  0  0  0  0
 40 22  1  0  0  0  0
M  END
$$$$
