34
rmsd138.gzmat
O          0.00000        0.00000        0.00000
C          1.45250        0.00000        0.00000
C          1.93660        0.00000        1.47750
H          2.55990        0.90540        1.67610
C          0.64010        0.05760        2.22720
C          0.35900        0.12420        3.57550
C         -0.98420        0.17200        3.97470
C         -2.01520        0.15630        3.03650
C         -1.75070        0.09640        1.66430
C         -0.41660        0.05080        1.29420
C          2.73680       -1.25820        1.82890
C          4.02640       -1.28490        1.03470
O          4.30660       -0.45280        0.20410
N          4.86470       -2.35820        1.33620
C          6.13180       -2.59330        0.75010
C          6.93590       -3.57970        1.35120
C          8.18660       -3.86670        0.81720
C          8.64840       -3.18350       -0.30690
C          7.84670       -2.21060       -0.90050
C          6.58960       -1.91030       -0.38340
H          1.74520        0.90840       -0.54750
H          1.74250       -0.89570       -0.56690
H          1.15410        0.14420        4.31620
H         -1.22280        0.22460        5.03370
H         -3.05080        0.19450        3.37550
H         -2.54500        0.09030        0.92680
H          2.94550       -1.27350        2.91830
H          2.13210       -2.16660        1.62230
H          4.58200       -3.01510        2.05700
H          6.58820       -4.11560        2.22950
H          8.80870       -4.63090        1.28180
H          9.62870       -3.40890       -0.71870
H          8.20470       -1.67600       -1.78090
H          5.97760       -1.14590       -0.86660
