rmsd145.gzmat
 OpenBabel08211713393D

 34 36  0  0  1  0  0  0  0  0999 V2000
    0.0000    0.0000    0.0000 O   0  0  0  0  0  0  0  0  0  0  0  0
    1.4531    0.0000    0.0000 C   0  0  0  0  0  0  0  0  0  0  0  0
    1.9362    0.0000    1.4782 C   0  0  1  0  0  0  0  0  0  0  0  0
    2.5459    0.9127    1.6813 H   0  0  0  0  0  0  0  0  0  0  0  0
    0.6386    0.0389    2.2278 C   0  0  0  0  0  0  0  0  0  0  0  0
    0.3557    0.0821    3.5767 C   0  0  0  0  0  0  0  0  0  0  0  0
   -0.9881    0.1096    3.9762 C   0  0  0  0  0  0  0  0  0  0  0  0
   -2.0185    0.0988    3.0373 C   0  0  0  0  0  0  0  0  0  0  0  0
   -1.7526    0.0617    1.6647 C   0  0  0  0  0  0  0  0  0  0  0  0
   -0.4175    0.0334    1.2938 C   0  0  0  0  0  0  0  0  0  0  0  0
    2.7514   -1.2487    1.8307 C   0  0  0  0  0  0  0  0  0  0  0  0
    4.0502   -1.2440    1.0519 C   0  0  0  0  0  0  0  0  0  0  0  0
    4.1748   -0.6825   -0.0115 O   0  0  0  0  0  0  0  0  0  0  0  0
    5.0913   -1.9533    1.6487 N   0  0  0  0  0  0  0  0  0  0  0  0
    6.3950   -2.0848    1.1118 C   0  0  0  0  0  0  0  0  0  0  0  0
    7.3958   -2.5621    1.9785 C   0  0  0  0  0  0  0  0  0  0  0  0
    8.6935   -2.7216    1.5070 C   0  0  0  0  0  0  0  0  0  0  0  0
    9.0061   -2.4182    0.1824 C   0  0  0  0  0  0  0  0  0  0  0  0
    8.0096   -1.9532   -0.6730 C   0  0  0  0  0  0  0  0  0  0  0  0
    6.7047   -1.7821   -0.2198 C   0  0  0  0  0  0  0  0  0  0  0  0
    1.7459    0.9077   -0.5480 H   0  0  0  0  0  0  0  0  0  0  0  0
    1.7433   -0.8964   -0.5675 H   0  0  0  0  0  0  0  0  0  0  0  0
    1.1485    0.0952    4.3200 H   0  0  0  0  0  0  0  0  0  0  0  0
   -1.2266    0.1401    5.0358 H   0  0  0  0  0  0  0  0  0  0  0  0
   -3.0549    0.1206    3.3763 H   0  0  0  0  0  0  0  0  0  0  0  0
   -2.5465    0.0576    0.9266 H   0  0  0  0  0  0  0  0  0  0  0  0
    2.9152   -1.2865    2.9254 H   0  0  0  0  0  0  0  0  0  0  0  0
    2.1765   -2.1686    1.5830 H   0  0  0  0  0  0  0  0  0  0  0  0
    4.9433   -2.3726    2.5604 H   0  0  0  0  0  0  0  0  0  0  0  0
    7.1635   -2.8016    3.0120 H   0  0  0  0  0  0  0  0  0  0  0  0
    9.4712   -3.0855    2.1774 H   0  0  0  0  0  0  0  0  0  0  0  0
   10.0228   -2.5445   -0.1804 H   0  0  0  0  0  0  0  0  0  0  0  0
    8.2492   -1.7211   -1.7110 H   0  0  0  0  0  0  0  0  0  0  0  0
    5.9404   -1.4132   -0.9071 H   0  0  0  0  0  0  0  0  0  0  0  0
  1  2  1  0  0  0  0
  1 10  1  0  0  0  0
  2  3  1  0  0  0  0
  3  4  1  1  0  0  0
  3 11  1  0  0  0  0
  3  5  1  0  0  0  0
  5  6  2  0  0  0  0
  6  7  1  0  0  0  0
  6 23  1  0  0  0  0
  7 24  1  0  0  0  0
  8 25  1  0  0  0  0
  8  7  2  0  0  0  0
  9  8  1  0  0  0  0
 10  9  2  0  0  0  0
 10  5  1  0  0  0  0
 11 27  1  0  0  0  0
 12 14  1  0  0  0  0
 12 11  1  0  0  0  0
 13 12  2  0  0  0  0
 14 29  1  0  0  0  0
 15 14  1  0  0  0  0
 15 16  2  0  0  0  0
 16 30  1  0  0  0  0
 17 16  1  0  0  0  0
 17 31  1  0  0  0  0
 18 17  2  0  0  0  0
 19 20  2  0  0  0  0
 19 18  1  0  0  0  0
 20 15  1  0  0  0  0
 21  2  1  0  0  0  0
 22  2  1  0  0  0  0
 26  9  1  0  0  0  0
 28 11  1  0  0  0  0
 32 18  1  0  0  0  0
 33 19  1  0  0  0  0
 34 20  1  0  0  0  0
M  END
$$$$
