rmsd155.gzmat
 OpenBabel08211713393D

 34 36  0  0  1  0  0  0  0  0999 V2000
    0.0000    0.0000    0.0000 O   0  0  0  0  0  0  0  0  0  0  0  0
    1.4523    0.0000    0.0000 C   0  0  0  0  0  0  0  0  0  0  0  0
    1.9357    0.0000    1.4773 C   0  0  1  0  0  0  0  0  0  0  0  0
    2.5858    0.8881    1.6693 H   0  0  0  0  0  0  0  0  0  0  0  0
    0.6407    0.0941    2.2257 C   0  0  0  0  0  0  0  0  0  0  0  0
    0.3609    0.1888    3.5726 C   0  0  0  0  0  0  0  0  0  0  0  0
   -0.9815    0.2582    3.9711 C   0  0  0  0  0  0  0  0  0  0  0  0
   -2.0128    0.2315    3.0338 C   0  0  0  0  0  0  0  0  0  0  0  0
   -1.7494    0.1404    1.6630 C   0  0  0  0  0  0  0  0  0  0  0  0
   -0.4163    0.0793    1.2933 C   0  0  0  0  0  0  0  0  0  0  0  0
    2.6959   -1.2797    1.8394 C   0  0  0  0  0  0  0  0  0  0  0  0
    4.0329   -1.3045    1.1285 C   0  0  0  0  0  0  0  0  0  0  0  0
    4.4081   -0.4213    0.3947 O   0  0  0  0  0  0  0  0  0  0  0  0
    4.7985   -2.4393    1.3979 N   0  0  0  0  0  0  0  0  0  0  0  0
    6.0956   -2.6922    0.8926 C   0  0  0  0  0  0  0  0  0  0  0  0
    6.7121   -1.8884   -0.0738 C   0  0  0  0  0  0  0  0  0  0  0  0
    7.9926   -2.2103   -0.5140 C   0  0  0  0  0  0  0  0  0  0  0  0
    8.6639   -3.3195   -0.0049 C   0  0  0  0  0  0  0  0  0  0  0  0
    8.0457   -4.1203    0.9545 C   0  0  0  0  0  0  0  0  0  0  0  0
    6.7665   -3.8182    1.4054 C   0  0  0  0  0  0  0  0  0  0  0  0
    1.7455    0.9091   -0.5465 H   0  0  0  0  0  0  0  0  0  0  0  0
    1.7406   -0.8963   -0.5664 H   0  0  0  0  0  0  0  0  0  0  0  0
    1.1553    0.2129    4.3141 H   0  0  0  0  0  0  0  0  0  0  0  0
   -1.2184    0.3367    5.0288 H   0  0  0  0  0  0  0  0  0  0  0  0
   -3.0477    0.2867    3.3720 H   0  0  0  0  0  0  0  0  0  0  0  0
   -2.5446    0.1223    0.9267 H   0  0  0  0  0  0  0  0  0  0  0  0
    2.8409   -1.3277    2.9389 H   0  0  0  0  0  0  0  0  0  0  0  0
    2.0904   -2.1714    1.5746 H   0  0  0  0  0  0  0  0  0  0  0  0
    4.4262   -3.1412    2.0297 H   0  0  0  0  0  0  0  0  0  0  0  0
    6.2064   -1.0127   -0.4859 H   0  0  0  0  0  0  0  0  0  0  0  0
    8.4719   -1.5842   -1.2669 H   0  0  0  0  0  0  0  0  0  0  0  0
    9.6642   -3.5609   -0.3543 H   0  0  0  0  0  0  0  0  0  0  0  0
    8.5670   -4.9890    1.3547 H   0  0  0  0  0  0  0  0  0  0  0  0
    6.2945   -4.4514    2.1508 H   0  0  0  0  0  0  0  0  0  0  0  0
  1  2  1  0  0  0  0
  1 10  1  0  0  0  0
  2  3  1  0  0  0  0
  3  4  1  1  0  0  0
  3 11  1  0  0  0  0
  3  5  1  0  0  0  0
  5  6  2  0  0  0  0
  6  7  1  0  0  0  0
  6 23  1  0  0  0  0
  7 24  1  0  0  0  0
  8 25  1  0  0  0  0
  8  7  2  0  0  0  0
  9  8  1  0  0  0  0
 10  9  2  0  0  0  0
 10  5  1  0  0  0  0
 11 27  1  0  0  0  0
 12 14  1  0  0  0  0
 12 11  1  0  0  0  0
 13 12  2  0  0  0  0
 14 29  1  0  0  0  0
 15 14  1  0  0  0  0
 15 20  2  0  0  0  0
 16 15  1  0  0  0  0
 17 16  2  0  0  0  0
 17 18  1  0  0  0  0
 18 19  2  0  0  0  0
 19 33  1  0  0  0  0
 19 20  1  0  0  0  0
 20 34  1  0  0  0  0
 21  2  1  0  0  0  0
 22  2  1  0  0  0  0
 26  9  1  0  0  0  0
 28 11  1  0  0  0  0
 30 16  1  0  0  0  0
 31 17  1  0  0  0  0
 32 18  1  0  0  0  0
M  END
$$$$
