34
rmsd239.gzmat
O          0.00000        0.00000        0.00000
C          1.45340        0.00000        0.00000
C          1.93670        0.00000        1.47680
H          2.56600        0.90000        1.67560
C          0.63930        0.05970        2.22590
C          0.36000        0.11110        3.57510
C         -0.98260        0.14240        3.97700
C         -2.01420        0.12640        3.03960
C         -1.75120        0.07970        1.66650
C         -0.41740        0.04810        1.29390
C          2.71640       -1.26600        1.84320
C          4.02400       -1.32370        1.08230
O          4.27970       -0.60590        0.14510
N          4.90500       -2.29760        1.55310
C          6.17760       -2.59460        1.01190
C          6.73920       -1.89470       -0.06270
C          7.99700       -2.26120       -0.53330
C          8.69990       -3.31160        0.05270
C          8.14010       -4.00330        1.12590
C          6.88570       -3.65400        1.61060
H          1.74560        0.90820       -0.54790
H          1.74440       -0.89540       -0.56760
H          1.15690        0.12900        4.31410
H         -1.21900        0.18100        5.03690
H         -3.04980        0.15230        3.37930
H         -2.54750        0.06940        0.93140
H          2.88700       -1.28680        2.93920
H          2.10720       -2.16760        1.61440
H          4.62150       -2.86720        2.34480
H          6.20650       -1.06780       -0.53740
H          8.43270       -1.71720       -1.37150
H          9.67970       -3.59170       -0.32390
H          8.68830       -4.82260        1.58940
H          6.46020       -4.20050        2.44690
