34
rmsd143.gzmat
O          0.00000        0.00000        0.00000
C          1.45280        0.00000        0.00000
C          1.93570        0.00000        1.47830
H          2.52750        0.92380        1.68660
C          0.63800        0.01310        2.22820
C          0.35400        0.04100        3.57730
C         -0.99000        0.06290        3.97590
C         -2.01990        0.05600        3.03650
C         -1.75290        0.03260        1.66380
C         -0.41770        0.01400        1.29400
C          2.78080       -1.23250        1.81710
C          4.08680       -1.16650        1.05240
O          4.20620       -0.55470        0.01610
N          5.14260       -1.86540        1.63490
C          6.45600       -1.93680        1.11030
C          6.91760       -1.09080        0.09430
C          8.23200       -1.20790       -0.34840
C          9.08970       -2.15350        0.20970
C          8.62730       -2.99330        1.22170
C          7.31770       -2.89360        1.67690
H          1.74540        0.90720       -0.54880
H          1.74440       -0.89630       -0.56710
H          1.14670        0.04980        4.32080
H         -1.23010        0.08850        5.03550
H         -3.05640        0.07070        3.37530
H         -2.54670        0.03110        0.92560
H          2.93830       -1.28680        2.91210
H          2.23490       -2.16180        1.54600
H          4.97220       -2.40220        2.47920
H          6.26240       -0.34190       -0.35540
H          8.59110       -0.55040       -1.14070
H         10.11450       -2.23670       -0.14270
H          9.29550       -3.73440        1.65900
H          6.96760       -3.55680        2.46230
