rmsd139.gzmat
 OpenBabel08211713393D

 34 36  0  0  1  0  0  0  0  0999 V2000
    0.0000    0.0000    0.0000 O   0  0  0  0  0  0  0  0  0  0  0  0
    1.4530    0.0000    0.0000 C   0  0  0  0  0  0  0  0  0  0  0  0
    1.9365    0.0000    1.4776 C   0  0  1  0  0  0  0  0  0  0  0  0
    2.5627    0.9028    1.6746 H   0  0  0  0  0  0  0  0  0  0  0  0
    0.6394    0.0578    2.2267 C   0  0  0  0  0  0  0  0  0  0  0  0
    0.3579    0.1158    3.5754 C   0  0  0  0  0  0  0  0  0  0  0  0
   -0.9855    0.1527    3.9747 C   0  0  0  0  0  0  0  0  0  0  0  0
   -2.0164    0.1297    3.0364 C   0  0  0  0  0  0  0  0  0  0  0  0
   -1.7516    0.0760    1.6640 C   0  0  0  0  0  0  0  0  0  0  0  0
   -0.4171    0.0449    1.2937 C   0  0  0  0  0  0  0  0  0  0  0  0
    2.7263   -1.2619    1.8397 C   0  0  0  0  0  0  0  0  0  0  0  0
    4.0103   -1.3193    1.0390 C   0  0  0  0  0  0  0  0  0  0  0  0
    4.2177   -0.6210    0.0748 O   0  0  0  0  0  0  0  0  0  0  0  0
    4.9304   -2.2595    1.5012 N   0  0  0  0  0  0  0  0  0  0  0  0
    6.1974   -2.5221    0.9287 C   0  0  0  0  0  0  0  0  0  0  0  0
    7.0014   -3.4739    1.5842 C   0  0  0  0  0  0  0  0  0  0  0  0
    8.2568   -3.7818    1.0743 C   0  0  0  0  0  0  0  0  0  0  0  0
    8.7234   -3.1550   -0.0803 C   0  0  0  0  0  0  0  0  0  0  0  0
    7.9236   -2.2146   -0.7259 C   0  0  0  0  0  0  0  0  0  0  0  0
    6.6628   -1.8920   -0.2320 C   0  0  0  0  0  0  0  0  0  0  0  0
    1.7457    0.9086   -0.5472 H   0  0  0  0  0  0  0  0  0  0  0  0
    1.7422   -0.8964   -0.5671 H   0  0  0  0  0  0  0  0  0  0  0  0
    1.1526    0.1335    4.3166 H   0  0  0  0  0  0  0  0  0  0  0  0
   -1.2241    0.2018    5.0338 H   0  0  0  0  0  0  0  0  0  0  0  0
   -3.0522    0.1556    3.3758 H   0  0  0  0  0  0  0  0  0  0  0  0
   -2.5454    0.0631    0.9259 H   0  0  0  0  0  0  0  0  0  0  0  0
    2.9277   -1.2708    2.9298 H   0  0  0  0  0  0  0  0  0  0  0  0
    2.1142   -2.1681    1.6383 H   0  0  0  0  0  0  0  0  0  0  0  0
    4.6941   -2.8131    2.3194 H   0  0  0  0  0  0  0  0  0  0  0  0
    6.6495   -3.9683    2.4846 H   0  0  0  0  0  0  0  0  0  0  0  0
    8.8792   -4.5183    1.5813 H   0  0  0  0  0  0  0  0  0  0  0  0
    9.7061   -3.3989   -0.4752 H   0  0  0  0  0  0  0  0  0  0  0  0
    8.2858   -1.7234   -1.6296 H   0  0  0  0  0  0  0  0  0  0  0  0
    6.0545   -1.1517   -0.7563 H   0  0  0  0  0  0  0  0  0  0  0  0
  1 10  1  0  0  0  0
  2  1  1  0  0  0  0
  2  3  1  0  0  0  0
  3  4  1  1  0  0  0
  3 11  1  0  0  0  0
  3  5  1  0  0  0  0
  5  6  2  0  0  0  0
  6  7  1  0  0  0  0
  6 23  1  0  0  0  0
  7 24  1  0  0  0  0
  8 25  1  0  0  0  0
  8  7  2  0  0  0  0
  9  8  1  0  0  0  0
 10  9  2  0  0  0  0
 10  5  1  0  0  0  0
 11 27  1  0  0  0  0
 12 14  1  0  0  0  0
 12 11  1  0  0  0  0
 13 12  2  0  0  0  0
 14 29  1  0  0  0  0
 15 14  1  0  0  0  0
 15 16  2  0  0  0  0
 16 30  1  0  0  0  0
 17 31  1  0  0  0  0
 17 16  1  0  0  0  0
 18 17  2  0  0  0  0
 19 20  2  0  0  0  0
 19 18  1  0  0  0  0
 20 15  1  0  0  0  0
 21  2  1  0  0  0  0
 22  2  1  0  0  0  0
 26  9  1  0  0  0  0
 28 11  1  0  0  0  0
 32 18  1  0  0  0  0
 33 19  1  0  0  0  0
 34 20  1  0  0  0  0
M  END
$$$$
