
     RDKit          3D

 34 36  0  0  0  0  0  0  0  0999 V2000
   -0.0544   -0.5103    0.0818 O   0  0  0  0  0  0  0  0  0  0  0  0
    1.3217   -0.0927   -0.0573 C   0  0  0  0  0  0  0  0  0  0  0  0
    1.8922    0.0620    1.3752 C   0  0  1  0  0  0  0  0  0  0  0  0
    2.5013    0.9751    1.4400 H   0  0  0  0  0  0  0  0  0  0  0  0
    0.6129    0.1598    2.1788 C   0  0  0  0  0  0  0  0  0  0  0  0
    0.3746    0.4743    3.5122 C   0  0  0  0  0  0  0  0  0  0  0  0
   -0.9380    0.4061    4.0042 C   0  0  0  0  0  0  0  0  0  0  0  0
   -1.9852    0.0148    3.1615 C   0  0  0  0  0  0  0  0  0  0  0  0
   -1.7575   -0.3082    1.8171 C   0  0  0  0  0  0  0  0  0  0  0  0
   -0.4477   -0.2267    1.3483 C   0  0  0  0  0  0  0  0  0  0  0  0
    2.7529   -1.1252    1.8194 C   0  0  0  0  0  0  0  0  0  0  0  0
    4.0769   -1.1998    1.0615 C   0  0  0  0  0  0  0  0  0  0  0  0
    4.3356   -0.4524    0.1336 O   0  0  0  0  0  0  0  0  0  0  0  0
    4.9205   -2.1808    1.5218 N   0  0  0  0  0  0  0  0  0  0  0  0
    6.1972   -2.5495    1.0561 C   0  0  0  0  0  0  0  0  0  0  0  0
    6.8370   -1.9116   -0.0205 C   0  0  0  0  0  0  0  0  0  0  0  0
    8.1048   -2.3428   -0.4166 C   0  0  0  0  0  0  0  0  0  0  0  0
    8.7504   -3.3958    0.2359 C   0  0  0  0  0  0  0  0  0  0  0  0
    8.1110   -4.0277    1.3062 C   0  0  0  0  0  0  0  0  0  0  0  0
    6.8458   -3.6096    1.7139 C   0  0  0  0  0  0  0  0  0  0  0  0
    1.3410    0.8688   -0.5958 H   0  0  0  0  0  0  0  0  0  0  0  0
    1.8498   -0.8397   -0.6622 H   0  0  0  0  0  0  0  0  0  0  0  0
    1.1960    0.7738    4.1690 H   0  0  0  0  0  0  0  0  0  0  0  0
   -1.1436    0.6596    5.0463 H   0  0  0  0  0  0  0  0  0  0  0  0
   -3.0035   -0.0350    3.5553 H   0  0  0  0  0  0  0  0  0  0  0  0
   -2.5675   -0.6095    1.1512 H   0  0  0  0  0  0  0  0  0  0  0  0
    2.9549   -1.0599    2.9023 H   0  0  0  0  0  0  0  0  0  0  0  0
    2.1969   -2.0679    1.6692 H   0  0  0  0  0  0  0  0  0  0  0  0
    4.5785   -2.7277    2.3035 H   0  0  0  0  0  0  0  0  0  0  0  0
    6.3347   -1.0921   -0.5274 H   0  0  0  0  0  0  0  0  0  0  0  0
    8.5938   -1.8402   -1.2548 H   0  0  0  0  0  0  0  0  0  0  0  0
    9.7420   -3.7218   -0.0852 H   0  0  0  0  0  0  0  0  0  0  0  0
    8.5985   -4.8533    1.8301 H   0  0  0  0  0  0  0  0  0  0  0  0
    6.3507   -4.1088    2.5523 H   0  0  0  0  0  0  0  0  0  0  0  0
  1  2  1  0
  1 10  1  0
  2  3  1  0
  2 21  1  0
  2 22  1  0
  3  4  1  6
  3  5  1  0
  3 11  1  0
  5  6  2  0
  5 10  1  0
  6  7  1  0
  6 23  1  0
  7  8  2  0
  7 24  1  0
  8  9  1  0
  8 25  1  0
  9 10  2  0
  9 26  1  0
 11 12  1  0
 11 27  1  0
 11 28  1  0
 12 13  2  0
 12 14  1  0
 14 15  1  0
 14 29  1  0
 15 16  2  0
 15 20  1  0
 16 17  1  0
 16 30  1  0
 17 18  2  0
 17 31  1  0
 18 19  1  0
 18 32  1  0
 19 20  2  0
 19 33  1  0
 20 34  1  0
M  END

