rmsd143.gzmat
 OpenBabel08211713393D

 34 36  0  0  1  0  0  0  0  0999 V2000
    0.0000    0.0000    0.0000 O   0  0  0  0  0  0  0  0  0  0  0  0
    1.4528    0.0000    0.0000 C   0  0  0  0  0  0  0  0  0  0  0  0
    1.9357    0.0000    1.4783 C   0  0  1  0  0  0  0  0  0  0  0  0
    2.5275    0.9238    1.6866 H   0  0  0  0  0  0  0  0  0  0  0  0
    0.6380    0.0131    2.2282 C   0  0  0  0  0  0  0  0  0  0  0  0
    0.3540    0.0410    3.5773 C   0  0  0  0  0  0  0  0  0  0  0  0
   -0.9900    0.0629    3.9759 C   0  0  0  0  0  0  0  0  0  0  0  0
   -2.0199    0.0560    3.0365 C   0  0  0  0  0  0  0  0  0  0  0  0
   -1.7529    0.0326    1.6638 C   0  0  0  0  0  0  0  0  0  0  0  0
   -0.4177    0.0140    1.2940 C   0  0  0  0  0  0  0  0  0  0  0  0
    2.7808   -1.2325    1.8171 C   0  0  0  0  0  0  0  0  0  0  0  0
    4.0868   -1.1665    1.0524 C   0  0  0  0  0  0  0  0  0  0  0  0
    4.2062   -0.5547    0.0161 O   0  0  0  0  0  0  0  0  0  0  0  0
    5.1426   -1.8654    1.6349 N   0  0  0  0  0  0  0  0  0  0  0  0
    6.4560   -1.9368    1.1103 C   0  0  0  0  0  0  0  0  0  0  0  0
    6.9176   -1.0908    0.0943 C   0  0  0  0  0  0  0  0  0  0  0  0
    8.2320   -1.2079   -0.3484 C   0  0  0  0  0  0  0  0  0  0  0  0
    9.0897   -2.1535    0.2097 C   0  0  0  0  0  0  0  0  0  0  0  0
    8.6273   -2.9933    1.2217 C   0  0  0  0  0  0  0  0  0  0  0  0
    7.3177   -2.8936    1.6769 C   0  0  0  0  0  0  0  0  0  0  0  0
    1.7454    0.9072   -0.5488 H   0  0  0  0  0  0  0  0  0  0  0  0
    1.7444   -0.8963   -0.5671 H   0  0  0  0  0  0  0  0  0  0  0  0
    1.1467    0.0498    4.3208 H   0  0  0  0  0  0  0  0  0  0  0  0
   -1.2301    0.0885    5.0355 H   0  0  0  0  0  0  0  0  0  0  0  0
   -3.0564    0.0707    3.3753 H   0  0  0  0  0  0  0  0  0  0  0  0
   -2.5467    0.0311    0.9256 H   0  0  0  0  0  0  0  0  0  0  0  0
    2.9383   -1.2868    2.9121 H   0  0  0  0  0  0  0  0  0  0  0  0
    2.2349   -2.1618    1.5460 H   0  0  0  0  0  0  0  0  0  0  0  0
    4.9722   -2.4022    2.4792 H   0  0  0  0  0  0  0  0  0  0  0  0
    6.2624   -0.3419   -0.3554 H   0  0  0  0  0  0  0  0  0  0  0  0
    8.5911   -0.5504   -1.1407 H   0  0  0  0  0  0  0  0  0  0  0  0
   10.1145   -2.2367   -0.1427 H   0  0  0  0  0  0  0  0  0  0  0  0
    9.2955   -3.7344    1.6590 H   0  0  0  0  0  0  0  0  0  0  0  0
    6.9676   -3.5568    2.4623 H   0  0  0  0  0  0  0  0  0  0  0  0
  1 10  1  0  0  0  0
  2  1  1  0  0  0  0
  2  3  1  0  0  0  0
  3  4  1  1  0  0  0
  3 11  1  0  0  0  0
  3  5  1  0  0  0  0
  5  6  2  0  0  0  0
  6  7  1  0  0  0  0
  6 23  1  0  0  0  0
  7 24  1  0  0  0  0
  8 25  1  0  0  0  0
  8  7  2  0  0  0  0
  9  8  1  0  0  0  0
 10  9  2  0  0  0  0
 10  5  1  0  0  0  0
 11 27  1  0  0  0  0
 12 14  1  0  0  0  0
 12 11  1  0  0  0  0
 13 12  2  0  0  0  0
 14 29  1  0  0  0  0
 15 14  1  0  0  0  0
 15 20  2  0  0  0  0
 16 15  1  0  0  0  0
 17 16  2  0  0  0  0
 17 18  1  0  0  0  0
 18 19  2  0  0  0  0
 19 33  1  0  0  0  0
 19 20  1  0  0  0  0
 20 34  1  0  0  0  0
 21  2  1  0  0  0  0
 22  2  1  0  0  0  0
 26  9  1  0  0  0  0
 28 11  1  0  0  0  0
 30 16  1  0  0  0  0
 31 17  1  0  0  0  0
 32 18  1  0  0  0  0
M  END
$$$$
