34

O         -0.05440       -0.51030        0.08180
C          1.32170       -0.09270       -0.05730
C          1.89220        0.06200        1.37520
H          2.50130        0.97510        1.44000
C          0.61290        0.15980        2.17880
C          0.37460        0.47430        3.51220
C         -0.93800        0.40610        4.00420
C         -1.98520        0.01480        3.16150
C         -1.75750       -0.30820        1.81710
C         -0.44770       -0.22670        1.34830
C          2.75290       -1.12520        1.81940
C          4.07690       -1.19980        1.06150
O          4.33560       -0.45240        0.13360
N          4.92050       -2.18080        1.52180
C          6.19720       -2.54950        1.05610
C          6.83700       -1.91160       -0.02050
C          8.10480       -2.34280       -0.41660
C          8.75040       -3.39580        0.23590
C          8.11100       -4.02770        1.30620
C          6.84580       -3.60960        1.71390
H          1.34100        0.86880       -0.59580
H          1.84980       -0.83970       -0.66220
H          1.19600        0.77380        4.16900
H         -1.14360        0.65960        5.04630
H         -3.00350       -0.03500        3.55530
H         -2.56750       -0.60950        1.15120
H          2.95490       -1.05990        2.90230
H          2.19690       -2.06790        1.66920
H          4.57850       -2.72770        2.30350
H          6.33470       -1.09210       -0.52740
H          8.59380       -1.84020       -1.25480
H          9.74200       -3.72180       -0.08520
H          8.59850       -4.85330        1.83010
H          6.35070       -4.10880        2.55230
