rmsd10.gzmat
 OpenBabel08211713433D

 39 40  0  0  1  0  0  0  0  0999 V2000
    0.0000    0.0000    0.0000 O   0  0  0  0  0  0  0  0  0  0  0  0
    1.2030    0.0000    0.0000 C   0  0  0  0  0  0  0  0  0  0  0  0
    1.8746    0.0000    1.1646 O   0  0  0  0  0  0  0  0  0  0  0  0
    2.0441    0.0516   -1.2843 C   0  0  1  0  0  0  0  0  0  0  0  0
    2.0285    1.1167   -1.6438 H   0  0  0  0  0  0  0  0  0  0  0  0
    3.4256   -0.3272   -0.9361 N   0  0  0  0  0  0  0  0  0  0  0  0
    1.3777   -0.8623   -2.3425 C   0  0  0  0  0  0  0  0  0  0  0  0
    1.9292   -0.6084   -3.6792 N   0  0  0  0  0  0  0  0  0  0  0  0
    3.1659   -1.2144   -3.9989 C   0  0  0  0  0  0  0  0  0  0  0  0
    3.6669   -2.0244   -3.2445 O   0  0  0  0  0  0  0  0  0  0  0  0
    3.7072   -0.8941   -5.2466 N   0  0  0  0  0  0  0  0  0  0  0  0
    3.0970   -0.0071   -6.1788 C   0  0  0  0  0  0  0  0  0  0  0  0
    3.6517    0.1670   -7.2382 O   0  0  0  0  0  0  0  0  0  0  0  0
    1.8499    0.6061   -5.7331 C   0  0  0  0  0  0  0  0  0  0  0  0
    1.2232    1.5590   -6.6811 C   0  0  0  0  0  0  0  0  0  0  0  0
    1.3278    0.3180   -4.5150 C   0  0  0  0  0  0  0  0  0  0  0  0
    5.0604   -1.3991   -5.5440 C   0  0  0  0  0  0  0  0  0  0  0  0
    5.9954   -0.3026   -5.9510 C   0  0  0  0  0  0  0  0  0  0  0  0
    6.7385   -0.3955   -7.1705 C   0  0  0  0  0  0  0  0  0  0  0  0
    7.5557    0.6821   -7.3871 C   0  0  0  0  0  0  0  0  0  0  0  0
    7.4335    1.8254   -6.1103 S   0  0  0  0  0  0  0  0  0  0  0  0
    6.2779    0.8530   -5.2478 C   0  0  0  0  0  0  0  0  0  0  0  0
    5.7262    1.2435   -3.9755 C   0  0  0  0  0  0  0  0  0  0  0  0
    4.9647    0.6326   -3.2605 O   0  0  0  0  0  0  0  0  0  0  0  0
    6.1525    2.4739   -3.5812 O   0  0  0  0  0  0  0  0  0  0  0  0
    2.8733   -0.0409    1.0232 H   0  0  0  0  0  0  0  0  0  0  0  0
    3.5926   -1.3181   -1.1019 H   0  0  0  0  0  0  0  0  0  0  0  0
    4.0930    0.1649   -1.5211 H   0  0  0  0  0  0  0  0  0  0  0  0
    0.2720   -0.7041   -2.3508 H   0  0  0  0  0  0  0  0  0  0  0  0
    1.5351   -1.9396   -2.0814 H   0  0  0  0  0  0  0  0  0  0  0  0
    0.2755    1.9728   -6.3154 H   0  0  0  0  0  0  0  0  0  0  0  0
    1.0225    1.0765   -7.6537 H   0  0  0  0  0  0  0  0  0  0  0  0
    1.8964    2.4065   -6.8962 H   0  0  0  0  0  0  0  0  0  0  0  0
    0.4012    0.7779   -4.1456 H   0  0  0  0  0  0  0  0  0  0  0  0
    4.9692   -2.1667   -6.3551 H   0  0  0  0  0  0  0  0  0  0  0  0
    5.4737   -1.9306   -4.6421 H   0  0  0  0  0  0  0  0  0  0  0  0
    6.6295   -1.2303   -7.8483 H   0  0  0  0  0  0  0  0  0  0  0  0
    8.1983    0.8346   -8.2392 H   0  0  0  0  0  0  0  0  0  0  0  0
    5.8244    2.7328   -2.6839 H   0  0  0  0  0  0  0  0  0  0  0  0
  2  1  2  0  0  0  0
  2  3  1  0  0  0  0
  4  5  1  6  0  0  0
  4  6  1  0  0  0  0
  4  2  1  0  0  0  0
  7 30  1  0  0  0  0
  7  4  1  0  0  0  0
  8  7  1  0  0  0  0
  9  8  1  0  0  0  0
  9 10  2  0  0  0  0
 11  9  1  0  0  0  0
 12 14  1  0  0  0  0
 12 11  1  0  0  0  0
 13 12  2  0  0  0  0
 14 16  2  0  0  0  0
 15 31  1  0  0  0  0
 15 14  1  0  0  0  0
 16 34  1  0  0  0  0
 16  8  1  0  0  0  0
 17 11  1  0  0  0  0
 17 36  1  0  0  0  0
 18 17  1  0  0  0  0
 18 22  2  0  0  0  0
 19 18  1  0  0  0  0
 20 19  2  0  0  0  0
 20 21  1  0  0  0  0
 21 22  1  0  0  0  0
 22 23  1  0  0  0  0
 23 25  1  0  0  0  0
 23 24  2  0  0  0  0
 25 39  1  0  0  0  0
 26  3  1  0  0  0  0
 27  6  1  0  0  0  0
 28  6  1  0  0  0  0
 29  7  1  0  0  0  0
 32 15  1  0  0  0  0
 33 15  1  0  0  0  0
 35 17  1  0  0  0  0
 37 19  1  0  0  0  0
 38 20  1  0  0  0  0
M  END
$$$$
