39
rmsd186.gzmat
O          0.00000        0.00000        0.00000
C          1.20010        0.00000        0.00000
O          1.92910        0.00000        1.13720
C          2.11740       -0.05760       -1.21640
H          2.84890       -0.89990       -1.07650
N          1.36560       -0.27620       -2.45610
C          2.89270        1.28320       -1.37210
N          3.80580        1.51630       -0.25030
C          3.28220        2.22660        0.85940
O          2.22950        2.82080        0.76760
N          4.07310        2.25160        2.01340
C          5.25690        1.48630        2.17930
O          5.80500        1.50060        3.25700
C          5.69840        0.75120        0.99460
C          6.97200        0.00660        1.14080
C          4.96440        0.75840       -0.14440
C          3.52140        2.98840        3.16610
C          2.32220        2.29330        3.72460
C          2.32770        0.89930        4.05080
C          1.12290        0.45590        4.52810
S         -0.02970        1.73240        4.59560
C          1.10410        2.88810        3.97500
C          0.78350        4.28240        3.73870
O          1.53950        5.21580        3.62690
O         -0.56190        4.47990        3.66240
H          1.39230        0.14010        1.96500
H          0.98900       -1.21090       -2.51350
H          0.60350        0.38260       -2.56260
H          2.17740        2.14120       -1.45480
H          3.46680        1.26350       -2.32900
H          7.20910       -0.62750        0.27870
H          6.94810       -0.64340        2.03360
H          7.81970        0.69710        1.29120
H          5.25940        0.20030       -1.04110
H          3.27900        4.03620        2.83740
H          4.31540        3.08450        3.95550
H          3.21590        0.29130        3.93560
H          0.89220       -0.54750        4.84710
H         -0.80430        5.41700        3.45600
