
     RDKit          3D

 39 40  0  0  0  0  0  0  0  0999 V2000
   -0.1527    1.0340    0.0033 O   0  0  0  0  0  0  0  0  0  0  0  0
    0.9505    0.5580    0.0872 C   0  0  0  0  0  0  0  0  0  0  0  0
    1.5237    0.1910    1.2455 O   0  0  0  0  0  0  0  0  0  0  0  0
    1.8503    0.2745   -1.1224 C   0  0  1  0  0  0  0  0  0  0  0  0
    2.3596   -0.6848   -0.9325 H   0  0  0  0  0  0  0  0  0  0  0  0
    1.1079    0.1941   -2.3655 N   0  0  0  0  0  0  0  0  0  0  0  0
    2.9412    1.3572   -1.2991 C   0  0  0  0  0  0  0  0  0  0  0  0
    3.8338    1.5007   -0.1559 N   0  0  0  0  0  0  0  0  0  0  0  0
    3.4156    2.3462    0.8684 C   0  0  0  0  0  0  0  0  0  0  0  0
    2.4208    3.0376    0.7583 O   0  0  0  0  0  0  0  0  0  0  0  0
    4.1944    2.3221    2.0183 N   0  0  0  0  0  0  0  0  0  0  0  0
    5.3107    1.4864    2.2313 C   0  0  0  0  0  0  0  0  0  0  0  0
    5.8712    1.4587    3.3163 O   0  0  0  0  0  0  0  0  0  0  0  0
    5.7143    0.6711    1.0864 C   0  0  0  0  0  0  0  0  0  0  0  0
    6.9331   -0.1865    1.2414 C   0  0  0  0  0  0  0  0  0  0  0  0
    4.9438    0.7001   -0.0268 C   0  0  0  0  0  0  0  0  0  0  0  0
    3.6647    3.0740    3.1708 C   0  0  0  0  0  0  0  0  0  0  0  0
    2.5688    2.2625    3.8155 C   0  0  0  0  0  0  0  0  0  0  0  0
    2.8213    1.0206    4.4814 C   0  0  0  0  0  0  0  0  0  0  0  0
    1.6732    0.3571    4.8284 C   0  0  0  0  0  0  0  0  0  0  0  0
    0.2508    1.2171    4.3478 S   0  0  0  0  0  0  0  0  0  0  0  0
    1.2163    2.5151    3.6829 C   0  0  0  0  0  0  0  0  0  0  0  0
    0.5699    3.6938    3.0731 C   0  0  0  0  0  0  0  0  0  0  0  0
    1.0970    4.7660    2.8999 O   0  0  0  0  0  0  0  0  0  0  0  0
   -0.7141    3.4428    2.7499 O   0  0  0  0  0  0  0  0  0  0  0  0
    0.9387    0.4709    1.9771 H   0  0  0  0  0  0  0  0  0  0  0  0
    0.5389   -0.6520   -2.3738 H   0  0  0  0  0  0  0  0  0  0  0  0
    0.4352    0.9644   -2.3848 H   0  0  0  0  0  0  0  0  0  0  0  0
    2.4620    2.3278   -1.4785 H   0  0  0  0  0  0  0  0  0  0  0  0
    3.5313    1.0864   -2.1840 H   0  0  0  0  0  0  0  0  0  0  0  0
    7.1278   -0.7744    0.3327 H   0  0  0  0  0  0  0  0  0  0  0  0
    6.8176   -0.8754    2.0932 H   0  0  0  0  0  0  0  0  0  0  0  0
    7.8205    0.4291    1.4602 H   0  0  0  0  0  0  0  0  0  0  0  0
    5.1709    0.0819   -0.8984 H   0  0  0  0  0  0  0  0  0  0  0  0
    3.2800    4.0360    2.8225 H   0  0  0  0  0  0  0  0  0  0  0  0
    4.5028    3.2151    3.8616 H   0  0  0  0  0  0  0  0  0  0  0  0
    3.8291    0.6503    4.6710 H   0  0  0  0  0  0  0  0  0  0  0  0
    1.5828   -0.5954    5.3491 H   0  0  0  0  0  0  0  0  0  0  0  0
   -1.0691    4.2537    2.3492 H   0  0  0  0  0  0  0  0  0  0  0  0
  1  2  2  0
  2  3  1  0
  2  4  1  0
  3 26  1  0
  4  5  1  1
  4  6  1  0
  4  7  1  0
  6 27  1  0
  6 28  1  0
  7  8  1  0
  7 29  1  0
  7 30  1  0
  8  9  1  0
  8 16  1  0
  9 10  2  0
  9 11  1  0
 11 12  1  0
 11 17  1  0
 12 13  2  0
 12 14  1  0
 14 15  1  0
 14 16  2  0
 15 31  1  0
 15 32  1  0
 15 33  1  0
 16 34  1  0
 17 18  1  0
 17 35  1  0
 17 36  1  0
 18 19  1  0
 18 22  2  0
 19 20  2  0
 19 37  1  0
 20 21  1  0
 20 38  1  0
 21 22  1  0
 22 23  1  0
 23 24  2  0
 23 25  1  0
 25 39  1  0
M  END

