39
rmsd33.gzmat
O          0.00000        0.00000        0.00000
C          1.20300        0.00000        0.00000
O          1.94160        0.00000        1.12360
C          2.10180       -0.03160       -1.23220
H          2.90450       -0.80700       -1.08220
N          1.34880       -0.35530       -2.44840
C          2.79940        1.35180       -1.38480
N          1.85450        2.44780       -1.62380
C          1.24870        3.04100       -0.48940
O          1.64700        2.77040        0.62410
N          0.21050        3.94070       -0.73400
C         -0.29470        4.24350       -2.03110
O         -1.22280        5.01010       -2.11950
C          0.38020        3.56400       -3.13540
C         -0.12640        3.88050       -4.49260
C          1.38890        2.68810       -2.90900
C         -0.52950        4.41390        0.44840
C         -1.50070        3.40170        0.96110
C         -1.85780        2.19860        0.27580
C         -2.75440        1.43020        0.96820
S         -3.19190        2.17030        2.46030
C         -2.15710        3.53360        2.17000
C         -2.00160        4.65290        3.06720
O         -1.29670        5.62390        2.92340
O         -2.77370        4.53480        4.18410
H          1.42500        0.22990        1.94240
H          1.07370       -1.32620       -2.47810
H          0.51510        0.21390       -2.53720
H          3.52480        1.30020       -2.22940
H          3.38460        1.56940       -0.45190
H          0.31470        3.25410       -5.27680
H          0.07480        4.93320       -4.75520
H         -1.22280        3.75780       -4.54720
H          1.89200        2.13610       -3.71530
H         -1.06780        5.36790        0.18670
H          0.20460        4.69770        1.25440
H         -1.44670        1.92770       -0.68490
H         -3.14770        0.47690        0.65400
H         -2.68200        5.30380        4.79920
