39
rmsd3.gzmat
O          0.00000        0.00000        0.00000
C          1.20250        0.00000        0.00000
O          1.87410        0.00000        1.16510
C          2.04610        0.04900       -1.28240
H          2.07640        1.12140       -1.61750
N          3.41070       -0.39330       -0.94360
C          1.34380       -0.81420       -2.35960
N          1.93610       -0.59360       -3.68390
C          3.10850       -1.31700       -4.00230
O          3.52880       -2.17060       -3.24580
N          3.67280       -1.05820       -5.25390
C          3.18220       -0.07870       -6.16370
O          3.75630        0.04740       -7.21990
C          2.01880        0.67330       -5.70530
C          1.52320        1.72710       -6.62340
C          1.45640        0.41930       -4.49780
C          4.95010       -1.72350       -5.56980
C          6.01590       -0.74330       -5.95120
C          6.69520       -0.86060       -7.20550
C          7.64910        0.10360       -7.39410
S          7.74240        1.16150       -6.04280
C          6.48290        0.31360       -5.19430
C          6.02350        0.71110       -3.88730
O          5.05680        0.32270       -3.27150
O          6.82120        1.66130       -3.32900
H          2.87110       -0.05390        1.02470
H          3.52380       -1.39420       -1.09490
H          4.09560        0.05380       -1.54430
H          0.25100       -0.58510       -2.39020
H          1.42500       -1.90030       -2.09950
H          0.56260        2.15470       -6.31010
H          1.39160        1.33390       -7.64690
H          2.24810        2.55450       -6.70560
H          0.59020        0.97850       -4.12030
H          4.75890       -2.44720       -6.40390
H          5.29080       -2.33180       -4.68730
H          6.44170       -1.62510       -7.92660
H          8.27300        0.22250       -8.26500
H          6.55260        1.91190       -2.41000
