rmsd186.gzmat
 OpenBabel08211713433D

 39 40  0  0  1  0  0  0  0  0999 V2000
    0.0000    0.0000    0.0000 O   0  0  0  0  0  0  0  0  0  0  0  0
    1.2001    0.0000    0.0000 C   0  0  0  0  0  0  0  0  0  0  0  0
    1.9291    0.0000    1.1372 O   0  0  0  0  0  0  0  0  0  0  0  0
    2.1174   -0.0576   -1.2164 C   0  0  1  0  0  0  0  0  0  0  0  0
    2.8489   -0.8999   -1.0765 H   0  0  0  0  0  0  0  0  0  0  0  0
    1.3656   -0.2762   -2.4561 N   0  0  0  0  0  0  0  0  0  0  0  0
    2.8927    1.2832   -1.3721 C   0  0  0  0  0  0  0  0  0  0  0  0
    3.8058    1.5163   -0.2503 N   0  0  0  0  0  0  0  0  0  0  0  0
    3.2822    2.2266    0.8594 C   0  0  0  0  0  0  0  0  0  0  0  0
    2.2295    2.8208    0.7676 O   0  0  0  0  0  0  0  0  0  0  0  0
    4.0731    2.2516    2.0134 N   0  0  0  0  0  0  0  0  0  0  0  0
    5.2569    1.4863    2.1793 C   0  0  0  0  0  0  0  0  0  0  0  0
    5.8050    1.5006    3.2570 O   0  0  0  0  0  0  0  0  0  0  0  0
    5.6984    0.7512    0.9946 C   0  0  0  0  0  0  0  0  0  0  0  0
    6.9720    0.0066    1.1408 C   0  0  0  0  0  0  0  0  0  0  0  0
    4.9644    0.7584   -0.1444 C   0  0  0  0  0  0  0  0  0  0  0  0
    3.5214    2.9884    3.1661 C   0  0  0  0  0  0  0  0  0  0  0  0
    2.3222    2.2933    3.7246 C   0  0  0  0  0  0  0  0  0  0  0  0
    2.3277    0.8993    4.0508 C   0  0  0  0  0  0  0  0  0  0  0  0
    1.1229    0.4559    4.5281 C   0  0  0  0  0  0  0  0  0  0  0  0
   -0.0297    1.7324    4.5956 S   0  0  0  0  0  0  0  0  0  0  0  0
    1.1041    2.8881    3.9750 C   0  0  0  0  0  0  0  0  0  0  0  0
    0.7835    4.2824    3.7387 C   0  0  0  0  0  0  0  0  0  0  0  0
    1.5395    5.2158    3.6269 O   0  0  0  0  0  0  0  0  0  0  0  0
   -0.5619    4.4799    3.6624 O   0  0  0  0  0  0  0  0  0  0  0  0
    1.3923    0.1401    1.9650 H   0  0  0  0  0  0  0  0  0  0  0  0
    0.9890   -1.2109   -2.5135 H   0  0  0  0  0  0  0  0  0  0  0  0
    0.6035    0.3826   -2.5626 H   0  0  0  0  0  0  0  0  0  0  0  0
    2.1774    2.1412   -1.4548 H   0  0  0  0  0  0  0  0  0  0  0  0
    3.4668    1.2635   -2.3290 H   0  0  0  0  0  0  0  0  0  0  0  0
    7.2091   -0.6275    0.2787 H   0  0  0  0  0  0  0  0  0  0  0  0
    6.9481   -0.6434    2.0336 H   0  0  0  0  0  0  0  0  0  0  0  0
    7.8197    0.6971    1.2912 H   0  0  0  0  0  0  0  0  0  0  0  0
    5.2594    0.2003   -1.0411 H   0  0  0  0  0  0  0  0  0  0  0  0
    3.2790    4.0362    2.8374 H   0  0  0  0  0  0  0  0  0  0  0  0
    4.3154    3.0845    3.9555 H   0  0  0  0  0  0  0  0  0  0  0  0
    3.2159    0.2913    3.9356 H   0  0  0  0  0  0  0  0  0  0  0  0
    0.8922   -0.5475    4.8471 H   0  0  0  0  0  0  0  0  0  0  0  0
   -0.8043    5.4170    3.4560 H   0  0  0  0  0  0  0  0  0  0  0  0
  2  1  2  0  0  0  0
  2  3  1  0  0  0  0
  3 26  1  0  0  0  0
  4  5  1  1  0  0  0
  4  2  1  0  0  0  0
  6  4  1  0  0  0  0
  7  4  1  0  0  0  0
  7  8  1  0  0  0  0
  8 16  1  0  0  0  0
  8  9  1  0  0  0  0
  9 11  1  0  0  0  0
 10  9  2  0  0  0  0
 11 12  1  0  0  0  0
 11 17  1  0  0  0  0
 12 13  2  0  0  0  0
 14 15  1  0  0  0  0
 14 12  1  0  0  0  0
 15 33  1  0  0  0  0
 15 32  1  0  0  0  0
 16 14  2  0  0  0  0
 17 18  1  0  0  0  0
 17 36  1  0  0  0  0
 18 22  2  0  0  0  0
 18 19  1  0  0  0  0
 19 20  2  0  0  0  0
 20 21  1  0  0  0  0
 20 38  1  0  0  0  0
 22 21  1  0  0  0  0
 23 22  1  0  0  0  0
 24 23  2  0  0  0  0
 25 23  1  0  0  0  0
 27  6  1  0  0  0  0
 28  6  1  0  0  0  0
 29  7  1  0  0  0  0
 30  7  1  0  0  0  0
 31 15  1  0  0  0  0
 34 16  1  0  0  0  0
 35 17  1  0  0  0  0
 37 19  1  0  0  0  0
 39 25  1  0  0  0  0
M  END
$$$$
