rmsd192.gzmat
 OpenBabel08211713433D

 39 40  0  0  1  0  0  0  0  0999 V2000
    0.0000    0.0000    0.0000 O   0  0  0  0  0  0  0  0  0  0  0  0
    1.2032    0.0000    0.0000 C   0  0  0  0  0  0  0  0  0  0  0  0
    1.8786    0.0000    1.1600 O   0  0  0  0  0  0  0  0  0  0  0  0
    2.0375    0.0373   -1.2945 C   0  0  1  0  0  0  0  0  0  0  0  0
    1.9807    1.0868   -1.6926 H   0  0  0  0  0  0  0  0  0  0  0  0
    3.4276   -0.2975   -0.9350 N   0  0  0  0  0  0  0  0  0  0  0  0
    1.3921   -0.9452   -2.3027 C   0  0  0  0  0  0  0  0  0  0  0  0
    1.7922   -0.6422   -3.6832 N   0  0  0  0  0  0  0  0  0  0  0  0
    3.0377   -1.1234   -4.1284 C   0  0  0  0  0  0  0  0  0  0  0  0
    3.7583   -1.7509   -3.3710 O   0  0  0  0  0  0  0  0  0  0  0  0
    3.3735   -0.8565   -5.4533 N   0  0  0  0  0  0  0  0  0  0  0  0
    2.5502   -0.1087   -6.3508 C   0  0  0  0  0  0  0  0  0  0  0  0
    2.9382    0.0273   -7.4853 O   0  0  0  0  0  0  0  0  0  0  0  0
    1.3130    0.4086   -5.7739 C   0  0  0  0  0  0  0  0  0  0  0  0
    0.4748    1.2377   -6.6730 C   0  0  0  0  0  0  0  0  0  0  0  0
    0.9788    0.1428   -4.4874 C   0  0  0  0  0  0  0  0  0  0  0  0
    4.7122   -1.2622   -5.9325 C   0  0  0  0  0  0  0  0  0  0  0  0
    5.5902   -0.0583   -6.0800 C   0  0  0  0  0  0  0  0  0  0  0  0
    5.9573    0.4792   -7.3550 C   0  0  0  0  0  0  0  0  0  0  0  0
    6.7467    1.5923   -7.2563 C   0  0  0  0  0  0  0  0  0  0  0  0
    7.0338    2.0100   -5.6049 S   0  0  0  0  0  0  0  0  0  0  0  0
    6.1038    0.6733   -5.0336 C   0  0  0  0  0  0  0  0  0  0  0  0
    5.8479    0.3981   -3.6311 C   0  0  0  0  0  0  0  0  0  0  0  0
    5.2781    1.0999   -2.8286 O   0  0  0  0  0  0  0  0  0  0  0  0
    6.3044   -0.8285   -3.2864 O   0  0  0  0  0  0  0  0  0  0  0  0
    2.8767   -0.0609    1.0119 H   0  0  0  0  0  0  0  0  0  0  0  0
    3.6692   -1.2369   -1.2319 H   0  0  0  0  0  0  0  0  0  0  0  0
    4.0915    0.3305   -1.3797 H   0  0  0  0  0  0  0  0  0  0  0  0
    0.2768   -0.9062   -2.2203 H   0  0  0  0  0  0  0  0  0  0  0  0
    1.6832   -1.9985   -2.0594 H   0  0  0  0  0  0  0  0  0  0  0  0
   -0.4810    1.5348   -6.2229 H   0  0  0  0  0  0  0  0  0  0  0  0
    0.2457    0.7024   -7.6112 H   0  0  0  0  0  0  0  0  0  0  0  0
    1.0029    2.1601   -6.9707 H   0  0  0  0  0  0  0  0  0  0  0  0
    0.0563    0.5195   -4.0236 H   0  0  0  0  0  0  0  0  0  0  0  0
    4.5870   -1.7941   -6.9102 H   0  0  0  0  0  0  0  0  0  0  0  0
    5.1680   -1.9995   -5.2184 H   0  0  0  0  0  0  0  0  0  0  0  0
    5.6069    0.0420   -8.2812 H   0  0  0  0  0  0  0  0  0  0  0  0
    7.1496    2.1679   -8.0723 H   0  0  0  0  0  0  0  0  0  0  0  0
    5.9138   -1.1609   -2.4356 H   0  0  0  0  0  0  0  0  0  0  0  0
  2  1  2  0  0  0  0
  2  3  1  0  0  0  0
  4  5  1  6  0  0  0
  4  6  1  0  0  0  0
  4  2  1  0  0  0  0
  7 29  1  0  0  0  0
  7 30  1  0  0  0  0
  7  4  1  0  0  0  0
  8  7  1  0  0  0  0
  9  8  1  0  0  0  0
  9 10  2  0  0  0  0
 11  9  1  0  0  0  0
 12 14  1  0  0  0  0
 12 11  1  0  0  0  0
 13 12  2  0  0  0  0
 14 16  2  0  0  0  0
 15 31  1  0  0  0  0
 15 14  1  0  0  0  0
 16 34  1  0  0  0  0
 16  8  1  0  0  0  0
 17 11  1  0  0  0  0
 17 36  1  0  0  0  0
 18 17  1  0  0  0  0
 18 22  2  0  0  0  0
 19 20  2  0  0  0  0
 19 18  1  0  0  0  0
 20 21  1  0  0  0  0
 21 22  1  0  0  0  0
 22 23  1  0  0  0  0
 23 25  1  0  0  0  0
 23 24  2  0  0  0  0
 25 39  1  0  0  0  0
 26  3  1  0  0  0  0
 27  6  1  0  0  0  0
 28  6  1  0  0  0  0
 32 15  1  0  0  0  0
 33 15  1  0  0  0  0
 35 17  1  0  0  0  0
 37 19  1  0  0  0  0
 38 20  1  0  0  0  0
M  END
$$$$
