39

O          0.47050        0.26220        0.06510
C          1.60540        0.54840       -0.22480
O          2.52610        0.95500        0.63610
C          2.13210        0.50230       -1.68200
H          1.71210        1.40380       -2.16240
N          3.58570        0.62570       -1.67430
C          1.53070       -0.72550       -2.38170
N          1.76620       -0.72190       -3.82570
C          2.98650       -1.20690       -4.27380
O          3.77290       -1.76240       -3.52260
N          3.26440       -0.98700       -5.61530
C          2.40530       -0.34310       -6.53460
O          2.76920       -0.12670       -7.67890
C          1.09970        0.04770       -6.00340
C          0.12470        0.67540       -6.95220
C          0.86360       -0.13130       -4.68180
C          4.65880       -1.23240       -6.03580
C          5.49020       -0.04680       -5.60950
C          5.43710        1.20880       -6.29460
C          6.08190        2.21320       -5.61710
S          6.75030        1.66860       -4.12230
C          6.19000        0.04670       -4.41810
C          6.43670       -0.96470       -3.37000
O          6.49060       -0.71180       -2.18670
O          6.63310       -2.19620       -3.86680
H          3.34270        1.06180        0.07500
H          4.06800       -0.27210       -1.73760
H          3.95280        1.20690       -2.42420
H          0.44980       -0.73300       -2.19750
H          1.95790       -1.64740       -1.96720
H         -0.80600        0.96000       -6.44100
H         -0.12130       -0.01610       -7.77400
H          0.56220        1.57060       -7.42200
H         -0.07300        0.18360       -4.21640
H          4.64420       -1.33030       -7.12590
H          5.00770       -2.15640       -5.56940
H          4.91610        1.34100       -7.24310
H          6.20860        3.25080       -5.92360
H          6.66370       -2.80050       -3.10510
