rmsd232.gzmat
 OpenBabel08211713433D

 39 40  0  0  1  0  0  0  0  0999 V2000
    0.0000    0.0000    0.0000 O   0  0  0  0  0  0  0  0  0  0  0  0
    1.2029    0.0000    0.0000 C   0  0  0  0  0  0  0  0  0  0  0  0
    1.8739    0.0000    1.1655 O   0  0  0  0  0  0  0  0  0  0  0  0
    2.0436    0.0489   -1.2843 C   0  0  1  0  0  0  0  0  0  0  0  0
    2.0382    1.1147   -1.6426 H   0  0  0  0  0  0  0  0  0  0  0  0
    3.4233   -0.3439   -0.9393 N   0  0  0  0  0  0  0  0  0  0  0  0
    1.3669   -0.8594   -2.3406 C   0  0  0  0  0  0  0  0  0  0  0  0
    1.9117   -0.6175   -3.6818 N   0  0  0  0  0  0  0  0  0  0  0  0
    3.1241   -1.2583   -4.0222 C   0  0  0  0  0  0  0  0  0  0  0  0
    3.6245   -2.0723   -3.2699 O   0  0  0  0  0  0  0  0  0  0  0  0
    3.6358   -0.9788   -5.2927 N   0  0  0  0  0  0  0  0  0  0  0  0
    3.0647   -0.0329   -6.1918 C   0  0  0  0  0  0  0  0  0  0  0  0
    3.6143    0.1353   -7.2554 O   0  0  0  0  0  0  0  0  0  0  0  0
    1.8544    0.6300   -5.7176 C   0  0  0  0  0  0  0  0  0  0  0  0
    1.2544    1.6226   -6.6415 C   0  0  0  0  0  0  0  0  0  0  0  0
    1.3414    0.3501   -4.4941 C   0  0  0  0  0  0  0  0  0  0  0  0
    4.9527   -1.5452   -5.6360 C   0  0  0  0  0  0  0  0  0  0  0  0
    5.9530   -0.4793   -5.9639 C   0  0  0  0  0  0  0  0  0  0  0  0
    6.6144   -0.4659   -7.2335 C   0  0  0  0  0  0  0  0  0  0  0  0
    7.5107    0.5608   -7.3634 C   0  0  0  0  0  0  0  0  0  0  0  0
    7.5751    1.5166   -5.9351 S   0  0  0  0  0  0  0  0  0  0  0  0
    6.3724    0.5465   -5.1405 C   0  0  0  0  0  0  0  0  0  0  0  0
    5.8924    0.8375   -3.8120 C   0  0  0  0  0  0  0  0  0  0  0  0
    4.8275    0.5472   -3.3147 O   0  0  0  0  0  0  0  0  0  0  0  0
    6.7885    1.5493   -3.0788 O   0  0  0  0  0  0  0  0  0  0  0  0
    2.8705   -0.0619    1.0252 H   0  0  0  0  0  0  0  0  0  0  0  0
    3.5902   -1.3266   -1.1479 H   0  0  0  0  0  0  0  0  0  0  0  0
    4.0919    0.1728   -1.5010 H   0  0  0  0  0  0  0  0  0  0  0  0
    0.2623   -0.6894   -2.3473 H   0  0  0  0  0  0  0  0  0  0  0  0
    1.5123   -1.9378   -2.0773 H   0  0  0  0  0  0  0  0  0  0  0  0
    0.3339    2.0746   -6.2521 H   0  0  0  0  0  0  0  0  0  0  0  0
    1.0132    1.1629   -7.6156 H   0  0  0  0  0  0  0  0  0  0  0  0
    1.9622    2.4405   -6.8586 H   0  0  0  0  0  0  0  0  0  0  0  0
    0.4449    0.8481   -4.1014 H   0  0  0  0  0  0  0  0  0  0  0  0
    4.8073   -2.2342   -6.5083 H   0  0  0  0  0  0  0  0  0  0  0  0
    5.3295   -2.1784   -4.7879 H   0  0  0  0  0  0  0  0  0  0  0  0
    6.3850   -1.1860   -8.0069 H   0  0  0  0  0  0  0  0  0  0  0  0
    8.1074    0.7815   -8.2335 H   0  0  0  0  0  0  0  0  0  0  0  0
    6.4908    1.7073   -2.1471 H   0  0  0  0  0  0  0  0  0  0  0  0
  2  1  2  0  0  0  0
  2  3  1  0  0  0  0
  4  5  1  6  0  0  0
  4  6  1  0  0  0  0
  4  2  1  0  0  0  0
  7 30  1  0  0  0  0
  7  4  1  0  0  0  0
  8  7  1  0  0  0  0
  9  8  1  0  0  0  0
  9 10  2  0  0  0  0
 11  9  1  0  0  0  0
 12 14  1  0  0  0  0
 12 11  1  0  0  0  0
 13 12  2  0  0  0  0
 14 16  2  0  0  0  0
 15 31  1  0  0  0  0
 15 14  1  0  0  0  0
 16 34  1  0  0  0  0
 16  8  1  0  0  0  0
 17 11  1  0  0  0  0
 17 36  1  0  0  0  0
 18 17  1  0  0  0  0
 18 22  2  0  0  0  0
 19 18  1  0  0  0  0
 20 19  2  0  0  0  0
 20 21  1  0  0  0  0
 21 22  1  0  0  0  0
 22 23  1  0  0  0  0
 23 24  2  0  0  0  0
 23 25  1  0  0  0  0
 25 39  1  0  0  0  0
 26  3  1  0  0  0  0
 27  6  1  0  0  0  0
 28  6  1  0  0  0  0
 29  7  1  0  0  0  0
 32 15  1  0  0  0  0
 33 15  1  0  0  0  0
 35 17  1  0  0  0  0
 37 19  1  0  0  0  0
 38 20  1  0  0  0  0
M  END
$$$$
