
     RDKit          3D

 39 40  0  0  0  0  0  0  0  0999 V2000
    0.4705    0.2622    0.0651 O   0  0  0  0  0  0  0  0  0  0  0  0
    1.6054    0.5484   -0.2248 C   0  0  0  0  0  0  0  0  0  0  0  0
    2.5261    0.9550    0.6361 O   0  0  0  0  0  0  0  0  0  0  0  0
    2.1321    0.5023   -1.6820 C   0  0  1  0  0  0  0  0  0  0  0  0
    1.7121    1.4038   -2.1624 H   0  0  0  0  0  0  0  0  0  0  0  0
    3.5857    0.6257   -1.6743 N   0  0  0  0  0  0  0  0  0  0  0  0
    1.5307   -0.7255   -2.3817 C   0  0  0  0  0  0  0  0  0  0  0  0
    1.7662   -0.7219   -3.8257 N   0  0  0  0  0  0  0  0  0  0  0  0
    2.9865   -1.2069   -4.2738 C   0  0  0  0  0  0  0  0  0  0  0  0
    3.7729   -1.7624   -3.5226 O   0  0  0  0  0  0  0  0  0  0  0  0
    3.2644   -0.9870   -5.6153 N   0  0  0  0  0  0  0  0  0  0  0  0
    2.4053   -0.3431   -6.5346 C   0  0  0  0  0  0  0  0  0  0  0  0
    2.7692   -0.1267   -7.6789 O   0  0  0  0  0  0  0  0  0  0  0  0
    1.0997    0.0477   -6.0034 C   0  0  0  0  0  0  0  0  0  0  0  0
    0.1247    0.6754   -6.9522 C   0  0  0  0  0  0  0  0  0  0  0  0
    0.8636   -0.1313   -4.6818 C   0  0  0  0  0  0  0  0  0  0  0  0
    4.6588   -1.2324   -6.0358 C   0  0  0  0  0  0  0  0  0  0  0  0
    5.4902   -0.0468   -5.6095 C   0  0  0  0  0  0  0  0  0  0  0  0
    5.4371    1.2088   -6.2946 C   0  0  0  0  0  0  0  0  0  0  0  0
    6.0819    2.2132   -5.6171 C   0  0  0  0  0  0  0  0  0  0  0  0
    6.7503    1.6686   -4.1223 S   0  0  0  0  0  0  0  0  0  0  0  0
    6.1900    0.0467   -4.4181 C   0  0  0  0  0  0  0  0  0  0  0  0
    6.4367   -0.9647   -3.3700 C   0  0  0  0  0  0  0  0  0  0  0  0
    6.4906   -0.7118   -2.1867 O   0  0  0  0  0  0  0  0  0  0  0  0
    6.6331   -2.1962   -3.8668 O   0  0  0  0  0  0  0  0  0  0  0  0
    3.3427    1.0618    0.0750 H   0  0  0  0  0  0  0  0  0  0  0  0
    4.0680   -0.2721   -1.7376 H   0  0  0  0  0  0  0  0  0  0  0  0
    3.9528    1.2069   -2.4242 H   0  0  0  0  0  0  0  0  0  0  0  0
    0.4498   -0.7330   -2.1975 H   0  0  0  0  0  0  0  0  0  0  0  0
    1.9579   -1.6474   -1.9672 H   0  0  0  0  0  0  0  0  0  0  0  0
   -0.8060    0.9600   -6.4410 H   0  0  0  0  0  0  0  0  0  0  0  0
   -0.1213   -0.0161   -7.7740 H   0  0  0  0  0  0  0  0  0  0  0  0
    0.5622    1.5706   -7.4220 H   0  0  0  0  0  0  0  0  0  0  0  0
   -0.0730    0.1836   -4.2164 H   0  0  0  0  0  0  0  0  0  0  0  0
    4.6442   -1.3303   -7.1259 H   0  0  0  0  0  0  0  0  0  0  0  0
    5.0077   -2.1564   -5.5694 H   0  0  0  0  0  0  0  0  0  0  0  0
    4.9161    1.3410   -7.2431 H   0  0  0  0  0  0  0  0  0  0  0  0
    6.2086    3.2508   -5.9236 H   0  0  0  0  0  0  0  0  0  0  0  0
    6.6637   -2.8005   -3.1051 H   0  0  0  0  0  0  0  0  0  0  0  0
  1  2  2  0
  2  3  1  0
  2  4  1  0
  3 26  1  0
  4  5  1  6
  4  6  1  0
  4  7  1  0
  6 27  1  0
  6 28  1  0
  7  8  1  0
  7 29  1  0
  7 30  1  0
  8  9  1  0
  8 16  1  0
  9 10  2  0
  9 11  1  0
 11 12  1  0
 11 17  1  0
 12 13  2  0
 12 14  1  0
 14 15  1  0
 14 16  2  0
 15 31  1  0
 15 32  1  0
 15 33  1  0
 16 34  1  0
 17 18  1  0
 17 35  1  0
 17 36  1  0
 18 19  1  0
 18 22  2  0
 19 20  2  0
 19 37  1  0
 20 21  1  0
 20 38  1  0
 21 22  1  0
 22 23  1  0
 23 24  2  0
 23 25  1  0
 25 39  1  0
M  END

