39
rmsd168.gzmat
O          0.00000        0.00000        0.00000
C          1.20220        0.00000        0.00000
O          1.87680        0.00000        1.16330
C          2.04730        0.04640       -1.28240
H          2.11460        1.12310       -1.59960
N          3.39580       -0.44350       -0.95020
C          1.31340       -0.77780       -2.37060
N          2.02110       -0.69800       -3.65450
C          3.09150       -1.59520       -3.85080
O          3.27780       -2.51890       -3.08270
N          3.89810       -1.37580       -4.97010
C          3.70340       -0.30940       -5.89660
O          4.47130       -0.22000       -6.82470
C          2.57810        0.57190       -5.60120
C          2.35910        1.69130       -6.54950
C          1.81080        0.38190       -4.49950
C          5.05970       -2.27230       -5.12250
C          5.94840       -2.26030       -3.91870
C          6.43900       -3.48740       -3.35470
C          7.24430       -3.29580       -2.26830
S          7.42340       -1.61400       -1.91490
C          6.39960       -1.15690       -3.23810
C          6.08550        0.23730       -3.50500
O          5.18340        0.89280       -3.03610
O          6.95080        0.78320       -4.38510
H          2.87290       -0.06730        1.01950
H          3.47760       -1.44500       -1.10210
H          4.10210        0.01010       -1.52180
H          0.26390       -0.41770       -2.48960
H          1.23670       -1.85150       -2.05960
H          1.34560        2.10880       -6.49480
H          2.52460        1.37290       -7.59410
H          3.06930        2.51420       -6.36320
H          0.97800        1.04750       -4.23660
H          5.64760       -1.95790       -6.03070
H          4.68180       -3.30660       -5.32800
H          6.16660       -4.45230       -3.75940
H          7.72050       -4.05990       -1.67650
H          6.73620        1.72600       -4.61800
