rmsd26.gzmat
 OpenBabel08211713393D

 28 30  0  0  0  0  0  0  0  0999 V2000
    0.0000    0.0000    0.0000 O   0  0  0  0  0  0  0  0  0  0  0  0
    1.2071    0.0000    0.0000 C   0  0  0  0  0  0  0  0  0  0  0  0
    1.9162    0.0000    1.2000 N   0  0  0  0  0  0  0  0  0  0  0  0
    1.4348   -0.0040    2.1020 H   0  0  0  0  0  0  0  0  0  0  0  0
    3.2950    0.0137    1.1618 C   0  0  0  0  0  0  0  0  0  0  0  0
    4.2701    0.0211    2.1111 N   0  0  0  0  0  0  0  0  0  0  0  0
    5.4430    0.0340    1.4448 N   0  0  0  0  0  0  0  0  0  0  0  0
    5.3078    0.0357    0.1561 N   0  0  0  0  0  0  0  0  0  0  0  0
    3.9608    0.0237   -0.0939 N   0  0  0  0  0  0  0  0  0  0  0  0
    3.3730    0.0151   -1.3137 N   0  0  0  0  0  0  0  0  0  0  0  0
    2.0379    0.0009   -1.2797 C   0  0  0  0  0  0  0  0  0  0  0  0
    1.2835   -0.0335   -2.4129 N   0  0  0  0  0  0  0  0  0  0  0  0
    1.7630    0.0223   -3.7493 C   0  0  0  0  0  0  0  0  0  0  0  0
    3.0321   -0.4145   -4.1336 C   0  0  0  0  0  0  0  0  0  0  0  0
    3.4021   -0.3718   -5.4770 C   0  0  0  0  0  0  0  0  0  0  0  0
    2.4934    0.1026   -6.4200 C   0  0  0  0  0  0  0  0  0  0  0  0
    2.7085    0.1972   -7.7571 O   0  0  0  0  0  0  0  0  0  0  0  0
    3.9742   -0.2316   -8.2415 C   0  0  0  0  0  0  0  0  0  0  0  0
    1.2122    0.5475   -6.0436 C   0  0  0  0  0  0  0  0  0  0  0  0
    0.8533    0.5107   -4.7098 C   0  0  0  0  0  0  0  0  0  0  0  0
    0.2651    0.0060   -2.2880 H   0  0  0  0  0  0  0  0  0  0  0  0
    3.7513   -0.7945   -3.4005 H   0  0  0  0  0  0  0  0  0  0  0  0
    4.3956   -0.7058   -5.7641 H   0  0  0  0  0  0  0  0  0  0  0  0
    3.8897   -0.0272   -9.3182 H   0  0  0  0  0  0  0  0  0  0  0  0
    4.1156   -1.3027   -8.0656 H   0  0  0  0  0  0  0  0  0  0  0  0
    4.7841    0.3607   -7.8036 H   0  0  0  0  0  0  0  0  0  0  0  0
    0.5274    0.9164   -6.8049 H   0  0  0  0  0  0  0  0  0  0  0  0
   -0.1318    0.8650   -4.4062 H   0  0  0  0  0  0  0  0  0  0  0  0
  2  1  2  0  0  0  0
  2  3  1  0  0  0  0
  3  4  1  0  0  0  0
  5  3  1  0  0  0  0
  5  6  2  0  0  0  0
  7  6  1  0  0  0  0
  8  7  2  0  0  0  0
  9  8  1  0  0  0  0
  9  5  1  0  0  0  0
 10 11  2  0  0  0  0
 10  9  1  0  0  0  0
 11  2  1  0  0  0  0
 12 21  1  0  0  0  0
 12 11  1  0  0  0  0
 13 12  1  0  0  0  0
 14 13  1  0  0  0  0
 14 22  1  0  0  0  0
 15 14  2  0  0  0  0
 16 19  2  0  0  0  0
 16 15  1  0  0  0  0
 17 16  1  0  0  0  0
 18 25  1  0  0  0  0
 18 26  1  0  0  0  0
 18 17  1  0  0  0  0
 19 20  1  0  0  0  0
 20 28  1  0  0  0  0
 20 13  2  0  0  0  0
 23 15  1  0  0  0  0
 24 18  1  0  0  0  0
 27 19  1  0  0  0  0
M  END
$$$$
