rmsd7.gzmat
 OpenBabel08211713393D

 28 30  0  0  0  0  0  0  0  0999 V2000
    0.0000    0.0000    0.0000 O   0  0  0  0  0  0  0  0  0  0  0  0
    1.2070    0.0000    0.0000 C   0  0  0  0  0  0  0  0  0  0  0  0
    1.9142    0.0000    1.2016 N   0  0  0  0  0  0  0  0  0  0  0  0
    1.4294   -0.0034    2.1016 H   0  0  0  0  0  0  0  0  0  0  0  0
    3.2931    0.0048    1.1677 C   0  0  0  0  0  0  0  0  0  0  0  0
    4.2666    0.0098    2.1187 N   0  0  0  0  0  0  0  0  0  0  0  0
    5.4407    0.0195    1.4544 N   0  0  0  0  0  0  0  0  0  0  0  0
    5.3079    0.0207    0.1654 N   0  0  0  0  0  0  0  0  0  0  0  0
    3.9611    0.0123   -0.0869 N   0  0  0  0  0  0  0  0  0  0  0  0
    3.3754    0.0005   -1.3073 N   0  0  0  0  0  0  0  0  0  0  0  0
    2.0402   -0.0080   -1.2777 C   0  0  0  0  0  0  0  0  0  0  0  0
    1.2903   -0.0057   -2.4153 N   0  0  0  0  0  0  0  0  0  0  0  0
    1.7751   -0.1362   -3.7452 C   0  0  0  0  0  0  0  0  0  0  0  0
    0.8557   -0.6388   -4.6901 C   0  0  0  0  0  0  0  0  0  0  0  0
    1.2293   -0.7702   -6.0139 C   0  0  0  0  0  0  0  0  0  0  0  0
    2.5323   -0.4008   -6.3979 C   0  0  0  0  0  0  0  0  0  0  0  0
    2.7625   -0.5848   -7.7232 O   0  0  0  0  0  0  0  0  0  0  0  0
    4.0702   -0.2930   -8.1999 C   0  0  0  0  0  0  0  0  0  0  0  0
    3.4453    0.1003   -5.4732 C   0  0  0  0  0  0  0  0  0  0  0  0
    3.0615    0.2361   -4.1401 C   0  0  0  0  0  0  0  0  0  0  0  0
    0.2717   -0.0415   -2.2928 H   0  0  0  0  0  0  0  0  0  0  0  0
   -0.1490   -0.9300   -4.3820 H   0  0  0  0  0  0  0  0  0  0  0  0
    0.5397   -1.1576   -6.7620 H   0  0  0  0  0  0  0  0  0  0  0  0
    3.9895   -0.5473   -9.2663 H   0  0  0  0  0  0  0  0  0  0  0  0
    4.8152   -0.9286   -7.7107 H   0  0  0  0  0  0  0  0  0  0  0  0
    4.3024    0.7696   -8.0780 H   0  0  0  0  0  0  0  0  0  0  0  0
    4.4511    0.3875   -5.7674 H   0  0  0  0  0  0  0  0  0  0  0  0
    3.7859    0.6384   -3.4246 H   0  0  0  0  0  0  0  0  0  0  0  0
  2  1  2  0  0  0  0
  2  3  1  0  0  0  0
  3  4  1  0  0  0  0
  5  3  1  0  0  0  0
  5  6  2  0  0  0  0
  7  6  1  0  0  0  0
  8  7  2  0  0  0  0
  9  8  1  0  0  0  0
  9  5  1  0  0  0  0
 10 11  2  0  0  0  0
 10  9  1  0  0  0  0
 11  2  1  0  0  0  0
 12 21  1  0  0  0  0
 12 11  1  0  0  0  0
 13 12  1  0  0  0  0
 14 22  1  0  0  0  0
 14 13  2  0  0  0  0
 15 14  1  0  0  0  0
 16 15  2  0  0  0  0
 16 19  1  0  0  0  0
 17 16  1  0  0  0  0
 18 26  1  0  0  0  0
 18 17  1  0  0  0  0
 18 25  1  0  0  0  0
 19 20  2  0  0  0  0
 20 13  1  0  0  0  0
 20 28  1  0  0  0  0
 23 15  1  0  0  0  0
 24 18  1  0  0  0  0
 27 19  1  0  0  0  0
M  END
$$$$
