28
rmsd27.gzmat
O          0.00000        0.00000        0.00000
C          1.20700        0.00000        0.00000
N          1.91670        0.00000        1.20010
H          1.43520        0.00080        2.10150
C          3.29540        0.01050        1.16160
N          4.27050        0.01910        2.11080
N          5.44340        0.02940        1.44420
N          5.30820        0.02920        0.15550
N          3.96140        0.01680       -0.09480
N          3.37300        0.01860       -1.31460
C          2.03820        0.01230       -1.27730
N          1.28930       -0.01500       -2.41560
C          1.79830        0.18240       -3.72990
C          3.00530       -0.37230       -4.16080
C          3.41970       -0.18370       -5.47760
C          2.61750        0.55690       -6.34380
O          2.88620        0.81950       -7.64780
C          4.10100        0.30710       -8.17800
C          1.40080        1.12120       -5.91760
C          0.99540        0.93360       -4.60970
H          0.27130        0.02530       -2.30260
H          3.63450       -0.95150       -3.47800
H          4.36200       -0.61220       -5.80640
H          4.06940        0.67080       -9.21490
H          4.10570       -0.78690       -8.15730
H          4.96570        0.72490       -7.65320
H          0.80220        1.69920       -6.61890
H          0.06010        1.37330       -4.26290
