rmsd27.gzmat
 OpenBabel08211713393D

 28 30  0  0  0  0  0  0  0  0999 V2000
    0.0000    0.0000    0.0000 O   0  0  0  0  0  0  0  0  0  0  0  0
    1.2070    0.0000    0.0000 C   0  0  0  0  0  0  0  0  0  0  0  0
    1.9167    0.0000    1.2001 N   0  0  0  0  0  0  0  0  0  0  0  0
    1.4352    0.0008    2.1015 H   0  0  0  0  0  0  0  0  0  0  0  0
    3.2954    0.0105    1.1616 C   0  0  0  0  0  0  0  0  0  0  0  0
    4.2705    0.0191    2.1108 N   0  0  0  0  0  0  0  0  0  0  0  0
    5.4434    0.0294    1.4442 N   0  0  0  0  0  0  0  0  0  0  0  0
    5.3082    0.0292    0.1555 N   0  0  0  0  0  0  0  0  0  0  0  0
    3.9614    0.0168   -0.0948 N   0  0  0  0  0  0  0  0  0  0  0  0
    3.3730    0.0186   -1.3146 N   0  0  0  0  0  0  0  0  0  0  0  0
    2.0382    0.0123   -1.2773 C   0  0  0  0  0  0  0  0  0  0  0  0
    1.2893   -0.0150   -2.4156 N   0  0  0  0  0  0  0  0  0  0  0  0
    1.7983    0.1824   -3.7299 C   0  0  0  0  0  0  0  0  0  0  0  0
    3.0053   -0.3723   -4.1608 C   0  0  0  0  0  0  0  0  0  0  0  0
    3.4197   -0.1837   -5.4776 C   0  0  0  0  0  0  0  0  0  0  0  0
    2.6175    0.5569   -6.3438 C   0  0  0  0  0  0  0  0  0  0  0  0
    2.8862    0.8195   -7.6478 O   0  0  0  0  0  0  0  0  0  0  0  0
    4.1010    0.3071   -8.1780 C   0  0  0  0  0  0  0  0  0  0  0  0
    1.4008    1.1212   -5.9176 C   0  0  0  0  0  0  0  0  0  0  0  0
    0.9954    0.9336   -4.6097 C   0  0  0  0  0  0  0  0  0  0  0  0
    0.2713    0.0253   -2.3026 H   0  0  0  0  0  0  0  0  0  0  0  0
    3.6345   -0.9515   -3.4780 H   0  0  0  0  0  0  0  0  0  0  0  0
    4.3620   -0.6122   -5.8064 H   0  0  0  0  0  0  0  0  0  0  0  0
    4.0694    0.6708   -9.2149 H   0  0  0  0  0  0  0  0  0  0  0  0
    4.1057   -0.7869   -8.1573 H   0  0  0  0  0  0  0  0  0  0  0  0
    4.9657    0.7249   -7.6532 H   0  0  0  0  0  0  0  0  0  0  0  0
    0.8022    1.6992   -6.6189 H   0  0  0  0  0  0  0  0  0  0  0  0
    0.0601    1.3733   -4.2629 H   0  0  0  0  0  0  0  0  0  0  0  0
  2  1  2  0  0  0  0
  2  3  1  0  0  0  0
  3  4  1  0  0  0  0
  5  3  1  0  0  0  0
  5  6  2  0  0  0  0
  7  6  1  0  0  0  0
  8  7  2  0  0  0  0
  9  8  1  0  0  0  0
  9  5  1  0  0  0  0
 10 11  2  0  0  0  0
 10  9  1  0  0  0  0
 11  2  1  0  0  0  0
 12 21  1  0  0  0  0
 12 11  1  0  0  0  0
 13 12  1  0  0  0  0
 14 13  1  0  0  0  0
 14 22  1  0  0  0  0
 15 14  2  0  0  0  0
 16 19  2  0  0  0  0
 16 15  1  0  0  0  0
 17 16  1  0  0  0  0
 18 25  1  0  0  0  0
 18 26  1  0  0  0  0
 18 17  1  0  0  0  0
 19 20  1  0  0  0  0
 20 28  1  0  0  0  0
 20 13  2  0  0  0  0
 23 15  1  0  0  0  0
 24 18  1  0  0  0  0
 27 19  1  0  0  0  0
M  END
$$$$
