rmsd28.gzmat
 OpenBabel08211713393D

 28 30  0  0  0  0  0  0  0  0999 V2000
    0.0000    0.0000    0.0000 O   0  0  0  0  0  0  0  0  0  0  0  0
    1.2068    0.0000    0.0000 C   0  0  0  0  0  0  0  0  0  0  0  0
    1.9161    0.0000    1.2008 N   0  0  0  0  0  0  0  0  0  0  0  0
    1.4338   -0.0003    2.1021 H   0  0  0  0  0  0  0  0  0  0  0  0
    3.2949    0.0099    1.1644 C   0  0  0  0  0  0  0  0  0  0  0  0
    4.2691    0.0234    2.1146 N   0  0  0  0  0  0  0  0  0  0  0  0
    5.4427    0.0282    1.4492 N   0  0  0  0  0  0  0  0  0  0  0  0
    5.3089    0.0204    0.1605 N   0  0  0  0  0  0  0  0  0  0  0  0
    3.9621    0.0061   -0.0906 N   0  0  0  0  0  0  0  0  0  0  0  0
    3.3750    0.0087   -1.3104 N   0  0  0  0  0  0  0  0  0  0  0  0
    2.0395    0.0079   -1.2767 C   0  0  0  0  0  0  0  0  0  0  0  0
    1.2960   -0.0105   -2.4187 N   0  0  0  0  0  0  0  0  0  0  0  0
    1.8211    0.1379   -3.7332 C   0  0  0  0  0  0  0  0  0  0  0  0
    3.0380   -0.4270   -4.1222 C   0  0  0  0  0  0  0  0  0  0  0  0
    3.4837   -0.2745   -5.4329 C   0  0  0  0  0  0  0  0  0  0  0  0
    2.7027    0.4423   -6.3375 C   0  0  0  0  0  0  0  0  0  0  0  0
    3.0107    0.6808   -7.6377 O   0  0  0  0  0  0  0  0  0  0  0  0
    4.2457    0.1647   -8.1172 C   0  0  0  0  0  0  0  0  0  0  0  0
    1.4699    1.0055   -5.9584 C   0  0  0  0  0  0  0  0  0  0  0  0
    1.0327    0.8525   -4.6556 C   0  0  0  0  0  0  0  0  0  0  0  0
    0.2782    0.0385   -2.3134 H   0  0  0  0  0  0  0  0  0  0  0  0
    3.6532   -0.9866   -3.4105 H   0  0  0  0  0  0  0  0  0  0  0  0
    4.4337   -0.7116   -5.7264 H   0  0  0  0  0  0  0  0  0  0  0  0
    4.2602    0.5282   -9.1542 H   0  0  0  0  0  0  0  0  0  0  0  0
    4.2442   -0.9293   -8.0964 H   0  0  0  0  0  0  0  0  0  0  0  0
    5.0907    0.5785   -7.5575 H   0  0  0  0  0  0  0  0  0  0  0  0
    0.8843    1.5565   -6.6921 H   0  0  0  0  0  0  0  0  0  0  0  0
    0.0837    1.2922   -4.3489 H   0  0  0  0  0  0  0  0  0  0  0  0
  2  1  2  0  0  0  0
  2  3  1  0  0  0  0
  3  4  1  0  0  0  0
  5  3  1  0  0  0  0
  5  6  2  0  0  0  0
  7  6  1  0  0  0  0
  8  7  2  0  0  0  0
  9  8  1  0  0  0  0
  9  5  1  0  0  0  0
 10 11  2  0  0  0  0
 10  9  1  0  0  0  0
 11  2  1  0  0  0  0
 12 21  1  0  0  0  0
 12 11  1  0  0  0  0
 13 12  1  0  0  0  0
 14 13  1  0  0  0  0
 14 22  1  0  0  0  0
 15 14  2  0  0  0  0
 16 19  2  0  0  0  0
 16 15  1  0  0  0  0
 17 16  1  0  0  0  0
 18 25  1  0  0  0  0
 18 17  1  0  0  0  0
 18 26  1  0  0  0  0
 19 20  1  0  0  0  0
 20 28  1  0  0  0  0
 20 13  2  0  0  0  0
 23 15  1  0  0  0  0
 24 18  1  0  0  0  0
 27 19  1  0  0  0  0
M  END
$$$$
