28
rmsd36.gzmat
O          0.00000        0.00000        0.00000
C          1.20710        0.00000        0.00000
N          1.91680        0.00000        1.19960
H          1.43540       -0.00210        2.10120
C          3.29550        0.00650        1.16060
N          4.27100        0.00420        2.10950
N          5.44390        0.01540        1.44250
N          5.30790        0.02340        0.15380
N          3.96080        0.01960       -0.09590
N          3.37260        0.01770       -1.31580
C          2.03770        0.00650       -1.28010
N          1.28160       -0.02260       -2.41270
C          1.76050        0.09940       -3.74530
C          3.02390       -0.33470       -4.15140
C          3.39630       -0.22370       -5.49010
C          2.49420        0.31320       -6.40580
O          2.70780        0.46810       -7.73730
C          3.98340        0.09100       -8.23860
C          1.21910        0.75610       -6.00690
C          0.85730        0.65130       -4.67760
H          0.26360        0.01200       -2.28490
H          3.73410       -0.76420       -3.43740
H          4.38480       -0.55550       -5.79610
H          3.87490        0.29080       -9.31410
H          4.17710       -0.97190       -8.06510
H          4.77080        0.71880       -7.80910
H          0.54160        1.17710       -6.74740
H         -0.12360        1.00110       -4.35510
