rmsd4.gzmat
 OpenBabel08211713393D

 28 30  0  0  0  0  0  0  0  0999 V2000
    0.0000    0.0000    0.0000 O   0  0  0  0  0  0  0  0  0  0  0  0
    1.2070    0.0000    0.0000 C   0  0  0  0  0  0  0  0  0  0  0  0
    1.9162    0.0000    1.2006 N   0  0  0  0  0  0  0  0  0  0  0  0
    1.4341   -0.0026    2.1020 H   0  0  0  0  0  0  0  0  0  0  0  0
    3.2952   -0.0084    1.1633 C   0  0  0  0  0  0  0  0  0  0  0  0
    4.2694   -0.0201    2.1134 N   0  0  0  0  0  0  0  0  0  0  0  0
    5.4429   -0.0233    1.4479 N   0  0  0  0  0  0  0  0  0  0  0  0
    5.3089   -0.0160    0.1591 N   0  0  0  0  0  0  0  0  0  0  0  0
    3.9620   -0.0042   -0.0923 N   0  0  0  0  0  0  0  0  0  0  0  0
    3.3747   -0.0049   -1.3125 N   0  0  0  0  0  0  0  0  0  0  0  0
    2.0394   -0.0055   -1.2780 C   0  0  0  0  0  0  0  0  0  0  0  0
    1.2921    0.0181   -2.4171 N   0  0  0  0  0  0  0  0  0  0  0  0
    1.8043   -0.1351   -3.7357 C   0  0  0  0  0  0  0  0  0  0  0  0
    0.9980   -0.8439   -4.6476 C   0  0  0  0  0  0  0  0  0  0  0  0
    1.4103   -0.9884   -5.9590 C   0  0  0  0  0  0  0  0  0  0  0  0
    2.6370   -0.4243   -6.3568 C   0  0  0  0  0  0  0  0  0  0  0  0
    2.9139   -0.6471   -7.6665 O   0  0  0  0  0  0  0  0  0  0  0  0
    4.1146   -0.0878   -8.1827 C   0  0  0  0  0  0  0  0  0  0  0  0
    3.4415    0.2757   -5.4596 C   0  0  0  0  0  0  0  0  0  0  0  0
    3.0196    0.4220   -4.1399 C   0  0  0  0  0  0  0  0  0  0  0  0
    0.2742   -0.0270   -2.3066 H   0  0  0  0  0  0  0  0  0  0  0  0
    0.0539   -1.2838   -4.3256 H   0  0  0  0  0  0  0  0  0  0  0  0
    0.8094   -1.5315   -6.6863 H   0  0  0  0  0  0  0  0  0  0  0  0
    4.0851   -0.4117   -9.2329 H   0  0  0  0  0  0  0  0  0  0  0  0
    4.9924   -0.5067   -7.6799 H   0  0  0  0  0  0  0  0  0  0  0  0
    4.0952    1.0048   -8.1194 H   0  0  0  0  0  0  0  0  0  0  0  0
    4.3917    0.7042   -5.7646 H   0  0  0  0  0  0  0  0  0  0  0  0
    3.6507    0.9717   -3.4349 H   0  0  0  0  0  0  0  0  0  0  0  0
  2  1  2  0  0  0  0
  2  3  1  0  0  0  0
  3  4  1  0  0  0  0
  5  3  1  0  0  0  0
  5  6  2  0  0  0  0
  7  6  1  0  0  0  0
  8  7  2  0  0  0  0
  9  8  1  0  0  0  0
  9  5  1  0  0  0  0
 10 11  2  0  0  0  0
 10  9  1  0  0  0  0
 11  2  1  0  0  0  0
 12 21  1  0  0  0  0
 12 11  1  0  0  0  0
 13 12  1  0  0  0  0
 14 22  1  0  0  0  0
 14 13  2  0  0  0  0
 15 14  1  0  0  0  0
 16 15  2  0  0  0  0
 16 19  1  0  0  0  0
 17 16  1  0  0  0  0
 18 26  1  0  0  0  0
 18 25  1  0  0  0  0
 18 17  1  0  0  0  0
 19 20  2  0  0  0  0
 20 13  1  0  0  0  0
 20 28  1  0  0  0  0
 23 15  1  0  0  0  0
 24 18  1  0  0  0  0
 27 19  1  0  0  0  0
M  END
$$$$
