rmsd23.gzmat
 OpenBabel08211713393D

 28 30  0  0  0  0  0  0  0  0999 V2000
    0.0000    0.0000    0.0000 O   0  0  0  0  0  0  0  0  0  0  0  0
    1.2070    0.0000    0.0000 C   0  0  0  0  0  0  0  0  0  0  0  0
    1.9161    0.0000    1.2004 N   0  0  0  0  0  0  0  0  0  0  0  0
    1.4332    0.0009    2.1013 H   0  0  0  0  0  0  0  0  0  0  0  0
    3.2949    0.0082    1.1639 C   0  0  0  0  0  0  0  0  0  0  0  0
    4.2693    0.0130    2.1138 N   0  0  0  0  0  0  0  0  0  0  0  0
    5.4427    0.0229    1.4481 N   0  0  0  0  0  0  0  0  0  0  0  0
    5.3081    0.0238    0.1592 N   0  0  0  0  0  0  0  0  0  0  0  0
    3.9612    0.0147   -0.0917 N   0  0  0  0  0  0  0  0  0  0  0  0
    3.3735    0.0118   -1.3118 N   0  0  0  0  0  0  0  0  0  0  0  0
    2.0380    0.0052   -1.2773 C   0  0  0  0  0  0  0  0  0  0  0  0
    1.2886   -0.0169   -2.4147 N   0  0  0  0  0  0  0  0  0  0  0  0
    1.8000    0.0754   -3.7389 C   0  0  0  0  0  0  0  0  0  0  0  0
    3.0139   -0.5005   -4.1198 C   0  0  0  0  0  0  0  0  0  0  0  0
    3.4329   -0.4165   -5.4457 C   0  0  0  0  0  0  0  0  0  0  0  0
    2.6295    0.2440   -6.3729 C   0  0  0  0  0  0  0  0  0  0  0  0
    2.9045    0.4024   -7.6927 O   0  0  0  0  0  0  0  0  0  0  0  0
    4.1376   -0.1222   -8.1676 C   0  0  0  0  0  0  0  0  0  0  0  0
    1.4039    0.8266   -5.9994 C   0  0  0  0  0  0  0  0  0  0  0  0
    0.9931    0.7423   -4.6820 C   0  0  0  0  0  0  0  0  0  0  0  0
    0.2709    0.0336   -2.3035 H   0  0  0  0  0  0  0  0  0  0  0  0
    3.6487   -1.0175   -3.3933 H   0  0  0  0  0  0  0  0  0  0  0  0
    4.3801   -0.8641   -5.7323 H   0  0  0  0  0  0  0  0  0  0  0  0
    4.1167    0.1655   -9.2279 H   0  0  0  0  0  0  0  0  0  0  0  0
    4.1630   -1.2116   -8.0690 H   0  0  0  0  0  0  0  0  0  0  0  0
    4.9868    0.3488   -7.6626 H   0  0  0  0  0  0  0  0  0  0  0  0
    0.8030    1.3359   -6.7509 H   0  0  0  0  0  0  0  0  0  0  0  0
    0.0505    1.1972   -4.3772 H   0  0  0  0  0  0  0  0  0  0  0  0
  2  1  2  0  0  0  0
  2  3  1  0  0  0  0
  3  4  1  0  0  0  0
  5  3  1  0  0  0  0
  5  6  2  0  0  0  0
  7  6  1  0  0  0  0
  8  7  2  0  0  0  0
  9  8  1  0  0  0  0
  9  5  1  0  0  0  0
 10 11  2  0  0  0  0
 10  9  1  0  0  0  0
 11  2  1  0  0  0  0
 12 21  1  0  0  0  0
 12 11  1  0  0  0  0
 13 12  1  0  0  0  0
 14 13  1  0  0  0  0
 14 22  1  0  0  0  0
 15 14  2  0  0  0  0
 16 19  2  0  0  0  0
 16 15  1  0  0  0  0
 17 16  1  0  0  0  0
 18 25  1  0  0  0  0
 18 17  1  0  0  0  0
 18 26  1  0  0  0  0
 19 20  1  0  0  0  0
 20 28  1  0  0  0  0
 20 13  2  0  0  0  0
 23 15  1  0  0  0  0
 24 18  1  0  0  0  0
 27 19  1  0  0  0  0
M  END
$$$$
