
     RDKit          3D

 44 47  0  0  0  0  0  0  0  0999 V2000
    0.6018   -0.0635    0.7644 N   0  0  0  0  0  0  0  0  0  0  0  0
    1.8306   -0.3724    1.0050 C   0  0  0  0  0  0  0  0  0  0  0  0
    2.5976    0.1734    2.1304 C   0  0  0  0  0  0  0  0  0  0  0  0
    1.9454    0.6728    3.2920 C   0  0  0  0  0  0  0  0  0  0  0  0
    0.5414    0.7586    3.3824 N   0  0  0  0  0  0  0  0  0  0  0  0
   -0.2880   -0.3821    4.3525 S   0  0  0  0  0  0  0  0  0  0  0  0
    0.4680   -0.5203    5.5950 O   0  0  0  0  0  0  0  0  0  0  0  0
   -1.6868    0.0328    4.3180 O   0  0  0  0  0  0  0  0  0  0  0  0
   -0.1320   -1.8893    3.4022 C   0  0  0  0  0  0  0  0  0  0  0  0
    1.0959   -2.5589    3.3652 C   0  0  0  0  0  0  0  0  0  0  0  0
    1.2598   -3.6157    2.4710 C   0  0  0  0  0  0  0  0  0  0  0  0
    0.2107   -4.0313    1.6309 C   0  0  0  0  0  0  0  0  0  0  0  0
   -1.0215   -3.3681    1.7256 C   0  0  0  0  0  0  0  0  0  0  0  0
   -1.1976   -2.2924    2.5963 C   0  0  0  0  0  0  0  0  0  0  0  0
    0.4213   -5.1514    0.6466 C   0  0  0  0  0  0  0  0  0  0  0  0
    2.7165    1.0529    4.3999 C   0  0  0  0  0  0  0  0  0  0  0  0
    4.1051    0.9657    4.3614 C   0  0  0  0  0  0  0  0  0  0  0  0
    4.7543    0.5003    3.2109 C   0  0  0  0  0  0  0  0  0  0  0  0
    4.0038    0.1017    2.1109 C   0  0  0  0  0  0  0  0  0  0  0  0
    2.5315   -1.2892    0.2836 O   0  0  0  0  0  0  0  0  0  0  0  0
    1.9446   -2.0971   -0.6849 C   0  0  0  0  0  0  0  0  0  0  0  0
    2.6164   -2.9425   -1.2066 O   0  0  0  0  0  0  0  0  0  0  0  0
    0.5282   -1.8096   -0.9267 C   0  0  0  0  0  0  0  0  0  0  0  0
   -0.2006   -2.5938   -1.8306 C   0  0  0  0  0  0  0  0  0  0  0  0
   -1.5542   -2.3329   -2.0051 C   0  0  0  0  0  0  0  0  0  0  0  0
   -2.1829   -1.2847   -1.3077 C   0  0  0  0  0  0  0  0  0  0  0  0
   -1.4553   -0.5082   -0.4161 C   0  0  0  0  0  0  0  0  0  0  0  0
   -0.0902   -0.7703   -0.1994 C   0  0  0  0  0  0  0  0  0  0  0  0
   -2.5775   -3.4110   -3.1893 Br  0  0  0  0  0  0  0  0  0  0  0  0
    0.1055    0.7575    2.4518 H   0  0  0  0  0  0  0  0  0  0  0  0
    1.9104   -2.2446    4.0188 H   0  0  0  0  0  0  0  0  0  0  0  0
    2.2254   -4.1244    2.4146 H   0  0  0  0  0  0  0  0  0  0  0  0
   -1.8486   -3.6788    1.0830 H   0  0  0  0  0  0  0  0  0  0  0  0
   -2.1429   -1.7513    2.6485 H   0  0  0  0  0  0  0  0  0  0  0  0
   -0.4652   -5.3032    0.0149 H   0  0  0  0  0  0  0  0  0  0  0  0
    0.6373   -6.0996    1.1659 H   0  0  0  0  0  0  0  0  0  0  0  0
    1.2793   -4.9379   -0.0107 H   0  0  0  0  0  0  0  0  0  0  0  0
    2.1953    1.4086    5.2874 H   0  0  0  0  0  0  0  0  0  0  0  0
    4.6876    1.2716    5.2334 H   0  0  0  0  0  0  0  0  0  0  0  0
    5.8440    0.4431    3.1768 H   0  0  0  0  0  0  0  0  0  0  0  0
    4.4959   -0.2870    1.2193 H   0  0  0  0  0  0  0  0  0  0  0  0
    0.3044   -3.3978   -2.3660 H   0  0  0  0  0  0  0  0  0  0  0  0
   -3.2457   -1.0938   -1.4640 H   0  0  0  0  0  0  0  0  0  0  0  0
   -1.9317    0.2947    0.1484 H   0  0  0  0  0  0  0  0  0  0  0  0
  1  2  2  0
  1 28  1  0
  2  3  1  0
  2 20  1  0
  3  4  1  0
  3 19  2  0
  4  5  1  0
  4 16  2  0
  6  5  1  0
  5 30  1  0
  6  7  2  0
  6  8  2  0
  6  9  1  0
  9 10  2  0
  9 14  1  0
 10 11  1  0
 10 31  1  0
 11 12  2  0
 11 32  1  0
 12 13  1  0
 12 15  1  0
 13 14  2  0
 13 33  1  0
 14 34  1  0
 15 35  1  0
 15 36  1  0
 15 37  1  0
 16 17  1  0
 16 38  1  0
 17 18  2  0
 17 39  1  0
 18 19  1  0
 18 40  1  0
 19 41  1  0
 20 21  1  0
 21 22  2  0
 21 23  1  0
 23 24  1  0
 23 28  2  0
 24 25  2  0
 24 42  1  0
 25 26  1  0
 25 29  1  0
 26 27  2  0
 26 43  1  0
 27 28  1  0
 27 44  1  0
M  END

