44
rmsd151.gzmat
N          0.00000        0.00000        0.00000
C          1.30920        0.00000        0.00000
C          2.16060        0.00000        1.17660
C          1.66740       -0.10330        2.50850
N          0.32910       -0.31950        2.75540
S         -0.41710       -0.80170        4.27190
O          0.02190        0.10020        5.30390
O         -1.80380       -0.93800        3.90860
C          0.29990       -2.36910        4.56350
C          1.25720       -2.51560        5.56840
C          1.87100       -3.74660        5.77340
C          1.52530       -4.84500        4.97860
C          0.54630       -4.70090        3.99120
C         -0.06580       -3.46720        3.78620
C          2.21270       -6.14980        5.18050
C          2.59300       -0.00280        3.58040
C          3.94430        0.12130        3.33710
C          4.43640        0.16940        2.02410
C          3.55000        0.12430        0.96750
O          2.03460        0.01630       -1.15050
C          1.43270        0.05570       -2.41900
O          2.21090        0.04670       -3.32680
C         -0.01850        0.09990       -2.42680
C         -0.73060        0.18360       -3.63000
C         -2.11040        0.22750       -3.57230
C         -2.80850        0.18510       -2.35720
C         -2.11050        0.10080       -1.16650
C         -0.70080        0.06180       -1.19530
Br        -3.09610        0.35250       -5.18460
H         -0.31290       -0.21080        1.94850
H          1.53620       -1.66960        6.20900
H          2.62280       -3.85540        6.55200
H          0.26390       -5.55410        3.37820
H         -0.83480       -3.37860        3.01020
H          3.20800       -6.14450        4.70550
H          1.66070       -6.99730        4.75080
H          2.36910       -6.37840        6.24510
H          2.24080        0.02490        4.61210
H          4.64260        0.19370        4.17290
H          5.50440        0.25650        1.84740
H          3.93460        0.18840       -0.05780
H         -0.18090        0.21410       -4.57750
H         -3.90130        0.22010       -2.34270
H         -2.62340        0.06890       -0.20310
