rmsd154.gzmat
 OpenBabel08211713373D

 44 47  0  0  1  0  0  0  0  0999 V2000
    0.0000    0.0000    0.0000 N   0  0  0  0  0  0  0  0  0  0  0  0
    1.3094    0.0000    0.0000 C   0  0  0  0  0  0  0  0  0  0  0  0
    2.1603    0.0000    1.1767 C   0  0  0  0  0  0  0  0  0  0  0  0
    1.6653   -0.0339    2.5120 C   0  0  0  0  0  0  0  0  0  0  0  0
    0.3134   -0.1149    2.7652 N   0  0  0  0  0  0  0  0  0  0  0  0
   -0.4807   -0.4894    4.2872 S   0  0  0  0  0  0  0  0  0  0  0  0
    0.0940    0.3300    5.3210 O   0  0  0  0  0  0  0  0  0  0  0  0
   -1.8755   -0.4198    3.9370 O   0  0  0  0  0  0  0  0  0  0  0  0
   -0.0036   -2.1484    4.5604 C   0  0  0  0  0  0  0  0  0  0  0  0
    0.8975   -2.4544    5.5805 C   0  0  0  0  0  0  0  0  0  0  0  0
    1.2954   -3.7711    5.7875 C   0  0  0  0  0  0  0  0  0  0  0  0
    0.7914   -4.7937    4.9771 C   0  0  0  0  0  0  0  0  0  0  0  0
   -0.1163   -4.4838    3.9599 C   0  0  0  0  0  0  0  0  0  0  0  0
   -0.5145   -3.1662    3.7547 C   0  0  0  0  0  0  0  0  0  0  0  0
    1.2314   -6.1992    5.1911 C   0  0  0  0  0  0  0  0  0  0  0  0
    2.6004    0.0009    3.5800 C   0  0  0  0  0  0  0  0  0  0  0  0
    3.9558    0.0255    3.3311 C   0  0  0  0  0  0  0  0  0  0  0  0
    4.4450    0.0327    2.0158 C   0  0  0  0  0  0  0  0  0  0  0  0
    3.5540    0.0320    0.9628 C   0  0  0  0  0  0  0  0  0  0  0  0
    2.0334    0.0010   -1.1514 O   0  0  0  0  0  0  0  0  0  0  0  0
    1.4304    0.0075   -2.4202 C   0  0  0  0  0  0  0  0  0  0  0  0
    2.2083    0.0079   -3.3282 O   0  0  0  0  0  0  0  0  0  0  0  0
   -0.0216    0.0099   -2.4286 C   0  0  2  0  0  0  0  0  0  0  0  0
   -0.7361    0.0157   -3.6334 C   0  0  0  0  0  0  0  0  0  0  0  0
   -2.1166    0.0203   -3.5758 C   0  0  0  0  0  0  0  0  0  0  0  0
   -2.8132    0.0245   -2.3590 C   0  0  0  0  0  0  0  0  0  0  0  0
   -2.1130    0.0176   -1.1666 C   0  0  0  0  0  0  0  0  0  0  0  0
   -0.7021    0.0083   -1.1958 C   0  0  0  0  0  0  0  0  0  0  0  0
   -3.1059    0.0206   -5.1908 Br  0  0  0  0  0  0  0  0  0  0  0  0
   -0.3160    0.0132    1.9504 H   0  0  0  0  0  0  0  0  0  0  0  0
    1.2993   -1.6686    6.2326 H   0  0  0  0  0  0  0  0  0  0  0  0
    2.0011   -4.0061    6.5808 H   0  0  0  0  0  0  0  0  0  0  0  0
   -0.5116   -5.2744    3.3256 H   0  0  0  0  0  0  0  0  0  0  0  0
   -1.2338   -2.9482    2.9569 H   0  0  0  0  0  0  0  0  0  0  0  0
    2.1832   -6.3949    4.6703 H   0  0  0  0  0  0  0  0  0  0  0  0
    0.5055   -6.9340    4.8150 H   0  0  0  0  0  0  0  0  0  0  0  0
    1.3962   -6.4304    6.2535 H   0  0  0  0  0  0  0  0  0  0  0  0
    2.2557    0.0533    4.6137 H   0  0  0  0  0  0  0  0  0  0  0  0
    4.6622    0.0493    4.1630 H   0  0  0  0  0  0  0  0  0  0  0  0
    5.5157    0.0491    1.8350 H   0  0  0  0  0  0  0  0  0  0  0  0
    3.9383    0.0558   -0.0645 H   0  0  0  0  0  0  0  0  0  0  0  0
   -0.1884    0.0174   -4.5825 H   0  0  0  0  0  0  0  0  0  0  0  0
   -3.9065    0.0350   -2.3440 H   0  0  0  0  0  0  0  0  0  0  0  0
   -2.6254    0.0218   -0.2026 H   0  0  0  0  0  0  0  0  0  0  0  0
  1  2  2  0  0  0  0
  2  3  1  0  0  0  0
  3  4  1  0  0  0  0
  4  5  1  0  0  0  0
  4 16  2  0  0  0  0
  5  6  1  0  0  0  0
  6  9  1  0  0  0  0
  6  7  2  0  0  0  0
  8  6  2  0  0  0  0
  9 10  2  0  0  0  0
 10 11  1  0  0  0  0
 10 31  1  0  0  0  0
 11 32  1  0  0  0  0
 12 15  1  0  0  0  0
 12 11  2  0  0  0  0
 13 12  1  0  0  0  0
 14 13  2  0  0  0  0
 14  9  1  0  0  0  0
 15 37  1  0  0  0  0
 16 38  1  0  0  0  0
 17 16  1  0  0  0  0
 17 39  1  0  0  0  0
 18 17  2  0  0  0  0
 19  3  2  0  0  0  0
 19 18  1  0  0  0  0
 20  2  1  0  0  0  0
 21 20  1  0  0  0  0
 22 21  2  0  0  0  0
 23 24  1  1  0  0  0
 23 21  1  0  0  0  0
 23 28  1  0  0  0  0
 24 25  2  0  0  0  0
 25 26  1  0  0  0  0
 26 43  1  0  0  0  0
 26 27  2  0  0  0  0
 27 44  1  0  0  0  0
 28 27  1  0  0  0  0
 28  1  2  0  0  0  0
 29 25  1  0  0  0  0
 30  5  1  0  0  0  0
 33 13  1  0  0  0  0
 34 14  1  0  0  0  0
 35 15  1  0  0  0  0
 36 15  1  0  0  0  0
 40 18  1  0  0  0  0
 41 19  1  0  0  0  0
 42 24  1  0  0  0  0
M  RAD  1  23   2
M  END
$$$$
