44
rmsd140.gzmat
N          0.00000        0.00000        0.00000
C          1.30910        0.00000        0.00000
C          2.16030        0.00000        1.17670
C          1.66880        0.11740        2.50820
N          0.32180        0.27330        2.75770
S         -0.43090        0.88230        4.22430
O         -1.83300        0.85270        3.89700
O          0.11300        0.16770        5.34870
C          0.14320        2.53170        4.27540
C         -0.42770        3.49700        3.44660
C          0.05550        4.80260        3.46160
C          1.11310        5.15090        4.30620
C          1.67270        4.18290        5.14770
C          1.18580        2.88030        5.13510
C          1.64780        6.53970        4.32190
C          2.60120        0.08210        3.57800
C          3.95380       -0.02050        3.33240
C          4.44120       -0.11050        2.01970
C          3.55030       -0.11330        0.96610
O          2.03470        0.00020       -1.15090
C          1.43260       -0.00500       -2.41990
O          2.21120       -0.00970       -3.32720
C         -0.01950       -0.00280       -2.42900
C         -0.73380       -0.00240       -3.63400
C         -2.11450       -0.00670       -3.57720
C         -2.81130       -0.01510       -2.36090
C         -2.11120       -0.01300       -1.16840
C         -0.70100       -0.00460       -1.19680
Br        -3.10310       -0.00520       -5.19250
H         -0.31630        0.10480        1.95840
H         -1.25980        3.24710        2.77730
H         -0.39140        5.55220        2.81210
H          2.49110        4.45020        5.81240
H          1.63140        2.14030        5.81110
H          2.73020        6.55810        4.11890
H          1.49860        7.01630        5.30340
H          1.17390        7.19310        3.57620
H          2.25310        0.08770        4.61280
H          4.65740       -0.04360        4.16640
H          5.50960       -0.18810        1.84120
H          3.93160       -0.20490       -0.05830
H         -0.18580        0.00050       -4.58270
H         -3.90470       -0.02370       -2.34720
H         -2.62250       -0.02010       -0.20390
