44
rmsd141.gzmat
N          0.00000        0.00000        0.00000
C          1.30920        0.00000        0.00000
C          2.16170        0.00000        1.17590
C          1.67030        0.07760        2.50990
N          0.32170        0.20770        2.76580
S         -0.42930        0.77560        4.25010
O         -1.82890        0.78720        3.91180
O          0.08920        0.00810        5.35130
C          0.18470        2.40760        4.36740
C         -0.30230        3.40090        3.51830
C          0.21460        4.69170        3.58740
C          1.21950        4.99760        4.50960
C          1.69660        4.00060        5.36800
C          1.17810        2.71220        5.29890
C          1.78480        6.37230        4.58950
C          2.60420        0.03050        3.57800
C          3.95820       -0.03940        3.32940
C          4.44600       -0.08370        2.01430
C          3.55410       -0.07770        0.96160
O          2.03470       -0.00260       -1.15070
C          1.43340       -0.02040       -2.41990
O          2.21240       -0.01510       -3.32690
C         -0.01850       -0.03770       -2.42910
C         -0.73170       -0.06760       -3.63430
C         -2.11240       -0.08100       -3.57830
C         -2.81020       -0.06450       -2.36270
C         -2.11110       -0.03230       -1.16990
C         -0.70070       -0.02170       -1.19700
Br        -3.09940       -0.12320       -5.19420
H         -0.31630        0.05930        1.96260
H         -1.09290        3.18440        2.79030
H         -0.16430        5.46230        2.91950
H          2.47690        4.23450        6.08880
H          1.56060        1.94770        5.98670
H          2.87350        6.37110        4.42230
H          1.61340        6.81960        5.58150
H          1.35160        7.06080        3.85060
H          2.25690        0.00100        4.61250
H          4.66300       -0.07120        4.16210
H          5.51560       -0.13390        1.83260
H          3.93660       -0.13380       -0.06490
H         -0.18290       -0.07900       -4.58250
H         -3.90350       -0.07770       -2.34960
H         -2.62430       -0.01620       -0.20630
