rmsd141.gzmat
 OpenBabel08211713373D

 44 47  0  0  1  0  0  0  0  0999 V2000
    0.0000    0.0000    0.0000 N   0  0  0  0  0  0  0  0  0  0  0  0
    1.3092    0.0000    0.0000 C   0  0  0  0  0  0  0  0  0  0  0  0
    2.1617    0.0000    1.1759 C   0  0  0  0  0  0  0  0  0  0  0  0
    1.6703    0.0776    2.5099 C   0  0  0  0  0  0  0  0  0  0  0  0
    0.3217    0.2077    2.7658 N   0  0  0  0  0  0  0  0  0  0  0  0
   -0.4293    0.7756    4.2501 S   0  0  0  0  0  0  0  0  0  0  0  0
   -1.8289    0.7872    3.9118 O   0  0  0  0  0  0  0  0  0  0  0  0
    0.0892    0.0081    5.3513 O   0  0  0  0  0  0  0  0  0  0  0  0
    0.1847    2.4076    4.3674 C   0  0  0  0  0  0  0  0  0  0  0  0
   -0.3023    3.4009    3.5183 C   0  0  0  0  0  0  0  0  0  0  0  0
    0.2146    4.6917    3.5874 C   0  0  0  0  0  0  0  0  0  0  0  0
    1.2195    4.9976    4.5096 C   0  0  0  0  0  0  0  0  0  0  0  0
    1.6966    4.0006    5.3680 C   0  0  0  0  0  0  0  0  0  0  0  0
    1.1781    2.7122    5.2989 C   0  0  0  0  0  0  0  0  0  0  0  0
    1.7848    6.3723    4.5895 C   0  0  0  0  0  0  0  0  0  0  0  0
    2.6042    0.0305    3.5780 C   0  0  0  0  0  0  0  0  0  0  0  0
    3.9582   -0.0394    3.3294 C   0  0  0  0  0  0  0  0  0  0  0  0
    4.4460   -0.0837    2.0143 C   0  0  0  0  0  0  0  0  0  0  0  0
    3.5541   -0.0777    0.9616 C   0  0  0  0  0  0  0  0  0  0  0  0
    2.0347   -0.0026   -1.1507 O   0  0  0  0  0  0  0  0  0  0  0  0
    1.4334   -0.0204   -2.4199 C   0  0  0  0  0  0  0  0  0  0  0  0
    2.2124   -0.0151   -3.3269 O   0  0  0  0  0  0  0  0  0  0  0  0
   -0.0185   -0.0377   -2.4291 C   0  0  2  0  0  0  0  0  0  0  0  0
   -0.7317   -0.0676   -3.6343 C   0  0  0  0  0  0  0  0  0  0  0  0
   -2.1124   -0.0810   -3.5783 C   0  0  0  0  0  0  0  0  0  0  0  0
   -2.8102   -0.0645   -2.3627 C   0  0  0  0  0  0  0  0  0  0  0  0
   -2.1111   -0.0323   -1.1699 C   0  0  0  0  0  0  0  0  0  0  0  0
   -0.7007   -0.0217   -1.1970 C   0  0  0  0  0  0  0  0  0  0  0  0
   -3.0994   -0.1232   -5.1942 Br  0  0  0  0  0  0  0  0  0  0  0  0
   -0.3163    0.0593    1.9626 H   0  0  0  0  0  0  0  0  0  0  0  0
   -1.0929    3.1844    2.7903 H   0  0  0  0  0  0  0  0  0  0  0  0
   -0.1643    5.4623    2.9195 H   0  0  0  0  0  0  0  0  0  0  0  0
    2.4769    4.2345    6.0888 H   0  0  0  0  0  0  0  0  0  0  0  0
    1.5606    1.9477    5.9867 H   0  0  0  0  0  0  0  0  0  0  0  0
    2.8735    6.3711    4.4223 H   0  0  0  0  0  0  0  0  0  0  0  0
    1.6134    6.8196    5.5815 H   0  0  0  0  0  0  0  0  0  0  0  0
    1.3516    7.0608    3.8506 H   0  0  0  0  0  0  0  0  0  0  0  0
    2.2569    0.0010    4.6125 H   0  0  0  0  0  0  0  0  0  0  0  0
    4.6630   -0.0712    4.1621 H   0  0  0  0  0  0  0  0  0  0  0  0
    5.5156   -0.1339    1.8326 H   0  0  0  0  0  0  0  0  0  0  0  0
    3.9366   -0.1338   -0.0649 H   0  0  0  0  0  0  0  0  0  0  0  0
   -0.1829   -0.0790   -4.5825 H   0  0  0  0  0  0  0  0  0  0  0  0
   -3.9035   -0.0777   -2.3496 H   0  0  0  0  0  0  0  0  0  0  0  0
   -2.6243   -0.0162   -0.2063 H   0  0  0  0  0  0  0  0  0  0  0  0
  1  2  2  0  0  0  0
  2  3  1  0  0  0  0
  3  4  1  0  0  0  0
  4  5  1  0  0  0  0
  4 16  2  0  0  0  0
  5  6  1  0  0  0  0
  6  9  1  0  0  0  0
  6  8  2  0  0  0  0
  7  6  2  0  0  0  0
  9 14  2  0  0  0  0
 10 11  2  0  0  0  0
 10  9  1  0  0  0  0
 11 12  1  0  0  0  0
 12 15  1  0  0  0  0
 12 13  2  0  0  0  0
 13 33  1  0  0  0  0
 14 13  1  0  0  0  0
 14 34  1  0  0  0  0
 15 36  1  0  0  0  0
 16 38  1  0  0  0  0
 17 16  1  0  0  0  0
 17 39  1  0  0  0  0
 18 17  2  0  0  0  0
 19  3  2  0  0  0  0
 19 18  1  0  0  0  0
 20  2  1  0  0  0  0
 21 20  1  0  0  0  0
 22 21  2  0  0  0  0
 23 24  1  6  0  0  0
 23 21  1  0  0  0  0
 23 28  1  0  0  0  0
 24 25  2  0  0  0  0
 25 26  1  0  0  0  0
 26 43  1  0  0  0  0
 26 27  2  0  0  0  0
 27 44  1  0  0  0  0
 28 27  1  0  0  0  0
 28  1  2  0  0  0  0
 29 25  1  0  0  0  0
 30  5  1  0  0  0  0
 31 10  1  0  0  0  0
 32 11  1  0  0  0  0
 35 15  1  0  0  0  0
 37 15  1  0  0  0  0
 40 18  1  0  0  0  0
 41 19  1  0  0  0  0
 42 24  1  0  0  0  0
M  RAD  1  23   2
M  END
$$$$
