44

N          0.52770        0.02400        0.71350
C          1.75800        0.35120        0.91950
C          2.55970       -0.17130        2.03170
C          1.94320       -0.66520        3.21490
N          0.54300       -0.76770        3.34130
S         -0.27670        0.37400        4.31860
O         -1.67060       -0.05810        4.32250
O          0.50730        0.53550        5.54080
C         -0.16210        1.87200        3.34790
C         -1.25150        2.25280        2.56340
C         -1.10960        3.32040        1.67670
C          0.11160        3.99750        1.54510
C          1.18560        3.60430        2.36440
C          1.05620        2.55600        3.27400
C          0.28490        5.10830        0.54320
C          2.74650       -1.02230        4.30750
C          4.13240       -0.91770        4.23340
C          4.74670       -0.45770        3.06180
C          3.96400       -0.08190        1.97630
O          2.42880        1.26780        0.16990
C          1.80770        2.05650       -0.79300
O          2.45540        2.90370       -1.34150
C          0.38940        1.74860       -0.99550
C         -0.37180        2.51270       -1.88980
C         -1.72590        2.23270       -2.02720
C         -2.32340        1.18510       -1.30210
C         -1.56380        0.42850       -0.42010
C         -0.19720        0.71040       -0.24080
Br        -2.79230        3.28340       -3.19790
H          0.08430       -0.78280        2.42190
H         -2.18850        1.70090        2.64420
H         -1.95560        3.61370        1.05060
H          2.14310        4.12420        2.27930
H          1.88990        2.25910        3.91130
H          1.12610        4.89480       -0.13540
H          0.50690        6.06400        1.04590
H         -0.62010        5.24550       -0.06530
H          2.25210       -1.37400        5.21180
H          4.74040       -1.20580        5.09400
H          5.83440       -0.38700        2.99980
H          4.42870        0.30250        1.06820
H          0.10920        3.31640       -2.44720
H         -3.38720        0.97890       -1.42930
H         -2.01560       -0.37360        0.16560
