44
rmsd125.gzmat
N          0.00000        0.00000        0.00000
C          1.30910        0.00000        0.00000
C          2.15890        0.00000        1.17780
C          1.66110        0.06840        2.50960
N          0.30790        0.16230        2.76300
S         -0.45220        0.82750        4.20120
O         -1.85620        0.73940        3.89370
O          0.12350        0.19400        5.35780
C          0.07690        2.49210        4.14440
C         -0.55360        3.39610        3.28970
C         -0.10220        4.71010        3.20960
C          0.98300        5.12970        3.98520
C          1.60140        4.22430        4.85340
C          1.14730        2.91190        4.93410
C          1.46960        6.53390        3.90180
C          2.59030        0.03670        3.58190
C          3.94600       -0.01790        3.33910
C          4.43970       -0.05570        2.02600
C          3.55260       -0.06080        0.96920
O          2.03420        0.00240       -1.15060
C          1.43150       -0.01230       -2.41940
O          2.20980       -0.00940       -3.32710
C         -0.02050       -0.02610       -2.42830
C         -0.73500       -0.05210       -3.63290
C         -2.11540       -0.06720       -3.57550
C         -2.81180       -0.05430       -2.35900
C         -2.11140       -0.02590       -1.16700
C         -0.70140       -0.01480       -1.19640
Br        -3.10610       -0.10880       -5.18920
H         -0.32290       -0.01620        1.96060
H         -1.40840        3.08960        2.67550
H         -0.59540        5.41140        2.54040
H          2.44000        4.54690        5.46620
H          1.64120        2.22030        5.62740
H          2.55860        6.61000        4.03660
H          1.00590        7.15680        4.68380
H          1.23640        7.00720        2.93710
H          2.23610        0.00430        4.61510
H          4.64750       -0.04340        4.17460
H          5.51080       -0.09170        1.84970
H          3.93950       -0.11220       -0.05590
H         -0.18700       -0.06200       -4.58170
H         -3.90480       -0.06850       -2.34480
H         -2.62310       -0.01570       -0.20290
