
     RDKit          3D

 44 47  0  0  0  0  0  0  0  0999 V2000
    0.5277    0.0240    0.7135 N   0  0  0  0  0  0  0  0  0  0  0  0
    1.7580    0.3512    0.9195 C   0  0  0  0  0  0  0  0  0  0  0  0
    2.5597   -0.1713    2.0317 C   0  0  0  0  0  0  0  0  0  0  0  0
    1.9432   -0.6652    3.2149 C   0  0  0  0  0  0  0  0  0  0  0  0
    0.5430   -0.7677    3.3413 N   0  0  0  0  0  0  0  0  0  0  0  0
   -0.2767    0.3740    4.3186 S   0  0  0  0  0  0  0  0  0  0  0  0
   -1.6706   -0.0581    4.3225 O   0  0  0  0  0  0  0  0  0  0  0  0
    0.5073    0.5355    5.5408 O   0  0  0  0  0  0  0  0  0  0  0  0
   -0.1621    1.8720    3.3479 C   0  0  0  0  0  0  0  0  0  0  0  0
   -1.2515    2.2528    2.5634 C   0  0  0  0  0  0  0  0  0  0  0  0
   -1.1096    3.3204    1.6767 C   0  0  0  0  0  0  0  0  0  0  0  0
    0.1116    3.9975    1.5451 C   0  0  0  0  0  0  0  0  0  0  0  0
    1.1856    3.6043    2.3644 C   0  0  0  0  0  0  0  0  0  0  0  0
    1.0562    2.5560    3.2740 C   0  0  0  0  0  0  0  0  0  0  0  0
    0.2849    5.1083    0.5432 C   0  0  0  0  0  0  0  0  0  0  0  0
    2.7465   -1.0223    4.3075 C   0  0  0  0  0  0  0  0  0  0  0  0
    4.1324   -0.9177    4.2334 C   0  0  0  0  0  0  0  0  0  0  0  0
    4.7467   -0.4577    3.0618 C   0  0  0  0  0  0  0  0  0  0  0  0
    3.9640   -0.0819    1.9763 C   0  0  0  0  0  0  0  0  0  0  0  0
    2.4288    1.2678    0.1699 O   0  0  0  0  0  0  0  0  0  0  0  0
    1.8077    2.0565   -0.7930 C   0  0  0  0  0  0  0  0  0  0  0  0
    2.4554    2.9037   -1.3415 O   0  0  0  0  0  0  0  0  0  0  0  0
    0.3894    1.7486   -0.9955 C   0  0  0  0  0  0  0  0  0  0  0  0
   -0.3718    2.5127   -1.8898 C   0  0  0  0  0  0  0  0  0  0  0  0
   -1.7259    2.2327   -2.0272 C   0  0  0  0  0  0  0  0  0  0  0  0
   -2.3234    1.1851   -1.3021 C   0  0  0  0  0  0  0  0  0  0  0  0
   -1.5638    0.4285   -0.4201 C   0  0  0  0  0  0  0  0  0  0  0  0
   -0.1972    0.7104   -0.2408 C   0  0  0  0  0  0  0  0  0  0  0  0
   -2.7923    3.2834   -3.1979 Br  0  0  0  0  0  0  0  0  0  0  0  0
    0.0843   -0.7828    2.4219 H   0  0  0  0  0  0  0  0  0  0  0  0
   -2.1885    1.7009    2.6442 H   0  0  0  0  0  0  0  0  0  0  0  0
   -1.9556    3.6137    1.0506 H   0  0  0  0  0  0  0  0  0  0  0  0
    2.1431    4.1242    2.2793 H   0  0  0  0  0  0  0  0  0  0  0  0
    1.8899    2.2591    3.9113 H   0  0  0  0  0  0  0  0  0  0  0  0
    1.1261    4.8948   -0.1354 H   0  0  0  0  0  0  0  0  0  0  0  0
    0.5069    6.0640    1.0459 H   0  0  0  0  0  0  0  0  0  0  0  0
   -0.6201    5.2455   -0.0653 H   0  0  0  0  0  0  0  0  0  0  0  0
    2.2521   -1.3740    5.2118 H   0  0  0  0  0  0  0  0  0  0  0  0
    4.7404   -1.2058    5.0940 H   0  0  0  0  0  0  0  0  0  0  0  0
    5.8344   -0.3870    2.9998 H   0  0  0  0  0  0  0  0  0  0  0  0
    4.4287    0.3025    1.0682 H   0  0  0  0  0  0  0  0  0  0  0  0
    0.1092    3.3164   -2.4472 H   0  0  0  0  0  0  0  0  0  0  0  0
   -3.3872    0.9789   -1.4293 H   0  0  0  0  0  0  0  0  0  0  0  0
   -2.0156   -0.3736    0.1656 H   0  0  0  0  0  0  0  0  0  0  0  0
  1  2  2  0
  1 28  1  0
  2  3  1  0
  2 20  1  0
  3  4  1  0
  3 19  2  0
  4  5  1  0
  4 16  2  0
  6  5  1  0
  5 30  1  0
  6  7  2  0
  6  8  2  0
  6  9  1  0
  9 10  2  0
  9 14  1  0
 10 11  1  0
 10 31  1  0
 11 12  2  0
 11 32  1  0
 12 13  1  0
 12 15  1  0
 13 14  2  0
 13 33  1  0
 14 34  1  0
 15 35  1  0
 15 36  1  0
 15 37  1  0
 16 17  1  0
 16 38  1  0
 17 18  2  0
 17 39  1  0
 18 19  1  0
 18 40  1  0
 19 41  1  0
 20 21  1  0
 21 22  2  0
 21 23  1  0
 23 24  1  0
 23 28  2  0
 24 25  2  0
 24 42  1  0
 25 26  1  0
 25 29  1  0
 26 27  2  0
 26 43  1  0
 27 28  1  0
 27 44  1  0
M  END

