rmsd33.gzmat
 OpenBabel08211713363D

 33 35  0  0  1  0  0  0  0  0999 V2000
    0.0000    0.0000    0.0000 O   0  0  0  0  0  0  0  0  0  0  0  0
    1.4077    0.0000    0.0000 C   0  0  0  0  0  0  0  0  0  0  0  0
    1.9630    0.0000    1.4273 C   0  0  1  0  0  0  0  0  0  0  0  0
    3.0403   -0.2974    1.4356 H   0  0  0  0  0  0  0  0  0  0  0  0
    1.9757    1.3422    1.9091 O   0  0  0  0  0  0  0  0  0  0  0  0
    1.0999    1.5299    2.9992 C   0  0  2  0  0  0  0  0  0  0  0  0
    1.6801    2.1624    3.7224 H   0  0  0  0  0  0  0  0  0  0  0  0
    0.7501    0.1250    3.5615 C   0  0  1  0  0  0  0  0  0  0  0  0
   -0.2945    0.0243    3.9161 H   0  0  0  0  0  0  0  0  0  0  0  0
    1.1435   -0.8491    2.4159 C   0  0  2  0  0  0  0  0  0  0  0  0
    0.2696   -1.3485    1.9482 H   0  0  0  0  0  0  0  0  0  0  0  0
    2.0384   -1.8257    2.8970 O   0  0  0  0  0  0  0  0  0  0  0  0
    1.5016   -0.1047    4.7163 O   0  0  0  0  0  0  0  0  0  0  0  0
   -0.0582    2.2706    2.5264 N   0  0  0  0  0  0  0  0  0  0  0  0
   -1.3307    1.7755    2.1235 C   0  0  0  0  0  0  0  0  0  0  0  0
   -2.0471    2.7107    1.5137 N   0  0  0  0  0  0  0  0  0  0  0  0
   -1.2508    3.8565    1.4673 C   0  0  0  0  0  0  0  0  0  0  0  0
   -1.4815    5.1480    0.9235 C   0  0  0  0  0  0  0  0  0  0  0  0
   -2.6383    5.4687    0.2784 N   0  0  0  0  0  0  0  0  0  0  0  0
   -0.5233    6.1123    1.0229 N   0  0  0  0  0  0  0  0  0  0  0  0
    0.6475    5.8269    1.6356 C   0  0  0  0  0  0  0  0  0  0  0  0
    0.9850    4.5918    2.1891 C   0  0  0  0  0  0  0  0  0  0  0  0
    0.0086    3.5972    2.0928 C   0  0  0  0  0  0  0  0  0  0  0  0
   -0.3427    0.8888    0.2315 H   0  0  0  0  0  0  0  0  0  0  0  0
    1.7888    0.8657   -0.5739 H   0  0  0  0  0  0  0  0  0  0  0  0
    1.6621   -0.9401   -0.5291 H   0  0  0  0  0  0  0  0  0  0  0  0
    1.6142   -2.3644    3.6016 H   0  0  0  0  0  0  0  0  0  0  0  0
    2.4481   -0.2922    4.4913 H   0  0  0  0  0  0  0  0  0  0  0  0
   -1.6579    0.7693    2.3332 H   0  0  0  0  0  0  0  0  0  0  0  0
   -2.7742    6.3876   -0.0904 H   0  0  0  0  0  0  0  0  0  0  0  0
   -3.3752    4.7956    0.2105 H   0  0  0  0  0  0  0  0  0  0  0  0
    1.3502    6.6730    1.6672 H   0  0  0  0  0  0  0  0  0  0  0  0
    1.9451    4.4183    2.6519 H   0  0  0  0  0  0  0  0  0  0  0  0
  1 24  1  0  0  0  0
  2  1  1  0  0  0  0
  2  3  1  0  0  0  0
  3  4  1  6  0  0  0
  3  5  1  0  0  0  0
  3 10  1  0  0  0  0
  5  6  1  0  0  0  0
  6  8  1  0  0  0  0
  6  7  1  1  0  0  0
  8 10  1  0  0  0  0
  8  9  1  1  0  0  0
  8 13  1  0  0  0  0
 10 11  1  6  0  0  0
 10 12  1  0  0  0  0
 12 27  1  0  0  0  0
 14  6  1  0  0  0  0
 15 29  1  0  0  0  0
 15 14  1  0  0  0  0
 16 15  2  0  0  0  0
 17 16  2  0  0  0  0
 17 23  1  0  0  0  0
 18 20  2  0  0  0  0
 18 17  1  0  0  0  0
 19 18  1  0  0  0  0
 20 21  2  0  0  0  0
 21 32  1  0  0  0  0
 21 22  1  0  0  0  0
 22 33  1  0  0  0  0
 23 22  2  0  0  0  0
 23 14  1  0  0  0  0
 25  2  1  0  0  0  0
 26  2  1  0  0  0  0
 28 13  1  0  0  0  0
 30 19  1  0  0  0  0
 31 19  1  0  0  0  0
M  END
$$$$
