33
rmsd27.gzmat
O          0.00000        0.00000        0.00000
C          1.40870        0.00000        0.00000
C          1.95640        0.00000        1.43120
H          3.01490       -0.35070        1.47310
O          2.04110        1.34670        1.90170
C          1.02190        1.64670        2.82330
H          1.52140        2.22630        3.64160
C          0.39910        0.30220        3.30510
H         -0.71160        0.28400        3.26640
C          1.05380       -0.77740        2.40170
H          0.30740       -1.42040        1.88980
O          1.92440       -1.57910        3.16900
O          0.68990        0.11330        4.65530
N          0.05410        2.49060        2.12260
C          0.29760        3.17120        0.89980
N         -0.76400        3.87220        0.52030
C         -1.73460        3.68990        1.50640
C         -3.05830        4.19200        1.63270
N         -3.60980        5.02000        0.70100
N         -3.81750        3.85540        2.71210
C         -3.29280        3.05950        3.67180
C         -2.00860        2.51830        3.65520
C         -1.22940        2.83520        2.53700
H         -0.34210        0.86340        0.31600
H          1.78900        0.86010       -0.58020
H          1.66160       -0.94050       -0.52890
H          1.41080       -2.19580        3.73660
H          1.64280       -0.12690        4.77900
H          1.24490        3.10500        0.38510
H         -4.55370        5.33380        0.79540
H         -3.08840        5.26490       -0.11730
H         -3.98100        2.85730        4.50590
H         -1.63860        1.91270        4.47090
