rmsd9.gzmat
 OpenBabel08211713363D

 33 35  0  0  1  0  0  0  0  0999 V2000
    0.0000    0.0000    0.0000 O   0  0  0  0  0  0  0  0  0  0  0  0
    1.4091    0.0000    0.0000 C   0  0  0  0  0  0  0  0  0  0  0  0
    1.9535    0.0000    1.4325 C   0  0  1  0  0  0  0  0  0  0  0  0
    3.0068   -0.3661    1.4740 H   0  0  0  0  0  0  0  0  0  0  0  0
    2.0596    1.3467    1.8970 O   0  0  0  0  0  0  0  0  0  0  0  0
    1.0184    1.6804    2.7781 C   0  0  2  0  0  0  0  0  0  0  0  0
    1.4972    2.3286    3.5573 H   0  0  0  0  0  0  0  0  0  0  0  0
    0.4455    0.3459    3.3425 C   0  0  1  0  0  0  0  0  0  0  0  0
   -0.6595    0.3095    3.4055 H   0  0  0  0  0  0  0  0  0  0  0  0
    1.0438   -0.7523    2.4171 C   0  0  2  0  0  0  0  0  0  0  0  0
    0.2666   -1.3668    1.9171 H   0  0  0  0  0  0  0  0  0  0  0  0
    1.9019   -1.5884    3.1605 O   0  0  0  0  0  0  0  0  0  0  0  0
    0.8567    0.1983    4.6675 O   0  0  0  0  0  0  0  0  0  0  0  0
    0.0240    2.4498    2.0294 N   0  0  0  0  0  0  0  0  0  0  0  0
   -1.3746    2.5400    2.2637 C   0  0  0  0  0  0  0  0  0  0  0  0
   -1.9595    3.3545    1.3949 N   0  0  0  0  0  0  0  0  0  0  0  0
   -0.9512    3.8396    0.5624 C   0  0  0  0  0  0  0  0  0  0  0  0
   -0.9875    4.7392   -0.5366 C   0  0  0  0  0  0  0  0  0  0  0  0
   -2.1553    5.2811   -0.9857 N   0  0  0  0  0  0  0  0  0  0  0  0
    0.1621    5.0734   -1.1844 N   0  0  0  0  0  0  0  0  0  0  0  0
    1.3364    4.5398   -0.7737 C   0  0  0  0  0  0  0  0  0  0  0  0
    1.4856    3.6440    0.2823 C   0  0  0  0  0  0  0  0  0  0  0  0
    0.3115    3.2928    0.9563 C   0  0  0  0  0  0  0  0  0  0  0  0
   -0.3393    0.8844    0.2543 H   0  0  0  0  0  0  0  0  0  0  0  0
    1.7910    0.8672   -0.5722 H   0  0  0  0  0  0  0  0  0  0  0  0
    1.6633   -0.9381   -0.5312 H   0  0  0  0  0  0  0  0  0  0  0  0
    1.3831   -2.1478    3.7800 H   0  0  0  0  0  0  0  0  0  0  0  0
    1.8200   -0.0303    4.7123 H   0  0  0  0  0  0  0  0  0  0  0  0
   -1.8665    2.0161    3.0679 H   0  0  0  0  0  0  0  0  0  0  0  0
   -2.1569    5.9258   -1.7488 H   0  0  0  0  0  0  0  0  0  0  0  0
   -3.0103    5.0832   -0.5050 H   0  0  0  0  0  0  0  0  0  0  0  0
    2.2054    4.8763   -1.3584 H   0  0  0  0  0  0  0  0  0  0  0  0
    2.4524    3.2519    0.5703 H   0  0  0  0  0  0  0  0  0  0  0  0
  1 24  1  0  0  0  0
  2  1  1  0  0  0  0
  2  3  1  0  0  0  0
  3  4  1  1  0  0  0
  3  5  1  0  0  0  0
  3 10  1  0  0  0  0
  5  6  1  0  0  0  0
  6  8  1  0  0  0  0
  6  7  1  1  0  0  0
  8 10  1  0  0  0  0
  8  9  1  6  0  0  0
  8 13  1  0  0  0  0
 10 11  1  6  0  0  0
 10 12  1  0  0  0  0
 12 27  1  0  0  0  0
 13 28  1  0  0  0  0
 14 15  1  0  0  0  0
 14  6  1  0  0  0  0
 15 29  1  0  0  0  0
 16 15  2  0  0  0  0
 17 23  1  0  0  0  0
 17 16  2  0  0  0  0
 18 17  1  0  0  0  0
 19 18  1  0  0  0  0
 19 31  1  0  0  0  0
 20 21  2  0  0  0  0
 20 18  2  0  0  0  0
 21 22  1  0  0  0  0
 22 33  1  0  0  0  0
 22 23  2  0  0  0  0
 23 14  1  0  0  0  0
 25  2  1  0  0  0  0
 26  2  1  0  0  0  0
 30 19  1  0  0  0  0
 32 21  1  0  0  0  0
M  END
$$$$
