
     RDKit          3D

 33 35  0  0  0  0  0  0  0  0999 V2000
    0.3961   -0.6445   -0.3422 O   0  0  0  0  0  0  0  0  0  0  0  0
    1.7031   -0.8537    0.1368 C   0  0  0  0  0  0  0  0  0  0  0  0
    1.9371   -0.1688    1.4722 C   0  0  1  0  0  0  0  0  0  0  0  0
    2.9864   -0.3201    1.7929 H   0  0  0  0  0  0  0  0  0  0  0  0
    1.6405    1.2152    1.3230 O   0  0  0  0  0  0  0  0  0  0  0  0
    1.3123    1.7808    2.5803 C   0  0  2  0  0  0  0  0  0  0  0  0
    2.1696    2.3343    2.9981 H   0  0  0  0  0  0  0  0  0  0  0  0
    1.0263    0.6011    3.5470 C   0  0  1  0  0  0  0  0  0  0  0  0
    0.0604    0.7476    4.0641 H   0  0  0  0  0  0  0  0  0  0  0  0
    1.0251   -0.6281    2.6117 C   0  0  2  0  0  0  0  0  0  0  0  0
    0.0171   -0.8248    2.2188 H   0  0  0  0  0  0  0  0  0  0  0  0
    1.5670   -1.7762    3.2385 O   0  0  0  0  0  0  0  0  0  0  0  0
    2.0898    0.4989    4.4584 O   0  0  0  0  0  0  0  0  0  0  0  0
    0.2417    2.7289    2.4200 N   0  0  0  0  0  0  0  0  0  0  0  0
    0.2768    4.0466    2.8583 C   0  0  0  0  0  0  0  0  0  0  0  0
   -0.8470    4.6825    2.6769 N   0  0  0  0  0  0  0  0  0  0  0  0
   -1.6834    3.7535    2.0843 C   0  0  0  0  0  0  0  0  0  0  0  0
   -3.0323    3.8860    1.6631 C   0  0  0  0  0  0  0  0  0  0  0  0
   -3.6811    5.0715    1.8026 N   0  0  0  0  0  0  0  0  0  0  0  0
   -3.6698    2.8505    1.1130 N   0  0  0  0  0  0  0  0  0  0  0  0
   -3.0156    1.6873    0.9466 C   0  0  0  0  0  0  0  0  0  0  0  0
   -1.6949    1.4314    1.3113 C   0  0  0  0  0  0  0  0  0  0  0  0
   -1.0309    2.5194    1.9088 C   0  0  0  0  0  0  0  0  0  0  0  0
    0.2764    0.3132   -0.4287 H   0  0  0  0  0  0  0  0  0  0  0  0
    2.4664   -0.5080   -0.5865 H   0  0  0  0  0  0  0  0  0  0  0  0
    1.8415   -1.9376    0.2759 H   0  0  0  0  0  0  0  0  0  0  0  0
    0.8456   -2.3210    3.5770 H   0  0  0  0  0  0  0  0  0  0  0  0
    2.2710   -0.4534    4.5453 H   0  0  0  0  0  0  0  0  0  0  0  0
    1.1825    4.4568    3.3071 H   0  0  0  0  0  0  0  0  0  0  0  0
   -4.6682    5.1103    1.5904 H   0  0  0  0  0  0  0  0  0  0  0  0
   -3.2352    5.8212    2.3120 H   0  0  0  0  0  0  0  0  0  0  0  0
   -3.5958    0.8855    0.4753 H   0  0  0  0  0  0  0  0  0  0  0  0
   -1.2329    0.4694    1.1042 H   0  0  0  0  0  0  0  0  0  0  0  0
  1  2  1  0
  1 24  1  0
  2  3  1  0
  2 25  1  0
  2 26  1  0
  3  4  1  1
  3  5  1  0
  3 10  1  0
  5  6  1  0
  6  7  1  1
  6  8  1  0
  6 14  1  0
  8  9  1  1
  8 10  1  0
  8 13  1  0
 10 11  1  6
 10 12  1  0
 12 27  1  0
 13 28  1  0
 14 15  1  0
 14 23  1  0
 15 16  2  0
 15 29  1  0
 16 17  1  0
 17 18  1  0
 17 23  2  0
 18 19  1  0
 18 20  2  0
 19 30  1  0
 19 31  1  0
 20 21  1  0
 21 22  2  0
 21 32  1  0
 22 23  1  0
 22 33  1  0
M  END

