33
rmsd11.gzmat
O          0.00000        0.00000        0.00000
C          1.40870        0.00000        0.00000
C          1.95220        0.00000        1.43230
H          3.01090       -0.34860        1.47950
O          2.03160        1.34870        1.89870
C          1.00360        1.65020        2.80910
H          1.49670        2.21620        3.64080
C          0.35770        0.30860        3.27110
H         -0.75070        0.29550        3.18410
C          1.04670       -0.77690        2.40030
H          0.32040       -1.44130        1.88730
O          1.91880       -1.54850        3.19680
O          0.58750        0.12350        4.63330
N          0.05040        2.51040        2.10780
C          0.29180        3.18920        0.88380
N         -0.74690        3.94050        0.53760
C         -1.69580        3.80000        1.55150
C         -2.98640        4.36970        1.72530
N         -3.53380        5.21460        0.80630
N         -3.71820        4.07890        2.83670
C         -3.20380        3.24990        3.77430
C         -1.95620        2.63260        3.70510
C         -1.20130        2.91620        2.56230
H         -0.34090        0.86370        0.31620
H          1.79060        0.86290       -0.57570
H          1.66240       -0.93820       -0.53140
H          1.41000       -2.18280        3.74790
H          1.53720       -0.10010        4.80210
H          1.22060        3.08460        0.34320
H         -4.45270        5.58450        0.93940
H         -3.02390        5.44630       -0.02250
H         -3.86750        3.08830        4.63630
H         -1.59260        1.99280        4.49800
