rmsd1.gzmat
 OpenBabel08211713363D

 33 35  0  0  1  0  0  0  0  0999 V2000
    0.0000    0.0000    0.0000 O   0  0  0  0  0  0  0  0  0  0  0  0
    1.4059    0.0000    0.0000 C   0  0  0  0  0  0  0  0  0  0  0  0
    1.9709    0.0000    1.4241 C   0  0  1  0  0  0  0  0  0  0  0  0
    3.0226   -0.3783    1.4356 H   0  0  0  0  0  0  0  0  0  0  0  0
    2.0885    1.3537    1.8563 O   0  0  0  0  0  0  0  0  0  0  0  0
    1.2904    1.6325    2.9866 C   0  0  2  0  0  0  0  0  0  0  0  0
    1.9800    2.1650    3.6970 H   0  0  0  0  0  0  0  0  0  0  0  0
    0.7922    0.2818    3.5643 C   0  0  1  0  0  0  0  0  0  0  0  0
   -0.2642    0.3017    3.9044 H   0  0  0  0  0  0  0  0  0  0  0  0
    1.1008   -0.7522    2.4464 C   0  0  2  0  0  0  0  0  0  0  0  0
    0.1903   -1.2045    2.0000 H   0  0  0  0  0  0  0  0  0  0  0  0
    1.9298   -1.7734    2.9567 O   0  0  0  0  0  0  0  0  0  0  0  0
    1.4996    0.0095    4.7384 O   0  0  0  0  0  0  0  0  0  0  0  0
    0.2447    2.5535    2.5724 N   0  0  0  0  0  0  0  0  0  0  0  0
    0.5220    3.9285    2.3087 C   0  0  0  0  0  0  0  0  0  0  0  0
   -0.5205    4.5438    1.7731 N   0  0  0  0  0  0  0  0  0  0  0  0
   -1.5207    3.5786    1.6375 C   0  0  0  0  0  0  0  0  0  0  0  0
   -2.8412    3.6801    1.1266 C   0  0  0  0  0  0  0  0  0  0  0  0
   -3.3442    4.8499    0.6453 N   0  0  0  0  0  0  0  0  0  0  0  0
   -3.6495    2.5816    1.0995 N   0  0  0  0  0  0  0  0  0  0  0  0
   -3.1759    1.4055    1.5601 C   0  0  0  0  0  0  0  0  0  0  0  0
   -1.8948    1.1966    2.0759 C   0  0  0  0  0  0  0  0  0  0  0  0
   -1.0532    2.3140    2.1191 C   0  0  0  0  0  0  0  0  0  0  0  0
   -0.3479    0.8676    0.3009 H   0  0  0  0  0  0  0  0  0  0  0  0
    1.7852    0.8651   -0.5761 H   0  0  0  0  0  0  0  0  0  0  0  0
    1.6569   -0.9406   -0.5300 H   0  0  0  0  0  0  0  0  0  0  0  0
    1.4415   -2.3162    3.6140 H   0  0  0  0  0  0  0  0  0  0  0  0
    2.4004   -0.3479    4.5340 H   0  0  0  0  0  0  0  0  0  0  0  0
    1.4761    4.3729    2.5464 H   0  0  0  0  0  0  0  0  0  0  0  0
   -4.2745    4.8926    0.2823 H   0  0  0  0  0  0  0  0  0  0  0  0
   -2.7752    5.6734    0.6432 H   0  0  0  0  0  0  0  0  0  0  0  0
   -3.8982    0.5770    1.4968 H   0  0  0  0  0  0  0  0  0  0  0  0
   -1.5951    0.2146    2.4071 H   0  0  0  0  0  0  0  0  0  0  0  0
  1 24  1  0  0  0  0
  2  1  1  0  0  0  0
  2  3  1  0  0  0  0
  3  4  1  6  0  0  0
  3  5  1  0  0  0  0
  3 10  1  0  0  0  0
  5  6  1  0  0  0  0
  6  8  1  0  0  0  0
  6  7  1  1  0  0  0
  8 10  1  0  0  0  0
  8  9  1  1  0  0  0
  8 13  1  0  0  0  0
 10 11  1  6  0  0  0
 10 12  1  0  0  0  0
 12 27  1  0  0  0  0
 14  6  1  0  0  0  0
 15 29  1  0  0  0  0
 15 14  1  0  0  0  0
 16 15  2  0  0  0  0
 17 16  2  0  0  0  0
 17 23  1  0  0  0  0
 18 17  1  0  0  0  0
 19 18  1  0  0  0  0
 20 18  2  0  0  0  0
 20 21  2  0  0  0  0
 21 22  1  0  0  0  0
 22 23  2  0  0  0  0
 22 33  1  0  0  0  0
 23 14  1  0  0  0  0
 25  2  1  0  0  0  0
 26  2  1  0  0  0  0
 28 13  1  0  0  0  0
 30 19  1  0  0  0  0
 31 19  1  0  0  0  0
 32 21  1  0  0  0  0
M  END
$$$$
