rmsd3.gzmat
 OpenBabel08211713363D

 33 35  0  0  1  0  0  0  0  0999 V2000
    0.0000    0.0000    0.0000 O   0  0  0  0  0  0  0  0  0  0  0  0
    1.4058    0.0000    0.0000 C   0  0  0  0  0  0  0  0  0  0  0  0
    1.9668    0.0000    1.4256 C   0  0  1  0  0  0  0  0  0  0  0  0
    3.0294   -0.3469    1.4376 H   0  0  0  0  0  0  0  0  0  0  0  0
    2.0352    1.3543    1.8658 O   0  0  0  0  0  0  0  0  0  0  0  0
    1.2878    1.5827    3.0424 C   0  0  2  0  0  0  0  0  0  0  0  0
    2.0123    2.0645    3.7540 H   0  0  0  0  0  0  0  0  0  0  0  0
    0.7846    0.2135    3.5728 C   0  0  1  0  0  0  0  0  0  0  0  0
   -0.2796    0.2216    3.8892 H   0  0  0  0  0  0  0  0  0  0  0  0
    1.1183   -0.7912    2.4358 C   0  0  2  0  0  0  0  0  0  0  0  0
    0.2198   -1.2604    1.9836 H   0  0  0  0  0  0  0  0  0  0  0  0
    1.9762   -1.7982    2.9278 O   0  0  0  0  0  0  0  0  0  0  0  0
    1.4668   -0.0892    4.7545 O   0  0  0  0  0  0  0  0  0  0  0  0
    0.2439    2.5399    2.7199 N   0  0  0  0  0  0  0  0  0  0  0  0
    0.5087    3.9389    2.6152 C   0  0  0  0  0  0  0  0  0  0  0  0
   -0.5289    4.5975    2.1233 N   0  0  0  0  0  0  0  0  0  0  0  0
   -1.5122    3.6421    1.8563 C   0  0  0  0  0  0  0  0  0  0  0  0
   -2.8210    3.7834    1.3248 C   0  0  0  0  0  0  0  0  0  0  0  0
   -3.3292    4.9935    0.9617 N   0  0  0  0  0  0  0  0  0  0  0  0
   -3.6097    2.6833    1.1520 N   0  0  0  0  0  0  0  0  0  0  0  0
   -3.1299    1.4692    1.4929 C   0  0  0  0  0  0  0  0  0  0  0  0
   -1.8618    1.2213    2.0234 C   0  0  0  0  0  0  0  0  0  0  0  0
   -1.0384    2.3377    2.2081 C   0  0  0  0  0  0  0  0  0  0  0  0
   -0.3450    0.8684    0.3049 H   0  0  0  0  0  0  0  0  0  0  0  0
    1.7845    0.8677   -0.5730 H   0  0  0  0  0  0  0  0  0  0  0  0
    1.6590   -0.9382   -0.5319 H   0  0  0  0  0  0  0  0  0  0  0  0
    1.4982   -2.3772    3.5620 H   0  0  0  0  0  0  0  0  0  0  0  0
    2.3756   -0.4323    4.5614 H   0  0  0  0  0  0  0  0  0  0  0  0
    1.4480    4.3670    2.9299 H   0  0  0  0  0  0  0  0  0  0  0  0
   -4.2542    5.0673    0.5898 H   0  0  0  0  0  0  0  0  0  0  0  0
   -2.7764    5.8202    1.0762 H   0  0  0  0  0  0  0  0  0  0  0  0
   -3.8335    0.6419    1.3116 H   0  0  0  0  0  0  0  0  0  0  0  0
   -1.5552    0.2137    2.2593 H   0  0  0  0  0  0  0  0  0  0  0  0
  1 24  1  0  0  0  0
  2  1  1  0  0  0  0
  2  3  1  0  0  0  0
  3  4  1  6  0  0  0
  3  5  1  0  0  0  0
  3 10  1  0  0  0  0
  5  6  1  0  0  0  0
  6  8  1  0  0  0  0
  6  7  1  1  0  0  0
  8 10  1  0  0  0  0
  8  9  1  1  0  0  0
  8 13  1  0  0  0  0
 10 11  1  6  0  0  0
 10 12  1  0  0  0  0
 12 27  1  0  0  0  0
 14  6  1  0  0  0  0
 15 14  1  0  0  0  0
 15 29  1  0  0  0  0
 16 15  2  0  0  0  0
 17 16  2  0  0  0  0
 17 23  1  0  0  0  0
 18 17  1  0  0  0  0
 19 31  1  0  0  0  0
 19 18  1  0  0  0  0
 20 18  2  0  0  0  0
 20 21  2  0  0  0  0
 21 22  1  0  0  0  0
 22 23  2  0  0  0  0
 22 33  1  0  0  0  0
 23 14  1  0  0  0  0
 25  2  1  0  0  0  0
 26  2  1  0  0  0  0
 28 13  1  0  0  0  0
 30 19  1  0  0  0  0
 32 21  1  0  0  0  0
M  END
$$$$
