rmsd22.gzmat
 OpenBabel08211713363D

 33 35  0  0  1  0  0  0  0  0999 V2000
    0.0000    0.0000    0.0000 O   0  0  0  0  0  0  0  0  0  0  0  0
    1.4082    0.0000    0.0000 C   0  0  0  0  0  0  0  0  0  0  0  0
    1.9591    0.0000    1.4292 C   0  0  1  0  0  0  0  0  0  0  0  0
    3.0356   -0.2973    1.4489 H   0  0  0  0  0  0  0  0  0  0  0  0
    1.9729    1.3400    1.9178 O   0  0  0  0  0  0  0  0  0  0  0  0
    1.0024    1.5503    2.9176 C   0  0  2  0  0  0  0  0  0  0  0  0
    1.5156    2.2058    3.6709 H   0  0  0  0  0  0  0  0  0  0  0  0
    0.6116    0.1571    3.4821 C   0  0  1  0  0  0  0  0  0  0  0  0
   -0.4611    0.0468    3.7339 H   0  0  0  0  0  0  0  0  0  0  0  0
    1.1223   -0.8441    2.4071 C   0  0  2  0  0  0  0  0  0  0  0  0
    0.3029   -1.4061    1.9133 H   0  0  0  0  0  0  0  0  0  0  0  0
    2.0319   -1.7507    2.9878 O   0  0  0  0  0  0  0  0  0  0  0  0
    1.2478   -0.0294    4.7111 O   0  0  0  0  0  0  0  0  0  0  0  0
   -0.1075    2.2764    2.3148 N   0  0  0  0  0  0  0  0  0  0  0  0
   -1.4684    1.8980    2.1470 C   0  0  0  0  0  0  0  0  0  0  0  0
   -2.1421    2.8054    1.4520 N   0  0  0  0  0  0  0  0  0  0  0  0
   -1.2337    3.8109    1.1195 C   0  0  0  0  0  0  0  0  0  0  0  0
   -1.3809    5.0176    0.3844 C   0  0  0  0  0  0  0  0  0  0  0  0
   -2.5756    5.4029   -0.1468 N   0  0  0  0  0  0  0  0  0  0  0  0
   -0.3083    5.8351    0.1916 N   0  0  0  0  0  0  0  0  0  0  0  0
    0.8933    5.4931    0.7106 C   0  0  0  0  0  0  0  0  0  0  0  0
    1.1506    4.3376    1.4463 C   0  0  0  0  0  0  0  0  0  0  0  0
    0.0560    3.4918    1.6485 C   0  0  0  0  0  0  0  0  0  0  0  0
   -0.3420    0.8753    0.2783 H   0  0  0  0  0  0  0  0  0  0  0  0
    1.7884    0.8664   -0.5733 H   0  0  0  0  0  0  0  0  0  0  0  0
    1.6612   -0.9391   -0.5311 H   0  0  0  0  0  0  0  0  0  0  0  0
    1.5770   -2.3182    3.6501 H   0  0  0  0  0  0  0  0  0  0  0  0
    2.2136   -0.2120    4.5842 H   0  0  0  0  0  0  0  0  0  0  0  0
   -1.8813    0.9943    2.5647 H   0  0  0  0  0  0  0  0  0  0  0  0
   -2.6433    6.2421   -0.6853 H   0  0  0  0  0  0  0  0  0  0  0  0
   -3.3813    4.8205   -0.0379 H   0  0  0  0  0  0  0  0  0  0  0  0
    1.6916    6.2206    0.5008 H   0  0  0  0  0  0  0  0  0  0  0  0
    2.1365    4.1022    1.8219 H   0  0  0  0  0  0  0  0  0  0  0  0
  1 24  1  0  0  0  0
  2  1  1  0  0  0  0
  2  3  1  0  0  0  0
  3  4  1  6  0  0  0
  3  5  1  0  0  0  0
  3 10  1  0  0  0  0
  5  6  1  0  0  0  0
  6  8  1  0  0  0  0
  6  7  1  1  0  0  0
  8 10  1  0  0  0  0
  8  9  1  1  0  0  0
  8 13  1  0  0  0  0
 10 11  1  6  0  0  0
 10 12  1  0  0  0  0
 12 27  1  0  0  0  0
 14  6  1  0  0  0  0
 15 14  1  0  0  0  0
 15 29  1  0  0  0  0
 16 15  2  0  0  0  0
 17 16  2  0  0  0  0
 17 23  1  0  0  0  0
 18 17  1  0  0  0  0
 19 31  1  0  0  0  0
 19 18  1  0  0  0  0
 20 18  2  0  0  0  0
 20 21  2  0  0  0  0
 21 22  1  0  0  0  0
 22 23  2  0  0  0  0
 22 33  1  0  0  0  0
 23 14  1  0  0  0  0
 25  2  1  0  0  0  0
 26  2  1  0  0  0  0
 28 13  1  0  0  0  0
 30 19  1  0  0  0  0
 32 21  1  0  0  0  0
M  END
$$$$
