33

O         -0.13540        0.10030        0.08770
C          1.24090       -0.20060        0.05380
C          1.93530       -0.05420        1.40640
H          2.97970       -0.39500        1.30460
O          1.98170        1.31750        1.82380
C          0.95120        1.60380        2.73340
H          1.37900        2.04750        3.64940
C          0.24310        0.26100        3.08550
H         -0.68620        0.19220        2.50670
C          1.24580       -0.78420        2.56230
H          0.74020       -1.70910        2.23860
O          2.13630       -1.02630        3.64180
O         -0.05260        0.10530        4.43990
N          0.04090        2.56790        2.11950
C          0.25950        3.27150        0.94200
N         -0.74270        4.05130        0.61960
C         -1.66650        3.87810        1.63140
C         -2.94690        4.46390        1.81510
N         -3.41710        5.38340        0.92760
N         -3.68990        4.13410        2.87150
C         -3.21340        3.24860        3.76870
C         -1.97860        2.60810        3.70920
C         -1.20180        2.95460        2.58770
H         -0.25140        1.06100        0.06540
H          1.78350        0.42210       -0.68190
H          1.33580       -1.24970       -0.27500
H          2.65590       -1.81950        3.46590
H          0.74900       -0.26430        4.84680
H          1.19490        3.16140        0.39680
H         -4.38510        5.66450        1.00520
H         -2.92400        5.51300        0.05500
H         -3.88160        3.02990        4.60960
H         -1.65270        1.89350        4.46350
