rmsd27.gzmat
 OpenBabel08211713363D

 33 35  0  0  1  0  0  0  0  0999 V2000
    0.0000    0.0000    0.0000 O   0  0  0  0  0  0  0  0  0  0  0  0
    1.4087    0.0000    0.0000 C   0  0  0  0  0  0  0  0  0  0  0  0
    1.9564    0.0000    1.4312 C   0  0  1  0  0  0  0  0  0  0  0  0
    3.0149   -0.3507    1.4731 H   0  0  0  0  0  0  0  0  0  0  0  0
    2.0411    1.3467    1.9017 O   0  0  0  0  0  0  0  0  0  0  0  0
    1.0219    1.6467    2.8233 C   0  0  2  0  0  0  0  0  0  0  0  0
    1.5214    2.2263    3.6416 H   0  0  0  0  0  0  0  0  0  0  0  0
    0.3991    0.3022    3.3051 C   0  0  1  0  0  0  0  0  0  0  0  0
   -0.7116    0.2840    3.2664 H   0  0  0  0  0  0  0  0  0  0  0  0
    1.0538   -0.7774    2.4017 C   0  0  2  0  0  0  0  0  0  0  0  0
    0.3074   -1.4204    1.8898 H   0  0  0  0  0  0  0  0  0  0  0  0
    1.9244   -1.5791    3.1690 O   0  0  0  0  0  0  0  0  0  0  0  0
    0.6899    0.1133    4.6553 O   0  0  0  0  0  0  0  0  0  0  0  0
    0.0541    2.4906    2.1226 N   0  0  0  0  0  0  0  0  0  0  0  0
    0.2976    3.1712    0.8998 C   0  0  0  0  0  0  0  0  0  0  0  0
   -0.7640    3.8722    0.5203 N   0  0  0  0  0  0  0  0  0  0  0  0
   -1.7346    3.6899    1.5064 C   0  0  0  0  0  0  0  0  0  0  0  0
   -3.0583    4.1920    1.6327 C   0  0  0  0  0  0  0  0  0  0  0  0
   -3.6098    5.0200    0.7010 N   0  0  0  0  0  0  0  0  0  0  0  0
   -3.8175    3.8554    2.7121 N   0  0  0  0  0  0  0  0  0  0  0  0
   -3.2928    3.0595    3.6718 C   0  0  0  0  0  0  0  0  0  0  0  0
   -2.0086    2.5183    3.6552 C   0  0  0  0  0  0  0  0  0  0  0  0
   -1.2294    2.8352    2.5370 C   0  0  0  0  0  0  0  0  0  0  0  0
   -0.3421    0.8634    0.3160 H   0  0  0  0  0  0  0  0  0  0  0  0
    1.7890    0.8601   -0.5802 H   0  0  0  0  0  0  0  0  0  0  0  0
    1.6616   -0.9405   -0.5289 H   0  0  0  0  0  0  0  0  0  0  0  0
    1.4108   -2.1958    3.7366 H   0  0  0  0  0  0  0  0  0  0  0  0
    1.6428   -0.1269    4.7790 H   0  0  0  0  0  0  0  0  0  0  0  0
    1.2449    3.1050    0.3851 H   0  0  0  0  0  0  0  0  0  0  0  0
   -4.5537    5.3338    0.7954 H   0  0  0  0  0  0  0  0  0  0  0  0
   -3.0884    5.2649   -0.1173 H   0  0  0  0  0  0  0  0  0  0  0  0
   -3.9810    2.8573    4.5059 H   0  0  0  0  0  0  0  0  0  0  0  0
   -1.6386    1.9127    4.4709 H   0  0  0  0  0  0  0  0  0  0  0  0
  1 24  1  0  0  0  0
  2  1  1  0  0  0  0
  2  3  1  0  0  0  0
  3  4  1  1  0  0  0
  3  5  1  0  0  0  0
  3 10  1  0  0  0  0
  5  6  1  0  0  0  0
  6  8  1  0  0  0  0
  6  7  1  1  0  0  0
  8 10  1  0  0  0  0
  8 13  1  0  0  0  0
  8  9  1  6  0  0  0
 10 11  1  6  0  0  0
 10 12  1  0  0  0  0
 12 27  1  0  0  0  0
 13 28  1  0  0  0  0
 14 23  1  0  0  0  0
 14  6  1  0  0  0  0
 15 14  1  0  0  0  0
 16 15  2  0  0  0  0
 16 17  2  0  0  0  0
 17 18  1  0  0  0  0
 17 23  1  0  0  0  0
 18 20  2  0  0  0  0
 19 30  1  0  0  0  0
 19 18  1  0  0  0  0
 20 21  2  0  0  0  0
 21 32  1  0  0  0  0
 22 21  1  0  0  0  0
 22 33  1  0  0  0  0
 23 22  2  0  0  0  0
 25  2  1  0  0  0  0
 26  2  1  0  0  0  0
 29 15  1  0  0  0  0
 31 19  1  0  0  0  0
M  END
$$$$
