33
rmsd10.gzmat
O          0.00000        0.00000        0.00000
C          1.40930        0.00000        0.00000
C          1.95210        0.00000        1.43350
H          3.00070       -0.37710        1.47950
O          2.07350        1.34520        1.89730
C          1.01830        1.70030        2.75170
H          1.48930        2.33740        3.54470
C          0.40110        0.37690        3.30010
H         -0.70640        0.35570        3.30380
C          1.02840       -0.73870        2.41520
H          0.26800       -1.37120        1.91190
O          1.87890       -1.54630        3.19840
O          0.74300        0.24220        4.64580
N          0.05750        2.49090        1.97980
C         -1.32890        2.66570        2.23590
N         -1.88880        3.47170        1.34270
C         -0.87440        3.86610        0.47070
C         -0.88690        4.71020       -0.67230
N         -2.03150        5.29410       -1.12810
N          0.26380        4.94700       -1.36030
C          1.41780        4.37670       -0.94270
C          1.54370        3.53200        0.15730
C          0.36670        3.27270        0.86750
H         -0.33980        0.88940        0.23600
H          1.79140        0.86760       -0.57200
H          1.66330       -0.93850       -0.53030
H          1.35340       -2.15250        3.76480
H          1.69150       -0.03200        4.74000
H         -1.82960        2.20170        3.07080
H         -2.01080        5.89870       -1.92350
H         -2.88790        5.16810       -0.62680
H          2.28970        4.63660       -1.56120
H          2.49720        3.11400        0.45310
