
     RDKit          3D

 33 35  0  0  0  0  0  0  0  0999 V2000
    0.5592    0.1434   -0.2649 O   0  0  0  0  0  0  0  0  0  0  0  0
    1.8576   -0.2574    0.0958 C   0  0  0  0  0  0  0  0  0  0  0  0
    2.1563   -0.0652    1.5828 C   0  0  1  0  0  0  0  0  0  0  0  0
    3.1885   -0.4018    1.7844 H   0  0  0  0  0  0  0  0  0  0  0  0
    2.0792    1.3274    1.9287 O   0  0  0  0  0  0  0  0  0  0  0  0
    0.9359    1.6012    2.6877 C   0  0  2  0  0  0  0  0  0  0  0  0
    1.2175    1.9007    3.7137 H   0  0  0  0  0  0  0  0  0  0  0  0
    0.1010    0.2941    2.7491 C   0  0  1  0  0  0  0  0  0  0  0  0
   -0.5897    0.2872    1.8960 H   0  0  0  0  0  0  0  0  0  0  0  0
    1.1795   -0.7711    2.5303 C   0  0  2  0  0  0  0  0  0  0  0  0
    0.7682   -1.6981    2.0964 H   0  0  0  0  0  0  0  0  0  0  0  0
    1.7406   -1.0000    3.8152 O   0  0  0  0  0  0  0  0  0  0  0  0
   -0.6258    0.1440    3.9303 O   0  0  0  0  0  0  0  0  0  0  0  0
    0.1787    2.6982    2.0921 N   0  0  0  0  0  0  0  0  0  0  0  0
   -1.0013    3.1829    2.6366 C   0  0  0  0  0  0  0  0  0  0  0  0
   -1.6228    4.0255    1.8532 N   0  0  0  0  0  0  0  0  0  0  0  0
   -0.8295    4.1032    0.7264 C   0  0  0  0  0  0  0  0  0  0  0  0
   -1.0230    4.8522   -0.4640 C   0  0  0  0  0  0  0  0  0  0  0  0
   -2.1026    5.6657   -0.5895 N   0  0  0  0  0  0  0  0  0  0  0  0
   -0.1442    4.7705   -1.4661 N   0  0  0  0  0  0  0  0  0  0  0  0
    0.9431    3.9936   -1.3207 C   0  0  0  0  0  0  0  0  0  0  0  0
    1.2554    3.2188   -0.2039 C   0  0  0  0  0  0  0  0  0  0  0  0
    0.3090    3.2815    0.8440 C   0  0  0  0  0  0  0  0  0  0  0  0
    0.5717    1.0967   -0.4558 H   0  0  0  0  0  0  0  0  0  0  0  0
    2.6299    0.2807   -0.4841 H   0  0  0  0  0  0  0  0  0  0  0  0
    1.9630   -1.3298   -0.1457 H   0  0  0  0  0  0  0  0  0  0  0  0
    2.3336   -1.7601    3.7828 H   0  0  0  0  0  0  0  0  0  0  0  0
   -0.0046   -0.2285    4.5779 H   0  0  0  0  0  0  0  0  0  0  0  0
   -1.3414    2.8364    3.6128 H   0  0  0  0  0  0  0  0  0  0  0  0
   -2.2779    6.1023   -1.4837 H   0  0  0  0  0  0  0  0  0  0  0  0
   -2.8203    5.6428    0.1215 H   0  0  0  0  0  0  0  0  0  0  0  0
    1.6353    3.9918   -2.1711 H   0  0  0  0  0  0  0  0  0  0  0  0
    2.1932    2.6755   -0.1248 H   0  0  0  0  0  0  0  0  0  0  0  0
  1  2  1  0
  1 24  1  0
  2  3  1  0
  2 25  1  0
  2 26  1  0
  3  4  1  6
  3  5  1  0
  3 10  1  0
  5  6  1  0
  6  7  1  1
  6  8  1  0
  6 14  1  0
  8  9  1  6
  8 10  1  0
  8 13  1  0
 10 11  1  6
 10 12  1  0
 12 27  1  0
 13 28  1  0
 14 15  1  0
 14 23  1  0
 15 16  2  0
 15 29  1  0
 16 17  1  0
 17 18  1  0
 17 23  2  0
 18 19  1  0
 18 20  2  0
 19 30  1  0
 19 31  1  0
 20 21  1  0
 21 22  2  0
 21 32  1  0
 22 23  1  0
 22 33  1  0
M  END

