rmsd136.gzmat
 OpenBabel08211713373D

 41 42  0  0  0  0  0  0  0  0999 V2000
    0.0000    0.0000    0.0000 C   0  0  0  0  0  0  0  0  0  0  0  0
    1.4795    0.0000    0.0000 N   0  0  0  0  0  0  0  0  0  0  0  0
    2.0131    0.0000    1.3749 C   0  0  0  0  0  0  0  0  0  0  0  0
    2.0202   -1.0117   -0.8546 C   0  0  0  0  0  0  0  0  0  0  0  0
    1.9218   -0.7857   -2.2387 C   0  0  0  0  0  0  0  0  0  0  0  0
    2.4863   -1.6723   -3.1439 C   0  0  0  0  0  0  0  0  0  0  0  0
    3.1661   -2.8043   -2.6744 C   0  0  0  0  0  0  0  0  0  0  0  0
    3.2699   -3.0370   -1.2937 C   0  0  0  0  0  0  0  0  0  0  0  0
    2.6967   -2.1480   -0.3931 C   0  0  0  0  0  0  0  0  0  0  0  0
    3.7775   -3.7610   -3.5208 N   0  0  0  0  0  0  0  0  0  0  0  0
    3.7677   -3.6928   -4.8955 C   0  0  0  0  0  0  0  0  0  0  0  0
    3.2582   -2.8276   -5.5768 O   0  0  0  0  0  0  0  0  0  0  0  0
    4.4240   -4.7550   -5.6027 N   0  0  0  0  0  0  0  0  0  0  0  0
    5.0738   -5.8554   -5.0521 C   0  0  0  0  0  0  0  0  0  0  0  0
    5.1287   -6.0235   -3.8509 O   0  0  0  0  0  0  0  0  0  0  0  0
    5.6709   -6.8403   -6.0336 C   0  0  0  0  0  0  0  0  0  0  0  0
    6.5580   -6.1607   -7.0277 C   0  0  0  0  0  0  0  0  0  0  0  0
    7.7968   -5.6607   -6.6195 C   0  0  0  0  0  0  0  0  0  0  0  0
    8.6241   -5.0200   -7.5379 C   0  0  0  0  0  0  0  0  0  0  0  0
    8.2187   -4.8791   -8.8646 C   0  0  0  0  0  0  0  0  0  0  0  0
    6.9850   -5.3824   -9.2722 C   0  0  0  0  0  0  0  0  0  0  0  0
    6.1529   -6.0232   -8.3561 C   0  0  0  0  0  0  0  0  0  0  0  0
   -0.3724    0.0306   -1.0380 H   0  0  0  0  0  0  0  0  0  0  0  0
   -0.3542    0.9144    0.5052 H   0  0  0  0  0  0  0  0  0  0  0  0
   -0.4438   -0.8749    0.5000 H   0  0  0  0  0  0  0  0  0  0  0  0
    1.6925    0.9330    1.8713 H   0  0  0  0  0  0  0  0  0  0  0  0
    3.1163    0.0175    1.3387 H   0  0  0  0  0  0  0  0  0  0  0  0
    1.6898   -0.8499    1.9945 H   0  0  0  0  0  0  0  0  0  0  0  0
    1.4114    0.1076   -2.6000 H   0  0  0  0  0  0  0  0  0  0  0  0
    2.3996   -1.4717   -4.2157 H   0  0  0  0  0  0  0  0  0  0  0  0
    3.7960   -3.9139   -0.9200 H   0  0  0  0  0  0  0  0  0  0  0  0
    2.7772   -2.3498    0.6722 H   0  0  0  0  0  0  0  0  0  0  0  0
    4.2466   -4.5594   -3.0687 H   0  0  0  0  0  0  0  0  0  0  0  0
    4.4333   -4.6251   -6.6204 H   0  0  0  0  0  0  0  0  0  0  0  0
    4.8557   -7.4157   -6.5248 H   0  0  0  0  0  0  0  0  0  0  0  0
    6.2465   -7.6091   -5.4617 H   0  0  0  0  0  0  0  0  0  0  0  0
    8.1143   -5.7679   -5.5827 H   0  0  0  0  0  0  0  0  0  0  0  0
    9.5881   -4.6265   -7.2183 H   0  0  0  0  0  0  0  0  0  0  0  0
    8.8656   -4.3755   -9.5806 H   0  0  0  0  0  0  0  0  0  0  0  0
    6.6690   -5.2736  -10.3083 H   0  0  0  0  0  0  0  0  0  0  0  0
    5.1940   -6.4185   -8.6845 H   0  0  0  0  0  0  0  0  0  0  0  0
  1 25  1  0  0  0  0
  1 24  1  0  0  0  0
  2  1  1  0  0  0  0
  2  3  1  0  0  0  0
  3 26  1  0  0  0  0
  3 28  1  0  0  0  0
  4  9  1  0  0  0  0
  4  2  1  0  0  0  0
  5  4  2  0  0  0  0
  6  7  2  0  0  0  0
  6  5  1  0  0  0  0
  7  8  1  0  0  0  0
  8 31  1  0  0  0  0
  8  9  2  0  0  0  0
  9 32  1  0  0  0  0
 10 33  1  0  0  0  0
 10  7  1  0  0  0  0
 11 10  1  0  0  0  0
 12 11  2  0  0  0  0
 13 14  1  0  0  0  0
 13 11  1  0  0  0  0
 14 15  2  0  0  0  0
 16 36  1  0  0  0  0
 16 14  1  0  0  0  0
 17 18  1  0  0  0  0
 17 16  1  0  0  0  0
 18 37  1  0  0  0  0
 19 38  1  0  0  0  0
 19 18  2  0  0  0  0
 20 19  1  0  0  0  0
 21 20  2  0  0  0  0
 21 22  1  0  0  0  0
 22 17  2  0  0  0  0
 23  1  1  0  0  0  0
 27  3  1  0  0  0  0
 29  5  1  0  0  0  0
 30  6  1  0  0  0  0
 34 13  1  0  0  0  0
 35 16  1  0  0  0  0
 39 20  1  0  0  0  0
 40 21  1  0  0  0  0
 41 22  1  0  0  0  0
M  END
$$$$
