41
rmsd155.gzmat
C          0.00000        0.00000        0.00000
N          1.47470        0.00000        0.00000
C          2.01190        0.00000        1.37850
C          2.07330       -1.01490       -0.81190
C          1.41380       -2.17180       -1.24080
C          2.04300       -3.06690       -2.10130
C          3.34710       -2.81080       -2.53280
C          4.01990       -1.65190       -2.10280
C          3.38530       -0.76320       -1.25200
N          4.04850       -3.65460       -3.42910
C          3.70580       -4.96780       -3.65800
O          2.77040       -5.56560       -3.16890
N          4.52980       -5.70310       -4.57420
C          5.67220       -5.24600       -5.22490
O          6.07520       -4.11020       -5.07810
C          6.35670       -6.23470       -6.14280
C          6.67760       -7.51550       -5.44040
C          6.16940       -8.72520       -5.91440
C          6.47630       -9.91310       -5.25310
C          7.28100       -9.89350       -4.11590
C          7.78810       -8.68370       -3.64230
C          7.49360       -7.49620       -4.30610
H         -0.36360        0.00950       -1.04240
H         -0.34600        0.93580        0.47310
H         -0.46060       -0.84680        0.53030
H          1.72000        0.94380        1.86860
H          3.11370       -0.03180        1.35230
H          1.65760       -0.84180        1.99300
H          0.40230       -2.38890       -0.90390
H          1.51080       -3.96460       -2.42660
H          5.03550       -1.44950       -2.43910
H          3.89140        0.14690       -0.93050
H          4.88800       -3.27090       -3.88420
H          4.24810       -6.68250       -4.68820
H          7.29580       -5.76850       -6.53200
H          5.73030       -6.39710       -7.04740
H          5.53770       -8.74930       -6.79990
H          6.08460      -10.85790       -5.62590
H          7.51200      -10.82140       -3.59620
H          8.41400       -8.66710       -2.75110
H          7.89630       -6.55220       -3.93910
