41
rmsd36.gzmat
C          0.00000        0.00000        0.00000
N          1.47460        0.00000        0.00000
C          2.00940        0.00000        1.37960
C          2.08280       -1.00020       -0.81870
C          3.43720       -0.81400       -1.14870
C          4.08600       -1.68920       -2.00650
C          3.38480       -2.77150       -2.55490
C          2.03200       -2.96490       -2.23360
C          1.38980       -2.08710       -1.36880
N          3.96130       -3.70480       -3.45100
C          5.29730       -3.72810       -3.78090
O          6.15960       -2.97730       -3.37370
N          5.72160       -4.74160       -4.70360
C          4.92820       -5.70800       -5.31340
O          3.74060       -5.79570       -5.07340
C          5.62640       -6.65910       -6.26050
C          6.62180       -5.97220       -7.13990
C          6.18220       -5.06240       -8.10460
C          7.10560       -4.41280       -8.91940
C          8.46820       -4.67100       -8.77580
C          8.90620       -5.58220       -7.81680
C          7.98540       -6.23320       -6.99800
H         -0.36630        0.03140       -1.04090
H         -0.34750        0.92660        0.49020
H         -0.45870       -0.85740        0.51480
H          1.56820        0.84080        1.93940
H          3.10010        0.16260        1.35050
H          1.81190       -0.93250        1.93010
H          3.97600        0.04080       -0.73980
H          5.13860       -1.51880       -2.24990
H          1.47900       -3.80280       -2.65540
H          0.34510       -2.25980       -1.12230
H          3.33730       -4.41500       -3.85980
H          6.71710       -4.68290       -4.94760
H          4.85080       -7.17130       -6.88230
H          6.08870       -7.48170       -5.66920
H          5.11820       -4.85590       -8.21680
H          6.76300       -3.70000       -9.66830
H          9.18900       -4.15920       -9.41080
H          9.97010       -5.78350       -7.70400
H          8.33610       -6.94380       -6.25220
