rmsd25.gzmat
 OpenBabel08211713373D

 41 42  0  0  0  0  0  0  0  0999 V2000
    0.0000    0.0000    0.0000 C   0  0  0  0  0  0  0  0  0  0  0  0
    1.4746    0.0000    0.0000 N   0  0  0  0  0  0  0  0  0  0  0  0
    2.0098    0.0000    1.3791 C   0  0  0  0  0  0  0  0  0  0  0  0
    2.0853   -0.9877   -0.8282 C   0  0  0  0  0  0  0  0  0  0  0  0
    3.4587   -0.8337   -1.1009 C   0  0  0  0  0  0  0  0  0  0  0  0
    4.1058   -1.7024   -1.9628 C   0  0  0  0  0  0  0  0  0  0  0  0
    3.3863   -2.7412   -2.5818 C   0  0  0  0  0  0  0  0  0  0  0  0
    2.0213   -2.8943   -2.3276 C   0  0  0  0  0  0  0  0  0  0  0  0
    1.3805   -2.0271   -1.4480 C   0  0  0  0  0  0  0  0  0  0  0  0
    4.1080   -3.5742   -3.4727 N   0  0  0  0  0  0  0  0  0  0  0  0
    3.6540   -4.8057   -3.8867 C   0  0  0  0  0  0  0  0  0  0  0  0
    2.6008   -5.3270   -3.5838 O   0  0  0  0  0  0  0  0  0  0  0  0
    4.4988   -5.5445   -4.7798 N   0  0  0  0  0  0  0  0  0  0  0  0
    5.7475   -5.1638   -5.2610 C   0  0  0  0  0  0  0  0  0  0  0  0
    6.2778   -4.1322   -4.9016 O   0  0  0  0  0  0  0  0  0  0  0  0
    6.4108   -6.1152   -6.2336 C   0  0  0  0  0  0  0  0  0  0  0  0
    5.4525   -6.6161   -7.2671 C   0  0  0  0  0  0  0  0  0  0  0  0
    4.8924   -5.7203   -8.1814 C   0  0  0  0  0  0  0  0  0  0  0  0
    3.9738   -6.1732   -9.1245 C   0  0  0  0  0  0  0  0  0  0  0  0
    3.6175   -7.5209   -9.1618 C   0  0  0  0  0  0  0  0  0  0  0  0
    4.1868   -8.4162   -8.2586 C   0  0  0  0  0  0  0  0  0  0  0  0
    5.1040   -7.9666   -7.3106 C   0  0  0  0  0  0  0  0  0  0  0  0
   -0.3646    0.0714   -1.0399 H   0  0  0  0  0  0  0  0  0  0  0  0
   -0.3508    0.9048    0.5264 H   0  0  0  0  0  0  0  0  0  0  0  0
   -0.4571   -0.8786    0.4800 H   0  0  0  0  0  0  0  0  0  0  0  0
    1.5770    0.8482    1.9348 H   0  0  0  0  0  0  0  0  0  0  0  0
    3.1014    0.1528    1.3526 H   0  0  0  0  0  0  0  0  0  0  0  0
    1.8032   -0.9291    1.9327 H   0  0  0  0  0  0  0  0  0  0  0  0
    4.0081   -0.0125   -0.6425 H   0  0  0  0  0  0  0  0  0  0  0  0
    5.1691   -1.5760   -2.1612 H   0  0  0  0  0  0  0  0  0  0  0  0
    1.4472   -3.6926   -2.8058 H   0  0  0  0  0  0  0  0  0  0  0  0
    0.3225   -2.1783   -1.2468 H   0  0  0  0  0  0  0  0  0  0  0  0
    5.0424   -3.2609   -3.7662 H   0  0  0  0  0  0  0  0  0  0  0  0
    4.0775   -6.4184   -5.1144 H   0  0  0  0  0  0  0  0  0  0  0  0
    6.8884   -6.9444   -5.6659 H   0  0  0  0  0  0  0  0  0  0  0  0
    7.2660   -5.5857   -6.7210 H   0  0  0  0  0  0  0  0  0  0  0  0
    5.1690   -4.6668   -8.1535 H   0  0  0  0  0  0  0  0  0  0  0  0
    3.5316   -5.4734   -9.8326 H   0  0  0  0  0  0  0  0  0  0  0  0
    2.8948   -7.8733   -9.8954 H   0  0  0  0  0  0  0  0  0  0  0  0
    3.9131   -9.4695   -8.2919 H   0  0  0  0  0  0  0  0  0  0  0  0
    5.5458   -8.6734   -6.6110 H   0  0  0  0  0  0  0  0  0  0  0  0
  1  2  1  0  0  0  0
  1 25  1  0  0  0  0
  1 24  1  0  0  0  0
  2  3  1  0  0  0  0
  3 28  1  0  0  0  0
  3 26  1  0  0  0  0
  4  2  1  0  0  0  0
  5  4  1  0  0  0  0
  5 29  1  0  0  0  0
  6  5  2  0  0  0  0
  7  8  2  0  0  0  0
  7  6  1  0  0  0  0
  8  9  1  0  0  0  0
  9 32  1  0  0  0  0
  9  4  2  0  0  0  0
 10  7  1  0  0  0  0
 11 12  2  0  0  0  0
 11 10  1  0  0  0  0
 13 11  1  0  0  0  0
 14 15  2  0  0  0  0
 14 13  1  0  0  0  0
 16 35  1  0  0  0  0
 16 14  1  0  0  0  0
 17 16  1  0  0  0  0
 18 37  1  0  0  0  0
 18 17  2  0  0  0  0
 19 18  1  0  0  0  0
 20 19  2  0  0  0  0
 20 21  1  0  0  0  0
 21 22  2  0  0  0  0
 22 17  1  0  0  0  0
 22 41  1  0  0  0  0
 23  1  1  0  0  0  0
 27  3  1  0  0  0  0
 30  6  1  0  0  0  0
 31  8  1  0  0  0  0
 33 10  1  0  0  0  0
 34 13  1  0  0  0  0
 36 16  1  0  0  0  0
 38 19  1  0  0  0  0
 39 20  1  0  0  0  0
 40 21  1  0  0  0  0
M  END
$$$$
