41
rmsd85.gzmat
C          0.00000        0.00000        0.00000
N          1.47930        0.00000        0.00000
C          2.01210        0.00000        1.37510
C          2.02900       -0.99620       -0.86290
C          1.85030       -0.81080       -2.24560
C          2.42680       -1.68060       -3.15900
C          3.20620       -2.75120       -2.70080
C          3.38990       -2.94550       -1.32280
C          2.79920       -2.07700       -0.41360
N          3.82870       -3.68860       -3.56130
C          3.95440       -3.51240       -4.92040
O          3.50910       -2.59400       -5.57690
N          4.69060       -4.51180       -5.64080
C          5.31050       -5.63940       -5.11370
O          5.26370       -5.88920       -3.92540
C          6.08650       -6.51170       -6.07560
C          5.45660       -6.61400       -7.42720
C          5.98370       -5.89760       -8.50330
C          5.38980       -5.99420       -9.75990
C          4.27230       -6.80600       -9.94490
C          3.74660       -7.52190       -8.87000
C          4.33730       -7.42850       -7.61240
H         -0.37400        0.07070       -1.03520
H         -0.35670        0.89370        0.53870
H         -0.44190       -0.89370        0.46660
H          1.66680        0.91780        1.88270
H          3.11470        0.04670        1.33920
H          1.71230       -0.86630        1.98380
H          1.26920        0.03970       -2.60210
H          2.27270       -1.51390       -4.22880
H          3.99280       -3.77610       -0.95810
H          2.94170       -2.24960        0.65020
H          4.26730       -4.51200       -3.12530
H          4.72090       -4.34890       -6.65430
H          6.19810       -7.52560       -5.61820
H          7.13070       -6.12640       -6.13560
H          6.86030       -5.26640       -8.36840
H          5.80060       -5.43480      -10.59880
H          3.81010       -6.88120      -10.92740
H          2.87190       -8.15450       -9.01330
H          3.92510       -7.99010       -6.77520
