rmsd157.gzmat
 OpenBabel08211713373D

 41 42  0  0  0  0  0  0  0  0999 V2000
    0.0000    0.0000    0.0000 C   0  0  0  0  0  0  0  0  0  0  0  0
    1.4746    0.0000    0.0000 N   0  0  0  0  0  0  0  0  0  0  0  0
    2.0037    0.0000    1.3805 C   0  0  0  0  0  0  0  0  0  0  0  0
    2.0888   -0.9685   -0.8452 C   0  0  0  0  0  0  0  0  0  0  0  0
    1.3793   -1.9700   -1.5205 C   0  0  0  0  0  0  0  0  0  0  0  0
    2.0222   -2.8138   -2.4214 C   0  0  0  0  0  0  0  0  0  0  0  0
    3.3921   -2.6690   -2.6529 C   0  0  0  0  0  0  0  0  0  0  0  0
    4.1166   -1.6683   -1.9788 C   0  0  0  0  0  0  0  0  0  0  0  0
    3.4700   -0.8282   -1.0889 C   0  0  0  0  0  0  0  0  0  0  0  0
    4.1282   -3.4966   -3.5370 N   0  0  0  0  0  0  0  0  0  0  0  0
    3.5425   -4.3140   -4.4760 C   0  0  0  0  0  0  0  0  0  0  0  0
    2.3536   -4.4938   -4.6401 O   0  0  0  0  0  0  0  0  0  0  0  0
    4.4233   -5.0323   -5.3518 N   0  0  0  0  0  0  0  0  0  0  0  0
    5.8118   -4.9508   -5.3986 C   0  0  0  0  0  0  0  0  0  0  0  0
    6.4350   -4.2638   -4.6153 O   0  0  0  0  0  0  0  0  0  0  0  0
    6.4895   -5.7823   -6.4666 C   0  0  0  0  0  0  0  0  0  0  0  0
    5.8782   -5.5348   -7.8096 C   0  0  0  0  0  0  0  0  0  0  0  0
    6.0547   -4.2971   -8.4326 C   0  0  0  0  0  0  0  0  0  0  0  0
    5.4580   -4.0487   -9.6657 C   0  0  0  0  0  0  0  0  0  0  0  0
    4.6880   -5.0352  -10.2807 C   0  0  0  0  0  0  0  0  0  0  0  0
    4.5235   -6.2743   -9.6647 C   0  0  0  0  0  0  0  0  0  0  0  0
    5.1168   -6.5261   -8.4293 C   0  0  0  0  0  0  0  0  0  0  0  0
   -0.3641    0.1081   -1.0371 H   0  0  0  0  0  0  0  0  0  0  0  0
   -0.3530    0.8851    0.5574 H   0  0  0  0  0  0  0  0  0  0  0  0
   -0.4562   -0.8956    0.4491 H   0  0  0  0  0  0  0  0  0  0  0  0
    1.6688    0.9214    1.8867 H   0  0  0  0  0  0  0  0  0  0  0  0
    3.1055    0.0169    1.3688 H   0  0  0  0  0  0  0  0  0  0  0  0
    1.6797   -0.8671    1.9765 H   0  0  0  0  0  0  0  0  0  0  0  0
    0.3141   -2.1077   -1.3501 H   0  0  0  0  0  0  0  0  0  0  0  0
    1.4431   -3.5837   -2.9388 H   0  0  0  0  0  0  0  0  0  0  0  0
    5.1833   -1.5446   -2.1633 H   0  0  0  0  0  0  0  0  0  0  0  0
    4.0256   -0.0347   -0.5910 H   0  0  0  0  0  0  0  0  0  0  0  0
    5.1538   -3.4228   -3.5119 H   0  0  0  0  0  0  0  0  0  0  0  0
    3.9318   -5.5984   -6.0526 H   0  0  0  0  0  0  0  0  0  0  0  0
    6.4549   -6.8564   -6.1799 H   0  0  0  0  0  0  0  0  0  0  0  0
    7.5785   -5.5329   -6.4807 H   0  0  0  0  0  0  0  0  0  0  0  0
    6.6510   -3.5229   -7.9505 H   0  0  0  0  0  0  0  0  0  0  0  0
    5.5889   -3.0810  -10.1481 H   0  0  0  0  0  0  0  0  0  0  0  0
    4.2132   -4.8365  -11.2397 H   0  0  0  0  0  0  0  0  0  0  0  0
    3.9266   -7.0469  -10.1465 H   0  0  0  0  0  0  0  0  0  0  0  0
    4.9833   -7.4964   -7.9554 H   0  0  0  0  0  0  0  0  0  0  0  0
  1 25  1  0  0  0  0
  1 24  1  0  0  0  0
  2  1  1  0  0  0  0
  2  3  1  0  0  0  0
  3 26  1  0  0  0  0
  3 28  1  0  0  0  0
  4  2  1  0  0  0  0
  5 29  1  0  0  0  0
  5  4  2  0  0  0  0
  6  5  1  0  0  0  0
  7  6  2  0  0  0  0
  7  8  1  0  0  0  0
  8  9  2  0  0  0  0
  9  4  1  0  0  0  0
  9 32  1  0  0  0  0
 10 33  1  0  0  0  0
 10  7  1  0  0  0  0
 11 10  1  0  0  0  0
 12 11  2  0  0  0  0
 13 11  1  0  0  0  0
 14 13  1  0  0  0  0
 14 15  2  0  0  0  0
 16 35  1  0  0  0  0
 16 14  1  0  0  0  0
 17 16  1  0  0  0  0
 18 37  1  0  0  0  0
 18 17  2  0  0  0  0
 19 18  1  0  0  0  0
 20 19  2  0  0  0  0
 20 21  1  0  0  0  0
 21 22  2  0  0  0  0
 22 41  1  0  0  0  0
 22 17  1  0  0  0  0
 23  1  1  0  0  0  0
 27  3  1  0  0  0  0
 30  6  1  0  0  0  0
 31  8  1  0  0  0  0
 34 13  1  0  0  0  0
 36 16  1  0  0  0  0
 38 19  1  0  0  0  0
 39 20  1  0  0  0  0
 40 21  1  0  0  0  0
M  END
$$$$
