
     RDKit          3D

 41 42  0  0  0  0  0  0  0  0999 V2000
    0.0153    0.2650   -0.2519 C   0  0  0  0  0  0  0  0  0  0  0  0
    1.4032   -0.0453   -0.0003 N   0  0  0  0  0  0  0  0  0  0  0  0
    2.0221    0.4086    1.2237 C   0  0  0  0  0  0  0  0  0  0  0  0
    2.0444   -0.9975   -0.7794 C   0  0  0  0  0  0  0  0  0  0  0  0
    1.4165   -1.5746   -1.9081 C   0  0  0  0  0  0  0  0  0  0  0  0
    2.0747   -2.5155   -2.6933 C   0  0  0  0  0  0  0  0  0  0  0  0
    3.3797   -2.9344   -2.3946 C   0  0  0  0  0  0  0  0  0  0  0  0
    4.0123   -2.3804   -1.2715 C   0  0  0  0  0  0  0  0  0  0  0  0
    3.3550   -1.4380   -0.4836 C   0  0  0  0  0  0  0  0  0  0  0  0
    3.9704   -3.8920   -3.2428 N   0  0  0  0  0  0  0  0  0  0  0  0
    5.2078   -4.4340   -3.1405 C   0  0  0  0  0  0  0  0  0  0  0  0
    6.0561   -4.2049   -2.2979 O   0  0  0  0  0  0  0  0  0  0  0  0
    5.5123   -5.3830   -4.1634 N   0  0  0  0  0  0  0  0  0  0  0  0
    4.7480   -5.8142   -5.2128 C   0  0  0  0  0  0  0  0  0  0  0  0
    3.6128   -5.4163   -5.4370 O   0  0  0  0  0  0  0  0  0  0  0  0
    5.3895   -6.8656   -6.1239 C   0  0  0  0  0  0  0  0  0  0  0  0
    6.8271   -7.2182   -5.8430 C   0  0  0  0  0  0  0  0  0  0  0  0
    7.1506   -8.2557   -4.9549 C   0  0  0  0  0  0  0  0  0  0  0  0
    8.4827   -8.5465   -4.6507 C   0  0  0  0  0  0  0  0  0  0  0  0
    9.5125   -7.8013   -5.2312 C   0  0  0  0  0  0  0  0  0  0  0  0
    9.2029   -6.7650   -6.1166 C   0  0  0  0  0  0  0  0  0  0  0  0
    7.8704   -6.4761   -6.4184 C   0  0  0  0  0  0  0  0  0  0  0  0
   -0.1372    0.6471   -1.2768 H   0  0  0  0  0  0  0  0  0  0  0  0
   -0.3153    1.0479    0.4429 H   0  0  0  0  0  0  0  0  0  0  0  0
   -0.6530   -0.6103   -0.1233 H   0  0  0  0  0  0  0  0  0  0  0  0
    1.3859    1.1702    1.6931 H   0  0  0  0  0  0  0  0  0  0  0  0
    3.0068    0.8708    1.0346 H   0  0  0  0  0  0  0  0  0  0  0  0
    2.1764   -0.4078    1.9575 H   0  0  0  0  0  0  0  0  0  0  0  0
    0.4026   -1.2902   -2.1848 H   0  0  0  0  0  0  0  0  0  0  0  0
    1.5593   -2.9389   -3.5600 H   0  0  0  0  0  0  0  0  0  0  0  0
    5.0217   -2.6967   -1.0193 H   0  0  0  0  0  0  0  0  0  0  0  0
    3.8859   -1.0405    0.3801 H   0  0  0  0  0  0  0  0  0  0  0  0
    3.4199   -4.2321   -4.0370 H   0  0  0  0  0  0  0  0  0  0  0  0
    6.4481   -5.7657   -4.0605 H   0  0  0  0  0  0  0  0  0  0  0  0
    5.2620   -6.4821   -7.1480 H   0  0  0  0  0  0  0  0  0  0  0  0
    4.7409   -7.7533   -6.0498 H   0  0  0  0  0  0  0  0  0  0  0  0
    6.3482   -8.8406   -4.4969 H   0  0  0  0  0  0  0  0  0  0  0  0
    8.7168   -9.3586   -3.9584 H   0  0  0  0  0  0  0  0  0  0  0  0
   10.5545   -8.0273   -4.9937 H   0  0  0  0  0  0  0  0  0  0  0  0
   10.0029   -6.1786   -6.5746 H   0  0  0  0  0  0  0  0  0  0  0  0
    7.6332   -5.6624   -7.1092 H   0  0  0  0  0  0  0  0  0  0  0  0
  1  2  1  0
  1 23  1  0
  1 24  1  0
  1 25  1  0
  2  3  1  0
  2  4  1  0
  3 26  1  0
  3 27  1  0
  3 28  1  0
  4  5  2  0
  4  9  1  0
  5  6  1  0
  5 29  1  0
  6  7  2  0
  6 30  1  0
  7  8  1  0
  7 10  1  0
  8  9  2  0
  8 31  1  0
  9 32  1  0
 10 11  1  0
 10 33  1  0
 11 12  2  0
 11 13  1  0
 13 14  1  0
 13 34  1  0
 14 15  2  0
 14 16  1  0
 16 17  1  0
 16 35  1  0
 16 36  1  0
 17 18  2  0
 17 22  1  0
 18 19  1  0
 18 37  1  0
 19 20  2  0
 19 38  1  0
 20 21  1  0
 20 39  1  0
 21 22  2  0
 21 40  1  0
 22 41  1  0
M  END

