rmsd155.gzmat
 OpenBabel08211713373D

 41 42  0  0  0  0  0  0  0  0999 V2000
    0.0000    0.0000    0.0000 C   0  0  0  0  0  0  0  0  0  0  0  0
    1.4747    0.0000    0.0000 N   0  0  0  0  0  0  0  0  0  0  0  0
    2.0119    0.0000    1.3785 C   0  0  0  0  0  0  0  0  0  0  0  0
    2.0733   -1.0149   -0.8119 C   0  0  0  0  0  0  0  0  0  0  0  0
    1.4138   -2.1718   -1.2408 C   0  0  0  0  0  0  0  0  0  0  0  0
    2.0430   -3.0669   -2.1013 C   0  0  0  0  0  0  0  0  0  0  0  0
    3.3471   -2.8108   -2.5328 C   0  0  0  0  0  0  0  0  0  0  0  0
    4.0199   -1.6519   -2.1028 C   0  0  0  0  0  0  0  0  0  0  0  0
    3.3853   -0.7632   -1.2520 C   0  0  0  0  0  0  0  0  0  0  0  0
    4.0485   -3.6546   -3.4291 N   0  0  0  0  0  0  0  0  0  0  0  0
    3.7058   -4.9678   -3.6580 C   0  0  0  0  0  0  0  0  0  0  0  0
    2.7704   -5.5656   -3.1689 O   0  0  0  0  0  0  0  0  0  0  0  0
    4.5298   -5.7031   -4.5742 N   0  0  0  0  0  0  0  0  0  0  0  0
    5.6722   -5.2460   -5.2249 C   0  0  0  0  0  0  0  0  0  0  0  0
    6.0752   -4.1102   -5.0781 O   0  0  0  0  0  0  0  0  0  0  0  0
    6.3567   -6.2347   -6.1428 C   0  0  0  0  0  0  0  0  0  0  0  0
    6.6776   -7.5155   -5.4404 C   0  0  0  0  0  0  0  0  0  0  0  0
    6.1694   -8.7252   -5.9144 C   0  0  0  0  0  0  0  0  0  0  0  0
    6.4763   -9.9131   -5.2531 C   0  0  0  0  0  0  0  0  0  0  0  0
    7.2810   -9.8935   -4.1159 C   0  0  0  0  0  0  0  0  0  0  0  0
    7.7881   -8.6837   -3.6423 C   0  0  0  0  0  0  0  0  0  0  0  0
    7.4936   -7.4962   -4.3061 C   0  0  0  0  0  0  0  0  0  0  0  0
   -0.3636    0.0095   -1.0424 H   0  0  0  0  0  0  0  0  0  0  0  0
   -0.3460    0.9358    0.4731 H   0  0  0  0  0  0  0  0  0  0  0  0
   -0.4606   -0.8468    0.5303 H   0  0  0  0  0  0  0  0  0  0  0  0
    1.7200    0.9438    1.8686 H   0  0  0  0  0  0  0  0  0  0  0  0
    3.1137   -0.0318    1.3523 H   0  0  0  0  0  0  0  0  0  0  0  0
    1.6576   -0.8418    1.9930 H   0  0  0  0  0  0  0  0  0  0  0  0
    0.4023   -2.3889   -0.9039 H   0  0  0  0  0  0  0  0  0  0  0  0
    1.5108   -3.9646   -2.4266 H   0  0  0  0  0  0  0  0  0  0  0  0
    5.0355   -1.4495   -2.4391 H   0  0  0  0  0  0  0  0  0  0  0  0
    3.8914    0.1469   -0.9305 H   0  0  0  0  0  0  0  0  0  0  0  0
    4.8880   -3.2709   -3.8842 H   0  0  0  0  0  0  0  0  0  0  0  0
    4.2481   -6.6825   -4.6882 H   0  0  0  0  0  0  0  0  0  0  0  0
    7.2958   -5.7685   -6.5320 H   0  0  0  0  0  0  0  0  0  0  0  0
    5.7303   -6.3971   -7.0474 H   0  0  0  0  0  0  0  0  0  0  0  0
    5.5377   -8.7493   -6.7999 H   0  0  0  0  0  0  0  0  0  0  0  0
    6.0846  -10.8579   -5.6259 H   0  0  0  0  0  0  0  0  0  0  0  0
    7.5120  -10.8214   -3.5962 H   0  0  0  0  0  0  0  0  0  0  0  0
    8.4140   -8.6671   -2.7511 H   0  0  0  0  0  0  0  0  0  0  0  0
    7.8963   -6.5522   -3.9391 H   0  0  0  0  0  0  0  0  0  0  0  0
  1  2  1  0  0  0  0
  1 24  1  0  0  0  0
  1 25  1  0  0  0  0
  2  3  1  0  0  0  0
  3 26  1  0  0  0  0
  3 28  1  0  0  0  0
  4  2  1  0  0  0  0
  5 29  1  0  0  0  0
  5  4  1  0  0  0  0
  6  5  2  0  0  0  0
  7  8  2  0  0  0  0
  7  6  1  0  0  0  0
  8  9  1  0  0  0  0
  9 32  1  0  0  0  0
  9  4  2  0  0  0  0
 10  7  1  0  0  0  0
 11 10  1  0  0  0  0
 11 12  2  0  0  0  0
 13 11  1  0  0  0  0
 14 15  2  0  0  0  0
 14 13  1  0  0  0  0
 16 17  1  0  0  0  0
 16 14  1  0  0  0  0
 17 22  1  0  0  0  0
 18 17  2  0  0  0  0
 18 19  1  0  0  0  0
 19 20  2  0  0  0  0
 20 21  1  0  0  0  0
 20 39  1  0  0  0  0
 21 40  1  0  0  0  0
 22 41  1  0  0  0  0
 22 21  2  0  0  0  0
 23  1  1  0  0  0  0
 27  3  1  0  0  0  0
 30  6  1  0  0  0  0
 31  8  1  0  0  0  0
 33 10  1  0  0  0  0
 34 13  1  0  0  0  0
 35 16  1  0  0  0  0
 36 16  1  0  0  0  0
 37 18  1  0  0  0  0
 38 19  1  0  0  0  0
M  END
$$$$
