41

C          0.01530        0.26500       -0.25190
N          1.40320       -0.04530       -0.00030
C          2.02210        0.40860        1.22370
C          2.04440       -0.99750       -0.77940
C          1.41650       -1.57460       -1.90810
C          2.07470       -2.51550       -2.69330
C          3.37970       -2.93440       -2.39460
C          4.01230       -2.38040       -1.27150
C          3.35500       -1.43800       -0.48360
N          3.97040       -3.89200       -3.24280
C          5.20780       -4.43400       -3.14050
O          6.05610       -4.20490       -2.29790
N          5.51230       -5.38300       -4.16340
C          4.74800       -5.81420       -5.21280
O          3.61280       -5.41630       -5.43700
C          5.38950       -6.86560       -6.12390
C          6.82710       -7.21820       -5.84300
C          7.15060       -8.25570       -4.95490
C          8.48270       -8.54650       -4.65070
C          9.51250       -7.80130       -5.23120
C          9.20290       -6.76500       -6.11660
C          7.87040       -6.47610       -6.41840
H         -0.13720        0.64710       -1.27680
H         -0.31530        1.04790        0.44290
H         -0.65300       -0.61030       -0.12330
H          1.38590        1.17020        1.69310
H          3.00680        0.87080        1.03460
H          2.17640       -0.40780        1.95750
H          0.40260       -1.29020       -2.18480
H          1.55930       -2.93890       -3.56000
H          5.02170       -2.69670       -1.01930
H          3.88590       -1.04050        0.38010
H          3.41990       -4.23210       -4.03700
H          6.44810       -5.76570       -4.06050
H          5.26200       -6.48210       -7.14800
H          4.74090       -7.75330       -6.04980
H          6.34820       -8.84060       -4.49690
H          8.71680       -9.35860       -3.95840
H         10.55450       -8.02730       -4.99370
H         10.00290       -6.17860       -6.57460
H          7.63320       -5.66240       -7.10920
