31
rmsd111.gzmat
C          0.00000        0.00000        0.00000
O          1.16810        0.00000        0.00000
C         -0.74870        0.00000       -3.92130
N         -0.21670       -1.09530       -3.42490
C         -0.74080       -1.84690       -2.42360
S          0.22100       -3.23100       -2.02880
C          1.41670       -2.76120       -3.26770
C          1.02140       -1.61610       -3.90030
N          2.55070       -3.52070       -3.47090
C          3.53450       -3.17160       -4.41420
O          3.44690       -2.16300       -5.06780
C          4.68800       -4.14710       -4.51470
C          4.19570       -5.50720       -4.89790
C          3.63560       -5.70610       -6.16220
C          3.15020       -6.96120       -6.51780
C          3.22660       -8.02120       -5.61520
C          3.79530       -7.82490       -4.35840
C          4.28060       -6.56920       -3.99730
O         -1.16780        0.01810        0.02720
H         -0.28630        0.56170       -4.71230
H         -1.68660        0.39080       -3.56800
H         -1.67900       -1.63370       -1.94960
H          1.54050       -1.09110       -4.69500
H          2.64080       -4.40350       -2.97060
H          5.26630       -4.15770       -3.56630
H          5.41040       -3.76720       -5.27800
H          3.57270       -4.87710       -6.86740
H          2.70830       -7.11410       -7.50180
H          2.84310       -9.00120       -5.89300
H          3.86010       -8.65360       -3.65580
H          4.72990       -6.42740       -3.01690
