rmsd111.gzmat
 OpenBabel08211713363D

 31 31  0  0  0  0  0  0  0  0999 V2000
    0.0000    0.0000    0.0000 C   0  0  0  0  0  0  0  0  0  0  0  0
    1.1681    0.0000    0.0000 O   0  0  0  0  0  0  0  0  0  0  0  0
   -0.7487    0.0000   -3.9213 C   0  0  0  0  0  0  0  0  0  0  0  0
   -0.2167   -1.0953   -3.4249 N   0  0  0  0  0  0  0  0  0  0  0  0
   -0.7408   -1.8469   -2.4236 C   0  0  0  0  0  0  0  0  0  0  0  0
    0.2210   -3.2310   -2.0288 S   0  0  0  0  0  0  0  0  0  0  0  0
    1.4167   -2.7612   -3.2677 C   0  0  0  0  0  0  0  0  0  0  0  0
    1.0214   -1.6161   -3.9003 C   0  0  0  0  0  0  0  0  0  0  0  0
    2.5507   -3.5207   -3.4709 N   0  0  0  0  0  0  0  0  0  0  0  0
    3.5345   -3.1716   -4.4142 C   0  0  0  0  0  0  0  0  0  0  0  0
    3.4469   -2.1630   -5.0678 O   0  0  0  0  0  0  0  0  0  0  0  0
    4.6880   -4.1471   -4.5147 C   0  0  0  0  0  0  0  0  0  0  0  0
    4.1957   -5.5072   -4.8979 C   0  0  0  0  0  0  0  0  0  0  0  0
    3.6356   -5.7061   -6.1622 C   0  0  0  0  0  0  0  0  0  0  0  0
    3.1502   -6.9612   -6.5178 C   0  0  0  0  0  0  0  0  0  0  0  0
    3.2266   -8.0212   -5.6152 C   0  0  0  0  0  0  0  0  0  0  0  0
    3.7953   -7.8249   -4.3584 C   0  0  0  0  0  0  0  0  0  0  0  0
    4.2806   -6.5692   -3.9973 C   0  0  0  0  0  0  0  0  0  0  0  0
   -1.1678    0.0181    0.0272 O   0  0  0  0  0  0  0  0  0  0  0  0
   -0.2863    0.5617   -4.7123 H   0  0  0  0  0  0  0  0  0  0  0  0
   -1.6866    0.3908   -3.5680 H   0  0  0  0  0  0  0  0  0  0  0  0
   -1.6790   -1.6337   -1.9496 H   0  0  0  0  0  0  0  0  0  0  0  0
    1.5405   -1.0911   -4.6950 H   0  0  0  0  0  0  0  0  0  0  0  0
    2.6408   -4.4035   -2.9706 H   0  0  0  0  0  0  0  0  0  0  0  0
    5.2663   -4.1577   -3.5663 H   0  0  0  0  0  0  0  0  0  0  0  0
    5.4104   -3.7672   -5.2780 H   0  0  0  0  0  0  0  0  0  0  0  0
    3.5727   -4.8771   -6.8674 H   0  0  0  0  0  0  0  0  0  0  0  0
    2.7083   -7.1141   -7.5018 H   0  0  0  0  0  0  0  0  0  0  0  0
    2.8431   -9.0012   -5.8930 H   0  0  0  0  0  0  0  0  0  0  0  0
    3.8601   -8.6536   -3.6558 H   0  0  0  0  0  0  0  0  0  0  0  0
    4.7299   -6.4274   -3.0169 H   0  0  0  0  0  0  0  0  0  0  0  0
  1 19  2  0  0  0  0
  2  1  2  0  0  0  0
  3 21  1  0  0  0  0
  3  4  1  0  0  0  0
  4  5  1  0  0  0  0
  5  6  1  0  0  0  0
  5 22  1  0  0  0  0
  7  6  1  0  0  0  0
  8  4  1  0  0  0  0
  8  7  2  0  0  0  0
  9  7  1  0  0  0  0
  9 24  1  0  0  0  0
 10  9  1  0  0  0  0
 11 10  2  0  0  0  0
 12 10  1  0  0  0  0
 12 25  1  0  0  0  0
 13 12  1  0  0  0  0
 13 18  2  0  0  0  0
 14 13  1  0  0  0  0
 15 14  2  0  0  0  0
 15 16  1  0  0  0  0
 16 17  2  0  0  0  0
 17 18  1  0  0  0  0
 17 30  1  0  0  0  0
 18 31  1  0  0  0  0
 20  3  1  0  0  0  0
 23  8  1  0  0  0  0
 26 12  1  0  0  0  0
 27 14  1  0  0  0  0
 28 15  1  0  0  0  0
 29 16  1  0  0  0  0
M  RAD  1   3   2
M  END
$$$$
