31
rmsd45.gzmat
C          0.00000        0.00000        0.00000
O          1.17000        0.00000        0.00000
C         -3.38320        0.00000       -3.61410
N         -2.30300        0.62230       -4.03230
C         -1.89170        0.72010       -5.32170
S         -0.41760        1.60680       -5.50610
C         -0.34800        1.87200       -3.74520
C         -1.41900        1.28610       -3.13180
N          0.69920        2.58000       -3.18480
C          0.83460        2.75420       -1.80110
O          0.05000        2.24990       -1.03110
C          2.02590        3.56940       -1.35370
C          2.22230        4.79850       -2.18170
C          1.24540        5.79760       -2.17710
C          1.41360        6.93770       -2.95770
C          2.55780        7.08630       -3.74100
C          3.53620        6.09430       -3.73800
C          3.37050        4.94990       -2.95990
O         -1.16650       -0.05750        0.01670
H         -3.65860       -0.04760       -2.57580
H         -4.05230       -0.50040       -4.29060
H         -2.42210        0.29310       -6.14830
H         -1.65700        1.28300       -2.07270
H          1.36400        3.03880       -3.80830
H          2.92870        2.91670       -1.34600
H          1.88270        3.84650       -0.27930
H          0.35040        5.68360       -1.56540
H          0.64990        7.71440       -2.95750
H          2.68680        7.97800       -4.35190
H          4.43310        6.21340       -4.34380
H          4.14270        4.18320       -2.95750
