rmsd84.gzmat
 OpenBabel08211713363D

 31 31  0  0  0  0  0  0  0  0999 V2000
    0.0000    0.0000    0.0000 C   0  0  0  0  0  0  0  0  0  0  0  0
    1.1688    0.0000    0.0000 O   0  0  0  0  0  0  0  0  0  0  0  0
    0.3593    0.0000   -3.8877 C   0  0  0  0  0  0  0  0  0  0  0  0
   -0.1565   -1.0824   -3.3478 N   0  0  0  0  0  0  0  0  0  0  0  0
    0.4510   -1.8741   -2.4279 C   0  0  0  0  0  0  0  0  0  0  0  0
   -0.5126   -3.2287   -1.9445 S   0  0  0  0  0  0  0  0  0  0  0  0
   -1.8299   -2.6821   -3.0183 C   0  0  0  0  0  0  0  0  0  0  0  0
   -1.4656   -1.5401   -3.6753 C   0  0  0  0  0  0  0  0  0  0  0  0
   -3.0014   -3.4049   -3.1095 N   0  0  0  0  0  0  0  0  0  0  0  0
   -4.0609   -3.0213   -3.9506 C   0  0  0  0  0  0  0  0  0  0  0  0
   -3.9827   -2.0367   -4.6431 O   0  0  0  0  0  0  0  0  0  0  0  0
   -5.2586   -3.9468   -3.9625 C   0  0  0  0  0  0  0  0  0  0  0  0
   -5.5985   -4.4885   -2.6115 C   0  0  0  0  0  0  0  0  0  0  0  0
   -6.2684   -3.6830   -1.6883 C   0  0  0  0  0  0  0  0  0  0  0  0
   -6.5815   -4.1841   -0.4272 C   0  0  0  0  0  0  0  0  0  0  0  0
   -6.2234   -5.4868   -0.0832 C   0  0  0  0  0  0  0  0  0  0  0  0
   -5.5545   -6.2906   -1.0044 C   0  0  0  0  0  0  0  0  0  0  0  0
   -5.2439   -5.7953   -2.2689 C   0  0  0  0  0  0  0  0  0  0  0  0
   -1.1675    0.0213    0.0309 O   0  0  0  0  0  0  0  0  0  0  0  0
    1.3510    0.3413   -3.6479 H   0  0  0  0  0  0  0  0  0  0  0  0
   -0.1718    0.5997   -4.6038 H   0  0  0  0  0  0  0  0  0  0  0  0
    1.4470   -1.7089   -2.0665 H   0  0  0  0  0  0  0  0  0  0  0  0
   -2.0560   -0.9755   -4.3891 H   0  0  0  0  0  0  0  0  0  0  0  0
   -3.1233   -4.2124   -2.4978 H   0  0  0  0  0  0  0  0  0  0  0  0
   -5.0722   -4.7609   -4.7001 H   0  0  0  0  0  0  0  0  0  0  0  0
   -6.1275   -3.3873   -4.3891 H   0  0  0  0  0  0  0  0  0  0  0  0
   -6.5441   -2.6622   -1.9516 H   0  0  0  0  0  0  0  0  0  0  0  0
   -7.1074   -3.5570    0.2917 H   0  0  0  0  0  0  0  0  0  0  0  0
   -6.4678   -5.8764    0.9034 H   0  0  0  0  0  0  0  0  0  0  0  0
   -5.2755   -7.3082   -0.7364 H   0  0  0  0  0  0  0  0  0  0  0  0
   -4.7329   -6.4337   -2.9872 H   0  0  0  0  0  0  0  0  0  0  0  0
  1  2  2  0  0  0  0
  1 19  2  0  0  0  0
  3 20  1  0  0  0  0
  3  4  1  0  0  0  0
  4  5  1  0  0  0  0
  5 22  1  0  0  0  0
  5  6  1  0  0  0  0
  7  6  1  0  0  0  0
  8  4  1  0  0  0  0
  8  7  2  0  0  0  0
  9  7  1  0  0  0  0
  9 24  1  0  0  0  0
 10  9  1  0  0  0  0
 11 10  2  0  0  0  0
 12 10  1  0  0  0  0
 12 13  1  0  0  0  0
 13 18  2  0  0  0  0
 13 14  1  0  0  0  0
 14 15  2  0  0  0  0
 15 16  1  0  0  0  0
 15 28  1  0  0  0  0
 16 29  1  0  0  0  0
 17 30  1  0  0  0  0
 17 16  2  0  0  0  0
 18 17  1  0  0  0  0
 21  3  1  0  0  0  0
 23  8  1  0  0  0  0
 25 12  1  0  0  0  0
 26 12  1  0  0  0  0
 27 14  1  0  0  0  0
 31 18  1  0  0  0  0
M  RAD  1   3   2
M  END
$$$$
