rmsd104.gzmat
 OpenBabel08211713363D

 31 31  0  0  0  0  0  0  0  0999 V2000
    0.0000    0.0000    0.0000 C   0  0  0  0  0  0  0  0  0  0  0  0
    1.1683    0.0000    0.0000 O   0  0  0  0  0  0  0  0  0  0  0  0
    0.2658    0.0000   -4.0988 C   0  0  0  0  0  0  0  0  0  0  0  0
    0.3855   -1.1088   -3.4022 N   0  0  0  0  0  0  0  0  0  0  0  0
   -0.5615   -1.6373   -2.5860 C   0  0  0  0  0  0  0  0  0  0  0  0
   -0.0702   -3.1168   -1.8322 S   0  0  0  0  0  0  0  0  0  0  0  0
    1.5231   -3.0006   -2.6302 C   0  0  0  0  0  0  0  0  0  0  0  0
    1.5801   -1.8861   -3.4188 C   0  0  0  0  0  0  0  0  0  0  0  0
    2.4845   -3.9669   -2.4167 N   0  0  0  0  0  0  0  0  0  0  0  0
    3.7307   -3.9482   -3.0688 C   0  0  0  0  0  0  0  0  0  0  0  0
    3.9965   -3.1036   -3.8867 O   0  0  0  0  0  0  0  0  0  0  0  0
    4.6694   -5.0738   -2.6907 C   0  0  0  0  0  0  0  0  0  0  0  0
    4.7674   -5.2454   -1.2082 C   0  0  0  0  0  0  0  0  0  0  0  0
    4.2250   -6.3747   -0.5929 C   0  0  0  0  0  0  0  0  0  0  0  0
    4.3012   -6.5145    0.7915 C   0  0  0  0  0  0  0  0  0  0  0  0
    4.9224   -5.5327    1.5611 C   0  0  0  0  0  0  0  0  0  0  0  0
    5.4725   -4.4095    0.9446 C   0  0  0  0  0  0  0  0  0  0  0  0
    5.3953   -4.2640   -0.4379 C   0  0  0  0  0  0  0  0  0  0  0  0
   -1.1682    0.0240    0.0289 O   0  0  0  0  0  0  0  0  0  0  0  0
    1.0559    0.3816   -4.7195 H   0  0  0  0  0  0  0  0  0  0  0  0
   -0.6362    0.5859   -4.0907 H   0  0  0  0  0  0  0  0  0  0  0  0
   -1.5344   -1.2086   -2.4463 H   0  0  0  0  0  0  0  0  0  0  0  0
    2.4146   -1.5522   -4.0264 H   0  0  0  0  0  0  0  0  0  0  0  0
    2.3133   -4.6749   -1.7031 H   0  0  0  0  0  0  0  0  0  0  0  0
    5.6761   -4.8550   -3.1246 H   0  0  0  0  0  0  0  0  0  0  0  0
    4.3485   -6.0085   -3.2013 H   0  0  0  0  0  0  0  0  0  0  0  0
    3.7498   -7.1523   -1.1879 H   0  0  0  0  0  0  0  0  0  0  0  0
    3.8750   -7.3932    1.2723 H   0  0  0  0  0  0  0  0  0  0  0  0
    4.9791   -5.6429    2.6424 H   0  0  0  0  0  0  0  0  0  0  0  0
    5.9632   -3.6441    1.5451 H   0  0  0  0  0  0  0  0  0  0  0  0
    5.8201   -3.3817   -0.9168 H   0  0  0  0  0  0  0  0  0  0  0  0
  1  2  2  0  0  0  0
  1 19  2  0  0  0  0
  3 21  1  0  0  0  0
  3  4  1  0  0  0  0
  4  5  1  0  0  0  0
  5 22  1  0  0  0  0
  5  6  1  0  0  0  0
  7  9  1  0  0  0  0
  7  6  1  0  0  0  0
  8  4  1  0  0  0  0
  8  7  2  0  0  0  0
  9 24  1  0  0  0  0
 10 12  1  0  0  0  0
 10  9  1  0  0  0  0
 11 10  2  0  0  0  0
 12 13  1  0  0  0  0
 13 14  2  0  0  0  0
 13 18  1  0  0  0  0
 14 15  1  0  0  0  0
 15 28  1  0  0  0  0
 15 16  2  0  0  0  0
 16 29  1  0  0  0  0
 17 30  1  0  0  0  0
 17 16  1  0  0  0  0
 18 17  2  0  0  0  0
 20  3  1  0  0  0  0
 23  8  1  0  0  0  0
 25 12  1  0  0  0  0
 26 12  1  0  0  0  0
 27 14  1  0  0  0  0
 31 18  1  0  0  0  0
M  RAD  1   3   2
M  END
$$$$
