rmsd206.gzmat
 OpenBabel08211713403D

 47 49  0  0  1  0  0  0  0  0999 V2000
    0.0000    0.0000    0.0000 Br  0  0  0  0  0  0  0  0  0  0  0  0
    1.8839    0.0000    0.0000 C   0  0  0  0  0  0  0  0  0  0  0  0
    2.6226    0.0000    1.1064 C   0  0  0  0  0  0  0  0  0  0  0  0
    2.0743    0.0859    2.4706 C   0  0  2  0  0  0  0  0  0  0  0  0
    1.7488    1.1190    2.6976 H   0  0  0  0  0  0  0  0  0  0  0  0
    2.6588   -0.7278    3.6144 C   0  0  0  0  0  0  0  0  0  0  0  0
    3.7716   -1.7059    3.3597 C   0  0  0  0  0  0  0  0  0  0  0  0
    2.7618   -0.0663    4.9659 C   0  0  0  0  0  0  0  0  0  0  0  0
    1.2436   -1.0236    3.1016 C   0  0  2  0  0  0  0  0  0  0  0  0
    0.3960   -0.7114    3.7395 H   0  0  0  0  0  0  0  0  0  0  0  0
    0.9174   -2.2885    2.4194 C   0  0  0  0  0  0  0  0  0  0  0  0
    0.0184   -3.0433    2.6804 O   0  0  0  0  0  0  0  0  0  0  0  0
    1.7871   -2.5456    1.3943 O   0  0  0  0  0  0  0  0  0  0  0  0
    1.6134   -3.7898    0.7062 C   0  0  2  0  0  0  0  0  0  0  0  0
    0.5127   -4.0101    0.6020 H   0  0  0  0  0  0  0  0  0  0  0  0
    2.2748   -4.8361    1.4816 C   0  0  0  0  0  0  0  0  0  0  0  0
    2.8018   -5.6557    2.1022 N   0  0  0  0  0  0  0  0  0  0  0  0
    2.2912   -3.5643   -0.6211 C   0  0  0  0  0  0  0  0  0  0  0  0
    1.5120   -3.5319   -1.7764 C   0  0  0  0  0  0  0  0  0  0  0  0
    2.1513   -3.2947   -2.9911 C   0  0  0  0  0  0  0  0  0  0  0  0
    3.5378   -3.1078   -3.0810 C   0  0  0  0  0  0  0  0  0  0  0  0
    4.2874   -3.1459   -1.9128 C   0  0  0  0  0  0  0  0  0  0  0  0
    3.6688   -3.3671   -0.6800 C   0  0  0  0  0  0  0  0  0  0  0  0
    1.5258   -3.2764   -4.2072 O   0  0  0  0  0  0  0  0  0  0  0  0
    0.1474   -3.1858   -4.2198 C   0  0  0  0  0  0  0  0  0  0  0  0
   -0.5299   -2.1449   -3.5886 C   0  0  0  0  0  0  0  0  0  0  0  0
   -1.9123   -2.0758   -3.7401 C   0  0  0  0  0  0  0  0  0  0  0  0
   -2.5850   -3.0237   -4.5120 C   0  0  0  0  0  0  0  0  0  0  0  0
   -1.8811   -4.0477   -5.1459 C   0  0  0  0  0  0  0  0  0  0  0  0
   -0.4993   -4.1422   -5.0025 C   0  0  0  0  0  0  0  0  0  0  0  0
    2.6751    0.0063   -1.7122 Br  0  0  0  0  0  0  0  0  0  0  0  0
    3.7196   -0.0225    1.0661 H   0  0  0  0  0  0  0  0  0  0  0  0
    3.7363   -2.1477    2.3527 H   0  0  0  0  0  0  0  0  0  0  0  0
    3.7373   -2.5425    4.0731 H   0  0  0  0  0  0  0  0  0  0  0  0
    4.7557   -1.2292    3.4613 H   0  0  0  0  0  0  0  0  0  0  0  0
    1.9449    0.6385    5.1622 H   0  0  0  0  0  0  0  0  0  0  0  0
    3.7023    0.4942    5.0595 H   0  0  0  0  0  0  0  0  0  0  0  0
    2.7448   -0.8111    5.7745 H   0  0  0  0  0  0  0  0  0  0  0  0
    0.4360   -3.6868   -1.7317 H   0  0  0  0  0  0  0  0  0  0  0  0
    4.0001   -2.9375   -4.0505 H   0  0  0  0  0  0  0  0  0  0  0  0
    5.3666   -3.0008   -1.9561 H   0  0  0  0  0  0  0  0  0  0  0  0
    4.2650   -3.3857    0.2296 H   0  0  0  0  0  0  0  0  0  0  0  0
    0.0096   -1.4058   -3.0008 H   0  0  0  0  0  0  0  0  0  0  0  0
   -2.4697   -1.2767   -3.2529 H   0  0  0  0  0  0  0  0  0  0  0  0
   -3.6657   -2.9632   -4.6212 H   0  0  0  0  0  0  0  0  0  0  0  0
   -2.4128   -4.7806   -5.7515 H   0  0  0  0  0  0  0  0  0  0  0  0
    0.0709   -4.9326   -5.4839 H   0  0  0  0  0  0  0  0  0  0  0  0
  1  2  1  0  0  0  0
  2  3  2  0  0  0  0
  3  4  1  0  0  0  0
  4  5  1  1  0  0  0
  4  9  1  0  0  0  0
  4  6  1  0  0  0  0
  6  8  1  0  0  0  0
  7 35  1  0  0  0  0
  7  6  1  0  0  0  0
  7 34  1  0  0  0  0
  8 37  1  0  0  0  0
  8 36  1  0  0  0  0
  8 38  1  0  0  0  0
  9  6  1  0  0  0  0
  9 10  1  1  0  0  0
 11 12  2  0  0  0  0
 11  9  1  0  0  0  0
 13 11  1  0  0  0  0
 14 15  1  6  0  0  0
 14 13  1  0  0  0  0
 14 16  1  0  0  0  0
 16 17  3  0  0  0  0
 18 14  1  0  0  0  0
 19 39  1  0  0  0  0
 19 18  2  0  0  0  0
 20 19  1  0  0  0  0
 21 20  2  0  0  0  0
 21 22  1  0  0  0  0
 22 23  2  0  0  0  0
 23 18  1  0  0  0  0
 23 42  1  0  0  0  0
 24 20  1  0  0  0  0
 25 24  1  0  0  0  0
 25 26  2  0  0  0  0
 26 43  1  0  0  0  0
 27 26  1  0  0  0  0
 27 44  1  0  0  0  0
 28 27  2  0  0  0  0
 29 30  2  0  0  0  0
 29 28  1  0  0  0  0
 30 25  1  0  0  0  0
 31  2  1  0  0  0  0
 32  3  1  0  0  0  0
 33  7  1  0  0  0  0
 40 21  1  0  0  0  0
 41 22  1  0  0  0  0
 45 28  1  0  0  0  0
 46 29  1  0  0  0  0
 47 30  1  0  0  0  0
M  END
$$$$
