47
rmsd44.gzmat
Br         0.00000        0.00000        0.00000
C          1.88400        0.00000        0.00000
C          2.62180        0.00000        1.10720
C          2.06710        0.09210        2.46830
H          1.72300        1.12210        2.68200
C          2.65760       -0.69760        3.62570
C          3.78680       -1.66100        3.38850
C          2.73820       -0.01970        4.97020
C          1.25170       -1.02440        3.10640
H          0.39270       -0.72090        3.73280
C          0.96170       -2.31050        2.44830
O          0.11560       -3.10710        2.75920
O          1.79630       -2.53450        1.38650
C          1.66300       -3.80260        0.73270
H          0.57690       -4.10750        0.71790
C          2.45660       -4.77510        1.48010
N          3.08570       -5.53270        2.08290
C          2.21250       -3.56580       -0.65040
C          1.32070       -3.48220       -1.71830
C          1.84230       -3.27020       -2.99320
C          3.21730       -3.14000       -3.22580
C          4.08050       -3.21480       -2.13990
C          3.58370       -3.42210       -0.85120
O          1.08280       -3.23640       -4.13160
C         -0.26440       -2.96680       -3.96580
C         -1.14940       -3.93620       -4.43220
C         -2.51300       -3.65490       -4.38350
C         -2.96300       -2.43670       -3.87440
C         -2.05390       -1.48120       -3.41820
C         -0.68680       -1.73860       -3.46240
Br         2.67850        0.00150       -1.71090
H          3.71870       -0.02790        1.06910
H          3.78100       -2.08950        2.37520
H          3.74410       -2.50780        4.08970
H          4.76250       -1.17530        3.52380
H          1.90670        0.67210        5.15160
H          3.66710        0.55960        5.06510
H          2.72780       -0.75700        5.78600
H          0.24750       -3.57650       -1.56500
H          3.58460       -2.98220       -4.23710
H          5.15470       -3.10950       -2.29220
H          4.27030       -3.47310       -0.00860
H         -0.77660       -4.87960       -4.82350
H         -3.22950       -4.39310       -4.74100
H         -4.03020       -2.22940       -3.83360
H         -2.41280       -0.53030       -3.02630
H          0.03780       -1.00350       -3.12140
