
     RDKit          3D

 47 49  0  0  0  0  0  0  0  0999 V2000
   -0.1437   -0.2714   -0.1782 Br  0  0  0  0  0  0  0  0  0  0  0  0
    1.7164    0.0656   -0.0153 C   0  0  0  0  0  0  0  0  0  0  0  0
    2.3223    0.1169    1.1763 C   0  0  0  0  0  0  0  0  0  0  0  0
    1.6077   -0.0380    2.4690 C   0  0  2  0  0  0  0  0  0  0  0  0
    0.8258    0.7111    2.6371 H   0  0  0  0  0  0  0  0  0  0  0  0
    2.2617   -0.6075    3.6933 C   0  0  0  0  0  0  0  0  0  0  0  0
    3.7176   -1.0283    3.6510 C   0  0  0  0  0  0  0  0  0  0  0  0
    1.8329   -0.0301    5.0301 C   0  0  0  0  0  0  0  0  0  0  0  0
    1.1963   -1.4348    2.9753 C   0  0  2  0  0  0  0  0  0  0  0  0
    0.2172   -1.5007    3.4517 H   0  0  0  0  0  0  0  0  0  0  0  0
    1.5166   -2.5988    2.1182 C   0  0  0  0  0  0  0  0  0  0  0  0
    2.5278   -2.7695    1.4808 O   0  0  0  0  0  0  0  0  0  0  0  0
    0.4788   -3.4744    2.0946 O   0  0  0  0  0  0  0  0  0  0  0  0
    0.5356   -4.5479    1.1328 C   0  0  2  0  0  0  0  0  0  0  0  0
   -0.3398   -5.1562    1.4015 H   0  0  0  0  0  0  0  0  0  0  0  0
    1.7137   -5.4119    1.3277 C   0  0  0  0  0  0  0  0  0  0  0  0
    2.5838   -6.1593    1.4829 N   0  0  0  0  0  0  0  0  0  0  0  0
    0.3615   -4.0513   -0.2918 C   0  0  0  0  0  0  0  0  0  0  0  0
   -0.9467   -3.8087   -0.7326 C   0  0  0  0  0  0  0  0  0  0  0  0
   -1.1614   -3.3023   -2.0171 C   0  0  0  0  0  0  0  0  0  0  0  0
   -0.0775   -3.0450   -2.8641 C   0  0  0  0  0  0  0  0  0  0  0  0
    1.2178   -3.2911   -2.4157 C   0  0  0  0  0  0  0  0  0  0  0  0
    1.4487   -3.7930   -1.1318 C   0  0  0  0  0  0  0  0  0  0  0  0
   -2.4119   -3.0593   -2.5226 O   0  0  0  0  0  0  0  0  0  0  0  0
   -3.4766   -2.9353   -1.6560 C   0  0  0  0  0  0  0  0  0  0  0  0
   -4.4078   -3.9713   -1.5686 C   0  0  0  0  0  0  0  0  0  0  0  0
   -5.5115   -3.8311   -0.7221 C   0  0  0  0  0  0  0  0  0  0  0  0
   -5.6779   -2.6670    0.0334 C   0  0  0  0  0  0  0  0  0  0  0  0
   -4.7395   -1.6340   -0.0647 C   0  0  0  0  0  0  0  0  0  0  0  0
   -3.6373   -1.7629   -0.9113 C   0  0  0  0  0  0  0  0  0  0  0  0
    2.6513    0.2577   -1.6496 Br  0  0  0  0  0  0  0  0  0  0  0  0
    3.4046    0.2683    1.1825 H   0  0  0  0  0  0  0  0  0  0  0  0
    3.9906   -1.5023    2.7018 H   0  0  0  0  0  0  0  0  0  0  0  0
    3.9250   -1.7504    4.4567 H   0  0  0  0  0  0  0  0  0  0  0  0
    4.3630   -0.1496    3.8150 H   0  0  0  0  0  0  0  0  0  0  0  0
    0.7753    0.2751    5.0239 H   0  0  0  0  0  0  0  0  0  0  0  0
    2.4399    0.8562    5.2770 H   0  0  0  0  0  0  0  0  0  0  0  0
    1.9701   -0.7694    5.8355 H   0  0  0  0  0  0  0  0  0  0  0  0
   -1.7944   -4.0044   -0.0747 H   0  0  0  0  0  0  0  0  0  0  0  0
   -0.2745   -2.6449   -3.8598 H   0  0  0  0  0  0  0  0  0  0  0  0
    2.0641   -3.0763   -3.0711 H   0  0  0  0  0  0  0  0  0  0  0  0
    2.4636   -3.9636   -0.7758 H   0  0  0  0  0  0  0  0  0  0  0  0
   -4.2557   -4.8712   -2.1672 H   0  0  0  0  0  0  0  0  0  0  0  0
   -6.2445   -4.6384   -0.6530 H   0  0  0  0  0  0  0  0  0  0  0  0
   -6.5407   -2.5618    0.6947 H   0  0  0  0  0  0  0  0  0  0  0  0
   -4.8699   -0.7177    0.5159 H   0  0  0  0  0  0  0  0  0  0  0  0
   -2.9035   -0.9619   -1.0163 H   0  0  0  0  0  0  0  0  0  0  0  0
  1  2  1  0
  2  3  2  3
  2 31  1  0
  3  4  1  0
  3 32  1  0
  4  5  1  1
  4  6  1  0
  4  9  1  0
  6  7  1  0
  6  8  1  0
  6  9  1  0
  7 33  1  0
  7 34  1  0
  7 35  1  0
  8 36  1  0
  8 37  1  0
  8 38  1  0
  9 10  1  1
  9 11  1  0
 11 12  2  0
 11 13  1  0
 13 14  1  0
 14 15  1  1
 14 16  1  0
 14 18  1  0
 16 17  3  0
 18 19  2  0
 18 23  1  0
 19 20  1  0
 19 39  1  0
 20 21  2  0
 20 24  1  0
 21 22  1  0
 21 40  1  0
 22 23  2  0
 22 41  1  0
 23 42  1  0
 24 25  1  0
 25 26  2  0
 25 30  1  0
 26 27  1  0
 26 43  1  0
 27 28  2  0
 27 44  1  0
 28 29  1  0
 28 45  1  0
 29 30  2  0
 29 46  1  0
 30 47  1  0
M  END

