
     RDKit          3D

 47 49  0  0  0  0  0  0  0  0999 V2000
    2.6696    1.0636   -0.9669 Br  0  0  0  0  0  0  0  0  0  0  0  0
    4.2960    1.2796   -0.0038 C   0  0  0  0  0  0  0  0  0  0  0  0
    4.3610    1.3813    1.3296 C   0  0  0  0  0  0  0  0  0  0  0  0
    3.1976    1.3393    2.2382 C   0  0  2  0  0  0  0  0  0  0  0  0
    2.3056    0.8863    1.7988 H   0  0  0  0  0  0  0  0  0  0  0  0
    2.9180    2.4413    3.2361 C   0  0  0  0  0  0  0  0  0  0  0  0
    3.8653    3.6192    3.3391 C   0  0  0  0  0  0  0  0  0  0  0  0
    1.4636    2.8017    3.4683 C   0  0  0  0  0  0  0  0  0  0  0  0
    3.3457    1.0598    3.7373 C   0  0  2  0  0  0  0  0  0  0  0  0
    2.5585    0.4564    4.1924 H   0  0  0  0  0  0  0  0  0  0  0  0
    4.6665    0.8478    4.3725 C   0  0  0  0  0  0  0  0  0  0  0  0
    5.7420    1.2444    3.9778 O   0  0  0  0  0  0  0  0  0  0  0  0
    4.5254    0.1401    5.5178 O   0  0  0  0  0  0  0  0  0  0  0  0
    5.7284   -0.0767    6.2902 C   0  0  2  0  0  0  0  0  0  0  0  0
    6.5735   -0.1652    5.5913 H   0  0  0  0  0  0  0  0  0  0  0  0
    5.5494   -1.3623    6.9772 C   0  0  0  0  0  0  0  0  0  0  0  0
    5.4231   -2.3735    7.5256 N   0  0  0  0  0  0  0  0  0  0  0  0
    5.9736    1.0812    7.2390 C   0  0  0  0  0  0  0  0  0  0  0  0
    6.7922    2.1316    6.8070 C   0  0  0  0  0  0  0  0  0  0  0  0
    6.9740    3.2472    7.6309 C   0  0  0  0  0  0  0  0  0  0  0  0
    6.3544    3.3071    8.8853 C   0  0  0  0  0  0  0  0  0  0  0  0
    5.5502    2.2496    9.3089 C   0  0  0  0  0  0  0  0  0  0  0  0
    5.3494    1.1351    8.4904 C   0  0  0  0  0  0  0  0  0  0  0  0
    7.7812    4.2960    7.2898 O   0  0  0  0  0  0  0  0  0  0  0  0
    8.0708    4.5548    5.9667 C   0  0  0  0  0  0  0  0  0  0  0  0
    7.0538    4.7446    5.0252 C   0  0  0  0  0  0  0  0  0  0  0  0
    7.3919    5.0538    3.7071 C   0  0  0  0  0  0  0  0  0  0  0  0
    8.7329    5.1831    3.3309 C   0  0  0  0  0  0  0  0  0  0  0  0
    9.7393    5.0007    4.2832 C   0  0  0  0  0  0  0  0  0  0  0  0
    9.4127    4.6814    5.6039 C   0  0  0  0  0  0  0  0  0  0  0  0
    5.8541    1.3497   -1.0860 Br  0  0  0  0  0  0  0  0  0  0  0  0
    5.3494    1.5044    1.7759 H   0  0  0  0  0  0  0  0  0  0  0  0
    4.9171    3.3256    3.2546 H   0  0  0  0  0  0  0  0  0  0  0  0
    3.7301    4.1290    4.3069 H   0  0  0  0  0  0  0  0  0  0  0  0
    3.6400    4.3453    2.5416 H   0  0  0  0  0  0  0  0  0  0  0  0
    0.8044    1.9261    3.3699 H   0  0  0  0  0  0  0  0  0  0  0  0
    1.1364    3.5565    2.7350 H   0  0  0  0  0  0  0  0  0  0  0  0
    1.3229    3.2241    4.4766 H   0  0  0  0  0  0  0  0  0  0  0  0
    7.2636    2.0866    5.8261 H   0  0  0  0  0  0  0  0  0  0  0  0
    6.5203    4.1866    9.5096 H   0  0  0  0  0  0  0  0  0  0  0  0
    5.0714    2.2967   10.2895 H   0  0  0  0  0  0  0  0  0  0  0  0
    4.7194    0.3091    8.8257 H   0  0  0  0  0  0  0  0  0  0  0  0
    6.0109    4.6417    5.3273 H   0  0  0  0  0  0  0  0  0  0  0  0
    6.5997    5.1986    2.9693 H   0  0  0  0  0  0  0  0  0  0  0  0
    8.9912    5.4257    2.2980 H   0  0  0  0  0  0  0  0  0  0  0  0
   10.7890    5.1010    3.9974 H   0  0  0  0  0  0  0  0  0  0  0  0
   10.1810    4.5291    6.3637 H   0  0  0  0  0  0  0  0  0  0  0  0
  1  2  1  0
  2  3  2  3
  2 31  1  0
  3  4  1  0
  3 32  1  0
  4  5  1  6
  4  6  1  0
  4  9  1  0
  6  7  1  0
  6  8  1  0
  6  9  1  0
  7 33  1  0
  7 34  1  0
  7 35  1  0
  8 36  1  0
  8 37  1  0
  8 38  1  0
  9 10  1  1
  9 11  1  0
 11 12  2  0
 11 13  1  0
 13 14  1  0
 14 15  1  6
 14 16  1  0
 14 18  1  0
 16 17  3  0
 18 19  2  0
 18 23  1  0
 19 20  1  0
 19 39  1  0
 20 21  2  0
 20 24  1  0
 21 22  1  0
 21 40  1  0
 22 23  2  0
 22 41  1  0
 23 42  1  0
 24 25  1  0
 25 26  2  0
 25 30  1  0
 26 27  1  0
 26 43  1  0
 27 28  2  0
 27 44  1  0
 28 29  1  0
 28 45  1  0
 29 30  2  0
 29 46  1  0
 30 47  1  0
M  END

