47
rmsd18.gzmat
Br         0.00000        0.00000        0.00000
C          1.88390        0.00000        0.00000
C          2.62370        0.00000        1.10560
C          2.07840        0.08860        2.47060
H          1.73850        1.11850        2.69110
C          2.68350       -0.70740        3.61630
C          3.80440       -1.67400        3.35340
C          2.78800       -0.03870        4.96380
C          1.26850       -1.02620        3.11740
H          0.42310       -0.72020        3.76170
C          0.95910       -2.31090        2.46570
O          0.13970       -3.11790        2.81860
O          1.73300       -2.52050        1.35580
C          1.55970       -3.78080        0.69560
H          0.47700       -4.09410        0.75580
C          2.40710       -4.75870        1.37440
N          3.07880       -5.52220        1.92200
C          1.99910       -3.52930       -0.72420
C          1.02310       -3.31990       -1.69850
C          1.44180       -3.12490       -3.01330
C          2.79480       -3.12200       -3.37550
C          3.74500       -3.30880       -2.38000
C          3.35270       -3.50870       -1.05420
O          0.58730       -3.00220       -4.07600
C         -0.68070       -2.52310       -3.79950
C         -0.85850       -1.21550       -3.35240
C         -2.15930       -0.74090       -3.21060
C         -3.24440       -1.56360       -3.51620
C         -3.03850       -2.86660       -3.96980
C         -1.74550       -3.36460       -4.11440
Br         2.68210        0.00480       -1.71010
H          3.72100       -0.02420        1.06280
H          3.74500       -2.14140        2.35910
H          3.80740       -2.49260        4.08840
H          4.78270       -1.17840        3.41410
H          1.98830        0.69030        5.14350
H          3.74240        0.49560        5.06770
H          2.73920       -0.77840        5.77630
H         -0.03550       -3.30890       -1.44610
H          3.07770       -2.97340       -4.41490
H          4.80500       -3.29870       -2.63360
H          4.10950       -3.65040       -0.28470
H         -0.00020       -0.58580       -3.13360
H         -2.32770        0.27700       -2.86160
H         -4.25800       -1.18560       -3.40160
H         -3.89100       -3.50040       -4.20960
H         -1.56180       -4.37570       -4.46800
