47

Br         2.10100       -0.68840       -1.41010
C          3.73740       -0.96790       -0.49200
C          3.89050       -0.65800        0.79950
C          2.87480        0.03110        1.63720
H          2.66630        1.05400        1.30030
C          2.76370       -0.20560        3.11670
C          3.65670       -1.23630        3.77960
C          2.46370        0.99280        3.99820
C          1.61910       -0.64580        2.19910
H          0.72880       -0.01540        2.23630
C          1.21330       -2.04600        1.92670
O          0.06500       -2.42190        1.94370
O          2.25100       -2.87110        1.64280
C          1.91140       -4.21860        1.24940
H          0.98040       -4.50050        1.76300
C          3.00220       -5.07150        1.73870
N          3.86100       -5.74500        2.12370
C          1.70900       -4.29530       -0.25060
C          2.80430       -4.44280       -1.10470
C          2.61520       -4.41360       -2.48860
C          1.33100       -4.25360       -3.02360
C          0.24440       -4.10650       -2.16040
C          0.42180       -4.12150       -0.77600
O          3.72550       -4.60190       -3.26380
C          3.83300       -4.02530       -4.50830
C          3.46920       -2.69420       -4.74570
C          3.66370       -2.15240       -6.01740
C          4.22250       -2.92140       -7.04330
C          4.58920       -4.24630       -6.79010
C          4.39230       -4.80380       -5.52480
Br         5.12520       -1.75190       -1.51580
H          4.85680       -0.89710        1.25290
H          3.85920       -2.10160        3.13890
H          3.18980       -1.60470        4.70700
H          4.61860       -0.77270        4.05390
H          1.82490        1.72740        3.48480
H          3.39890        1.49980        4.28750
H          1.94920        0.67960        4.92090
H          3.81490       -4.57520       -0.71750
H          1.18830       -4.24430       -4.10470
H         -0.75750       -3.98070       -2.57730
H         -0.42370       -3.97690       -0.10270
H          3.04960       -2.09190       -3.93980
H          3.38340       -1.11260       -6.20270
H          4.37420       -2.48850       -8.03440
H          5.02850       -4.85520       -7.58390
H          4.66870       -5.83610       -5.30350
