rmsd8.gzmat
 OpenBabel08211713403D

 47 49  0  0  1  0  0  0  0  0999 V2000
    0.0000    0.0000    0.0000 Br  0  0  0  0  0  0  0  0  0  0  0  0
    1.8843    0.0000    0.0000 C   0  0  0  0  0  0  0  0  0  0  0  0
    2.6123    0.0000    1.1138 C   0  0  0  0  0  0  0  0  0  0  0  0
    2.0266    0.0648    2.4639 C   0  0  2  0  0  0  0  0  0  0  0  0
    1.5671    1.0531    2.6538 H   0  0  0  0  0  0  0  0  0  0  0  0
    2.6711   -0.6391    3.6464 C   0  0  0  0  0  0  0  0  0  0  0  0
    3.9071   -1.4714    3.4497 C   0  0  0  0  0  0  0  0  0  0  0  0
    2.6411    0.0604    4.9817 C   0  0  0  0  0  0  0  0  0  0  0  0
    1.3243   -1.1293    3.0967 C   0  0  2  0  0  0  0  0  0  0  0  0
    0.4191   -0.9213    3.6945 H   0  0  0  0  0  0  0  0  0  0  0  0
    1.2173   -2.4531    2.4580 C   0  0  0  0  0  0  0  0  0  0  0  0
    0.5620   -3.3881    2.8369 O   0  0  0  0  0  0  0  0  0  0  0  0
    1.9823   -2.5301    1.3245 O   0  0  0  0  0  0  0  0  0  0  0  0
    2.0938   -3.8235    0.7167 C   0  0  2  0  0  0  0  0  0  0  0  0
    1.1653   -4.4332    0.9289 H   0  0  0  0  0  0  0  0  0  0  0  0
    3.2623   -4.4667    1.3117 C   0  0  0  0  0  0  0  0  0  0  0  0
    4.1827   -4.9602    1.8054 N   0  0  0  0  0  0  0  0  0  0  0  0
    2.2325   -3.5508   -0.7587 C   0  0  0  0  0  0  0  0  0  0  0  0
    1.0774   -3.2046   -1.4611 C   0  0  0  0  0  0  0  0  0  0  0  0
    1.1819   -2.9768   -2.8310 C   0  0  0  0  0  0  0  0  0  0  0  0
    2.3968   -3.0959   -3.5158 C   0  0  0  0  0  0  0  0  0  0  0  0
    3.5343   -3.4239   -2.7893 C   0  0  0  0  0  0  0  0  0  0  0  0
    3.4593   -3.6420   -1.4117 C   0  0  0  0  0  0  0  0  0  0  0  0
    0.1071   -2.6977   -3.6379 O   0  0  0  0  0  0  0  0  0  0  0  0
   -0.8304   -1.8301   -3.0995 C   0  0  0  0  0  0  0  0  0  0  0  0
   -0.7169   -0.4811   -3.4312 C   0  0  0  0  0  0  0  0  0  0  0  0
   -1.7154    0.3872   -2.9980 C   0  0  0  0  0  0  0  0  0  0  0  0
   -2.7875   -0.0952   -2.2463 C   0  0  0  0  0  0  0  0  0  0  0  0
   -2.8781   -1.4507   -1.9310 C   0  0  0  0  0  0  0  0  0  0  0  0
   -1.8952   -2.3401   -2.3619 C   0  0  0  0  0  0  0  0  0  0  0  0
    2.6865   -0.0039   -1.7055 Br  0  0  0  0  0  0  0  0  0  0  0  0
    3.7088   -0.0195    1.0894 H   0  0  0  0  0  0  0  0  0  0  0  0
    3.9464   -1.9605    2.4652 H   0  0  0  0  0  0  0  0  0  0  0  0
    3.9780   -2.2710    4.2019 H   0  0  0  0  0  0  0  0  0  0  0  0
    4.8171   -0.8620    3.5380 H   0  0  0  0  0  0  0  0  0  0  0  0
    1.7235    0.6394    5.1411 H   0  0  0  0  0  0  0  0  0  0  0  0
    3.4855    0.7567    5.0809 H   0  0  0  0  0  0  0  0  0  0  0  0
    2.7138   -0.6610    5.8081 H   0  0  0  0  0  0  0  0  0  0  0  0
    0.1208   -3.1094   -0.9511 H   0  0  0  0  0  0  0  0  0  0  0  0
    2.4333   -2.9266   -4.5892 H   0  0  0  0  0  0  0  0  0  0  0  0
    4.4958   -3.5064   -3.2957 H   0  0  0  0  0  0  0  0  0  0  0  0
    4.3678   -3.8822   -0.8616 H   0  0  0  0  0  0  0  0  0  0  0  0
    0.1316   -0.1270   -4.0108 H   0  0  0  0  0  0  0  0  0  0  0  0
   -1.6539    1.4468   -3.2409 H   0  0  0  0  0  0  0  0  0  0  0  0
   -3.5594    0.5915   -1.9056 H   0  0  0  0  0  0  0  0  0  0  0  0
   -3.7201   -1.8175   -1.3460 H   0  0  0  0  0  0  0  0  0  0  0  0
   -1.9567   -3.4024   -2.1410 H   0  0  0  0  0  0  0  0  0  0  0  0
  1  2  1  0  0  0  0
  2  3  2  0  0  0  0
  3  4  1  0  0  0  0
  4  5  1  1  0  0  0
  4  9  1  0  0  0  0
  4  6  1  0  0  0  0
  6  8  1  0  0  0  0
  7 35  1  0  0  0  0
  7  6  1  0  0  0  0
  7 34  1  0  0  0  0
  8 37  1  0  0  0  0
  8 36  1  0  0  0  0
  8 38  1  0  0  0  0
  9  6  1  0  0  0  0
  9 10  1  1  0  0  0
 11 12  2  0  0  0  0
 11  9  1  0  0  0  0
 13 11  1  0  0  0  0
 14 15  1  1  0  0  0
 14 16  1  0  0  0  0
 14 13  1  0  0  0  0
 16 17  3  0  0  0  0
 18 14  1  0  0  0  0
 19 39  1  0  0  0  0
 19 18  2  0  0  0  0
 20 19  1  0  0  0  0
 21 20  2  0  0  0  0
 21 22  1  0  0  0  0
 22 23  2  0  0  0  0
 23 42  1  0  0  0  0
 23 18  1  0  0  0  0
 24 25  1  0  0  0  0
 24 20  1  0  0  0  0
 25 30  1  0  0  0  0
 26 25  2  0  0  0  0
 26 27  1  0  0  0  0
 27 28  2  0  0  0  0
 28 29  1  0  0  0  0
 28 45  1  0  0  0  0
 29 46  1  0  0  0  0
 30 47  1  0  0  0  0
 30 29  2  0  0  0  0
 31  2  1  0  0  0  0
 32  3  1  0  0  0  0
 33  7  1  0  0  0  0
 40 21  1  0  0  0  0
 41 22  1  0  0  0  0
 43 26  1  0  0  0  0
 44 27  1  0  0  0  0
M  END
$$$$
