47

Br         0.25130        0.58980        0.43230
C          2.12700        0.40610        0.21250
C          2.95280        0.25420        1.25210
C          2.53240        0.28350        2.67740
H          2.20060        1.27520        3.00890
C          3.18570       -0.57240        3.72580
C          4.28130       -1.54360        3.33050
C          3.38680        0.03780        5.10090
C          1.72800       -0.84070        3.33900
H          0.98530       -0.51570        4.06980
C          1.22800       -2.04890        2.63730
O          0.23160       -2.64740        2.95810
O          1.99880       -2.42020        1.57890
C          1.57330       -3.57520        0.83670
H          0.48600       -3.68220        0.96190
C          2.21110       -4.76870        1.42250
N          2.73320       -5.69250        1.88520
C          1.93310       -3.37760       -0.61960
C          0.92930       -2.99470       -1.51560
C          1.24850       -2.79190       -2.86340
C          2.56350       -2.96870       -3.31010
C          3.55640       -3.34130       -2.40600
C          3.25040       -3.54790       -1.05910
O          0.32070       -2.45940       -3.80870
C         -0.89470       -1.92720       -3.42690
C         -0.95740       -0.66310       -2.83470
C         -2.20230       -0.12930       -2.49870
C         -3.37430       -0.84680       -2.76020
C         -3.29750       -2.10720       -3.35990
C         -2.05540       -2.65550       -3.69220
Br         2.74200        0.38480       -1.57890
H          4.01400        0.11470        1.02650
H          4.13200       -1.96840        2.33220
H          4.32880       -2.37870        4.04730
H          5.25640       -1.02960        3.35110
H          2.58220        0.74420        5.35580
H          4.34360        0.58370        5.14250
H          3.41020       -0.74590        5.87500
H         -0.09540       -2.85650       -1.16920
H          2.78110       -2.80790       -4.36720
H          4.58170       -3.47560       -2.75760
H          4.02630       -3.85450       -0.35520
H         -0.03530       -0.11610       -2.63610
H         -2.25310        0.85700       -2.03150
H         -4.34630       -0.42330       -2.49820
H         -4.20940       -2.67190       -3.56770
H         -1.96900       -3.63910       -4.15710
