47
rmsd129.gzmat
Br         0.00000        0.00000        0.00000
C          1.88770        0.00000        0.00000
C          2.61850        0.00000        1.11210
C          2.03220       -0.00540        2.46300
H          1.47460       -0.93750        2.66770
C          1.51110        1.28180        3.08900
C          1.64580        2.58170        2.34610
C          0.26360        1.20550        3.93000
C          2.76820        0.60210        3.65200
H          2.67580        0.08650        4.62250
C          4.08250        1.24070        3.47040
O          4.63040        1.61110        2.46560
O          4.67280        1.37830        4.69860
C          5.96710        1.97980        4.73050
H          6.04460        2.75080        3.90970
C          6.96400        0.92600        4.55430
N          7.75680        0.09650        4.42160
C          6.11270        2.60900        6.09430
C          7.19260        3.46970        6.29980
C          7.35400        4.02980        7.56360
C          6.46220        3.77350        8.61380
C          5.38950        2.92550        8.37460
C          5.21340        2.33490        7.11920
O          8.34020        4.92450        7.88170
C          9.48490        4.90230        7.10810
C          9.92280        6.14740        6.65880
C         11.12710        6.20550        5.96170
C         11.85910        5.04240        5.72210
C         11.40070        3.81000        6.18910
C         10.20220        3.72750        6.89310
Br         2.68070        0.00920       -1.70840
H          3.71990        0.00210        1.07860
H          2.53420        2.61320        1.69500
H          1.72190        3.43260        3.03660
H          0.77710        2.76330        1.69730
H          0.16390        0.25390        4.46590
H         -0.63690        1.31910        3.30860
H          0.24310        2.00640        4.68260
H          7.89100        3.69690        5.49730
H          6.62210        4.23360        9.58620
H          4.68070        2.70980        9.17400
H          4.37230        1.66250        6.95280
H          9.33410        7.04000        6.85390
H         11.49440        7.16410        5.59740
H         12.79380        5.09690        5.16790
H         11.98060        2.90640        6.00200
H          9.83610        2.77530        7.27030
