rmsd89.gzmat
 OpenBabel08211713403D

 47 49  0  0  1  0  0  0  0  0999 V2000
    0.0000    0.0000    0.0000 Br  0  0  0  0  0  0  0  0  0  0  0  0
    1.8855    0.0000    0.0000 C   0  0  0  0  0  0  0  0  0  0  0  0
    2.6128    0.0000    1.1145 C   0  0  0  0  0  0  0  0  0  0  0  0
    2.0229    0.0806    2.4619 C   0  0  2  0  0  0  0  0  0  0  0  0
    1.5458    1.0649    2.6304 H   0  0  0  0  0  0  0  0  0  0  0  0
    2.6684   -0.5862    3.6653 C   0  0  0  0  0  0  0  0  0  0  0  0
    3.9193   -1.4038    3.5057 C   0  0  0  0  0  0  0  0  0  0  0  0
    2.6102    0.1447    4.9832 C   0  0  0  0  0  0  0  0  0  0  0  0
    1.3360   -1.1122    3.1140 C   0  0  2  0  0  0  0  0  0  0  0  0
    0.4213   -0.9087    3.6990 H   0  0  0  0  0  0  0  0  0  0  0  0
    1.2578   -2.4493    2.4989 C   0  0  0  0  0  0  0  0  0  0  0  0
    0.6045   -3.3841    2.8814 O   0  0  0  0  0  0  0  0  0  0  0  0
    2.0469   -2.5383    1.3832 O   0  0  0  0  0  0  0  0  0  0  0  0
    2.1686   -3.8371    0.7886 C   0  0  2  0  0  0  0  0  0  0  0  0
    1.2394   -4.4476    0.9974 H   0  0  0  0  0  0  0  0  0  0  0  0
    3.3331   -4.4723    1.3993 C   0  0  0  0  0  0  0  0  0  0  0  0
    4.2481   -4.9637    1.9044 N   0  0  0  0  0  0  0  0  0  0  0  0
    2.3182   -3.5769   -0.6885 C   0  0  0  0  0  0  0  0  0  0  0  0
    1.1643   -3.2402   -1.3986 C   0  0  0  0  0  0  0  0  0  0  0  0
    1.2737   -3.0180   -2.7684 C   0  0  0  0  0  0  0  0  0  0  0  0
    2.4972   -3.1303   -3.4449 C   0  0  0  0  0  0  0  0  0  0  0  0
    3.6297   -3.4520   -2.7108 C   0  0  0  0  0  0  0  0  0  0  0  0
    3.5482   -3.6692   -1.3326 C   0  0  0  0  0  0  0  0  0  0  0  0
    0.2323   -2.7003   -3.5959 O   0  0  0  0  0  0  0  0  0  0  0  0
   -0.9310   -2.2531   -2.9913 C   0  0  0  0  0  0  0  0  0  0  0  0
   -1.2006   -0.8896   -3.0861 C   0  0  0  0  0  0  0  0  0  0  0  0
   -2.4156   -0.4260   -2.5876 C   0  0  0  0  0  0  0  0  0  0  0  0
   -3.3201   -1.3138   -2.0045 C   0  0  0  0  0  0  0  0  0  0  0  0
   -3.0271   -2.6755   -1.9286 C   0  0  0  0  0  0  0  0  0  0  0  0
   -1.8224   -3.1633   -2.4291 C   0  0  0  0  0  0  0  0  0  0  0  0
    2.6838   -0.0072   -1.7066 Br  0  0  0  0  0  0  0  0  0  0  0  0
    3.7090   -0.0296    1.0910 H   0  0  0  0  0  0  0  0  0  0  0  0
    3.9804   -1.9167    2.5345 H   0  0  0  0  0  0  0  0  0  0  0  0
    3.9901   -2.1830    4.2792 H   0  0  0  0  0  0  0  0  0  0  0  0
    4.8192   -0.7795    3.5923 H   0  0  0  0  0  0  0  0  0  0  0  0
    1.7037    0.7515    5.0964 H   0  0  0  0  0  0  0  0  0  0  0  0
    3.4680    0.8218    5.0972 H   0  0  0  0  0  0  0  0  0  0  0  0
    2.6349   -0.5595    5.8271 H   0  0  0  0  0  0  0  0  0  0  0  0
    0.2085   -3.1435   -0.8872 H   0  0  0  0  0  0  0  0  0  0  0  0
    2.5402   -2.9574   -4.5174 H   0  0  0  0  0  0  0  0  0  0  0  0
    4.5949   -3.5339   -3.2111 H   0  0  0  0  0  0  0  0  0  0  0  0
    4.4539   -3.9084   -0.7782 H   0  0  0  0  0  0  0  0  0  0  0  0
   -0.4735   -0.2161   -3.5345 H   0  0  0  0  0  0  0  0  0  0  0  0
   -2.6555    0.6344   -2.6487 H   0  0  0  0  0  0  0  0  0  0  0  0
   -4.2613   -0.9413   -1.6058 H   0  0  0  0  0  0  0  0  0  0  0  0
   -3.7410   -3.3611   -1.4747 H   0  0  0  0  0  0  0  0  0  0  0  0
   -1.5802   -4.2221   -2.3905 H   0  0  0  0  0  0  0  0  0  0  0  0
  1  2  1  0  0  0  0
  2  3  2  0  0  0  0
  3  4  1  0  0  0  0
  4  5  1  1  0  0  0
  4  9  1  0  0  0  0
  4  6  1  0  0  0  0
  6  8  1  0  0  0  0
  7 35  1  0  0  0  0
  7  6  1  0  0  0  0
  7 34  1  0  0  0  0
  8 36  1  0  0  0  0
  8 37  1  0  0  0  0
  8 38  1  0  0  0  0
  9  6  1  0  0  0  0
  9 10  1  1  0  0  0
 11 12  2  0  0  0  0
 11  9  1  0  0  0  0
 13 11  1  0  0  0  0
 14 15  1  1  0  0  0
 14 13  1  0  0  0  0
 14 16  1  0  0  0  0
 16 17  3  0  0  0  0
 18 14  1  0  0  0  0
 19 39  1  0  0  0  0
 19 18  2  0  0  0  0
 20 19  1  0  0  0  0
 21 20  2  0  0  0  0
 21 22  1  0  0  0  0
 22 23  2  0  0  0  0
 23 42  1  0  0  0  0
 23 18  1  0  0  0  0
 24 25  1  0  0  0  0
 24 20  1  0  0  0  0
 25 30  1  0  0  0  0
 26 25  2  0  0  0  0
 26 27  1  0  0  0  0
 27 28  2  0  0  0  0
 28 29  1  0  0  0  0
 28 45  1  0  0  0  0
 29 46  1  0  0  0  0
 30 47  1  0  0  0  0
 30 29  2  0  0  0  0
 31  2  1  0  0  0  0
 32  3  1  0  0  0  0
 33  7  1  0  0  0  0
 40 21  1  0  0  0  0
 41 22  1  0  0  0  0
 43 26  1  0  0  0  0
 44 27  1  0  0  0  0
M  END
$$$$
