50
rmsd217.gzmat
C          0.00000        0.00000        0.00000
C          1.41250        0.00000        0.00000
C          2.13310        0.00000        1.18010
C          1.41210       -0.00260        2.37670
C         -0.04720       -0.01610        2.38190
C         -0.74490       -0.01600        1.18850
N         -0.49860       -0.00630        3.70040
C          0.60080        0.03270        4.48460
N          1.78630        0.01940        3.69630
H          2.72480        0.03370        4.11680
C          0.66680        0.09030        5.91090
C         -0.50320        0.13360        6.66750
C         -0.45270        0.16550        8.04980
C         -1.68170       -0.02190        8.87060
C         -1.97170       -1.53510        9.01260
N         -0.67360       -2.31560        8.81690
H         -0.29540       -2.11470        7.85830
H          0.04410       -1.97770        9.48650
H         -0.81240       -3.32260        8.93560
C          0.79680        0.35460        8.70090
C          1.97080        0.32950        8.00830
C          1.96410        0.12990        6.55900
O          3.00590       -0.02560        5.92250
C          3.25270        0.51700        8.68460
C          4.32770       -0.33780        8.42030
C          5.53100       -0.17480        9.10180
C          5.67290        0.84610       10.04020
C          4.61090        1.71350       10.28960
C          3.40460        1.55310        9.61360
C         -0.70860        0.04250       -1.27400
N         -1.69960        0.94400       -1.46470
H         -2.24450        1.00970       -2.30590
H         -1.91980        1.61090       -0.73250
N         -0.38160       -0.81190       -2.27150
H          1.95050        0.02780       -0.94850
H          3.22300        0.01490        1.18340
H         -1.83350       -0.04210        1.19640
H         -1.46620        0.11600        6.14640
H         -2.55680        0.48520        8.40980
H         -1.58020        0.45440        9.86710
H         -2.70110       -1.86840        8.24290
H         -2.39430       -1.77410       10.00970
H          0.80130        0.53500        9.77740
H          4.22780       -1.11410        7.66180
H          6.36510       -0.84200        8.89260
H          6.61560        0.97220       10.56980
H          4.72500        2.52170       11.01010
H          2.58430        2.24510        9.79170
H          0.32940       -1.51760       -2.12190
H         -0.80870       -0.79910       -3.18040
