rmsd220.gzmat
 OpenBabel08211713363D

 50 53  0  0  1  0  0  0  0  0999 V2000
    0.0000    0.0000    0.0000 C   0  0  0  0  0  0  0  0  0  0  0  0
    1.4125    0.0000    0.0000 C   0  0  0  0  0  0  0  0  0  0  0  0
    2.1320    0.0000    1.1805 C   0  0  0  0  0  0  0  0  0  0  0  0
    1.4092   -0.0041    2.3763 C   0  0  0  0  0  0  0  0  0  0  0  0
   -0.0500   -0.0230    2.3811 C   0  0  0  0  0  0  0  0  0  0  0  0
   -0.7469   -0.0196    1.1870 C   0  0  0  0  0  0  0  0  0  0  0  0
   -0.5012   -0.0141    3.7000 N   0  0  0  0  0  0  0  0  0  0  0  0
    0.5974    0.0295    4.4845 C   0  0  0  0  0  0  0  0  0  0  0  0
    1.7827    0.0178    3.6961 N   0  0  0  0  0  0  0  0  0  0  0  0
    2.7211    0.0469    4.1165 H   0  0  0  0  0  0  0  0  0  0  0  0
    0.6644    0.0971    5.9110 C   0  0  2  0  0  0  0  0  0  0  0  0
   -0.5037    0.1110    6.6717 C   0  0  0  0  0  0  0  0  0  0  0  0
   -0.4509    0.1808    8.0531 C   0  0  0  0  0  0  0  0  0  0  0  0
   -1.6705   -0.0097    8.8875 C   0  0  0  0  0  0  0  0  0  0  0  0
   -1.9061   -1.5219    9.1111 C   0  0  0  0  0  0  0  0  0  0  0  0
   -0.5724   -2.2576    9.0010 N   0  0  0  0  0  0  0  0  0  0  0  0
   -0.1611   -2.0760    8.0511 H   0  0  0  0  0  0  0  0  0  0  0  0
    0.1011   -1.8704    9.6883 H   0  0  0  0  0  0  0  0  0  0  0  0
   -0.6787   -3.2650    9.1499 H   0  0  0  0  0  0  0  0  0  0  0  0
    0.7937    0.4282    8.6939 C   0  0  0  0  0  0  0  0  0  0  0  0
    1.9662    0.4194    7.9986 C   0  0  0  0  0  0  0  0  0  0  0  0
    1.9619    0.1851    6.5542 C   0  0  0  0  0  0  0  0  0  0  0  0
    3.0070    0.0451    5.9193 O   0  0  0  0  0  0  0  0  0  0  0  0
    3.2431    0.6623    8.6670 C   0  0  0  0  0  0  0  0  0  0  0  0
    4.3397   -0.1729    8.4308 C   0  0  0  0  0  0  0  0  0  0  0  0
    5.5375    0.0418    9.1082 C   0  0  0  0  0  0  0  0  0  0  0  0
    5.6513    1.0944   10.0147 C   0  0  0  0  0  0  0  0  0  0  0  0
    4.5685    1.9446   10.2324 C   0  0  0  0  0  0  0  0  0  0  0  0
    3.3679    1.7321    9.5605 C   0  0  0  0  0  0  0  0  0  0  0  0
   -0.7039    0.0535   -1.2771 C   0  0  0  0  0  0  0  0  0  0  0  0
   -0.4050   -0.8247   -2.2621 N   0  0  0  0  0  0  0  0  0  0  0  0
   -0.8237   -0.8041   -3.1753 H   0  0  0  0  0  0  0  0  0  0  0  0
    0.2737   -1.5586   -2.0968 H   0  0  0  0  0  0  0  0  0  0  0  0
   -1.6567    0.9916   -1.4837 N   0  0  0  0  0  0  0  0  0  0  0  0
    1.9502    0.0260   -0.9489 H   0  0  0  0  0  0  0  0  0  0  0  0
    3.2219    0.0123    1.1851 H   0  0  0  0  0  0  0  0  0  0  0  0
   -1.8355   -0.0435    1.1926 H   0  0  0  0  0  0  0  0  0  0  0  0
   -1.4669    0.0445    6.1547 H   0  0  0  0  0  0  0  0  0  0  0  0
   -2.5653    0.4394    8.4048 H   0  0  0  0  0  0  0  0  0  0  0  0
   -1.5843    0.5228    9.8569 H   0  0  0  0  0  0  0  0  0  0  0  0
   -2.5957   -1.9292    8.3397 H   0  0  0  0  0  0  0  0  0  0  0  0
   -2.3520   -1.7198   10.1069 H   0  0  0  0  0  0  0  0  0  0  0  0
    0.7959    0.6409    9.7643 H   0  0  0  0  0  0  0  0  0  0  0  0
    4.2602   -0.9746    7.6970 H   0  0  0  0  0  0  0  0  0  0  0  0
    6.3891   -0.6092    8.9195 H   0  0  0  0  0  0  0  0  0  0  0  0
    6.5880    1.2590   10.5444 H   0  0  0  0  0  0  0  0  0  0  0  0
    4.6622    2.7800   10.9242 H   0  0  0  0  0  0  0  0  0  0  0  0
    2.5300    2.4087    9.7134 H   0  0  0  0  0  0  0  0  0  0  0  0
   -1.8513    1.6773   -0.7615 H   0  0  0  0  0  0  0  0  0  0  0  0
   -2.1965    1.0669   -2.3277 H   0  0  0  0  0  0  0  0  0  0  0  0
  1  2  2  0  0  0  0
  1  6  1  0  0  0  0
  2  3  1  0  0  0  0
  3 36  1  0  0  0  0
  3  4  2  0  0  0  0
  4  5  1  0  0  0  0
  4  9  1  0  0  0  0
  5  7  2  0  0  0  0
  6 37  1  0  0  0  0
  6  5  1  0  0  0  0
  7  8  2  0  0  0  0
  9 10  1  0  0  0  0
  9  8  1  0  0  0  0
 11  8  1  6  0  0  0
 11 22  1  0  0  0  0
 11 12  1  0  0  0  0
 12 13  2  0  0  0  0
 13 20  1  0  0  0  0
 13 14  1  0  0  0  0
 14 15  1  0  0  0  0
 14 40  1  0  0  0  0
 15 42  1  0  0  0  0
 16 15  1  0  0  0  0
 16 19  1  0  0  0  0
 16 18  1  0  0  0  0
 17 16  1  0  0  0  0
 20 43  1  0  0  0  0
 21 24  1  0  0  0  0
 21 20  2  0  0  0  0
 22 21  1  0  0  0  0
 23 22  2  0  0  0  0
 24 29  1  0  0  0  0
 25 24  2  0  0  0  0
 25 26  1  0  0  0  0
 26 27  2  0  0  0  0
 27 28  1  0  0  0  0
 27 46  1  0  0  0  0
 28 47  1  0  0  0  0
 29 48  1  0  0  0  0
 29 28  2  0  0  0  0
 30  1  1  0  0  0  0
 31 33  1  0  0  0  0
 31 30  2  0  0  0  0
 32 31  1  0  0  0  0
 34 30  1  0  0  0  0
 34 49  1  0  0  0  0
 35  2  1  0  0  0  0
 38 12  1  0  0  0  0
 39 14  1  0  0  0  0
 41 15  1  0  0  0  0
 44 25  1  0  0  0  0
 45 26  1  0  0  0  0
 50 34  1  0  0  0  0
M  RAD  2   6   2  11   2
M  END
$$$$
