50
rmsd238.gzmat
C          0.00000        0.00000        0.00000
C          1.41230        0.00000        0.00000
C          2.13250        0.00000        1.18030
C          1.41050       -0.00730        2.37670
C         -0.04910       -0.01910        2.38100
C         -0.74650       -0.01280        1.18760
N         -0.50120       -0.02100        3.69930
C          0.59750        0.00650        4.48440
N          1.78330        0.00860        3.69650
H          2.72140       -0.00350        4.12000
C          0.66390        0.03710        5.91170
C         -0.50400        0.08440        6.67100
C         -0.45180        0.09160        8.05380
C         -1.68720       -0.06540        8.87190
C         -2.02460       -1.56900        9.00500
N         -0.74800       -2.38670        8.82200
H         -0.35180       -2.19000        7.86950
H         -0.03040       -2.07510        9.50400
H         -0.91880       -3.38990        8.93150
C          0.80240        0.23860        8.70720
C          1.97470        0.20510        8.01190
C          1.96200        0.04120        6.55840
O          3.00070       -0.11390        5.91630
C          3.26360        0.35260        8.68460
C          4.32440       -0.50840        8.38460
C          5.53780       -0.37820        9.05470
C          5.70390        0.61480       10.01850
C          4.65550        1.48680       10.30610
C          3.43900        1.35900        9.64130
C         -0.70790        0.03450       -1.27500
N         -1.67670        0.95510       -1.48650
H         -2.21700        1.01600       -2.33130
H         -1.88240        1.64130       -0.76840
N         -0.40400       -0.85080       -2.25220
H          1.95020        0.02750       -0.94880
H          3.22250        0.01540        1.18400
H         -1.83520       -0.03330        1.19350
H         -1.46760        0.09240        6.15050
H         -2.54610        0.47050        8.41280
H         -1.57260        0.40280        9.87070
H         -2.75270       -1.87760        8.22340
H         -2.46720       -1.79820        9.99550
H          0.81220        0.39440        9.78750
H          4.20510       -1.26430        7.60880
H          6.36050       -1.04990        8.81770
H          6.65450        0.71460       10.53950
H          4.78800        2.27350       11.04680
H          2.62860        2.05400        9.84950
H          0.28740       -1.57190       -2.08620
H         -0.82890       -0.84570       -3.16230
