rmsd237.gzmat
 OpenBabel08211713363D

 50 53  0  0  1  0  0  0  0  0999 V2000
    0.0000    0.0000    0.0000 C   0  0  0  0  0  0  0  0  0  0  0  0
    1.4120    0.0000    0.0000 C   0  0  0  0  0  0  0  0  0  0  0  0
    2.1303    0.0000    1.1815 C   0  0  0  0  0  0  0  0  0  0  0  0
    1.4064   -0.0058    2.3764 C   0  0  0  0  0  0  0  0  0  0  0  0
   -0.0530   -0.0239    2.3804 C   0  0  0  0  0  0  0  0  0  0  0  0
   -0.7484   -0.0192    1.1859 C   0  0  0  0  0  0  0  0  0  0  0  0
   -0.5055   -0.0201    3.6987 N   0  0  0  0  0  0  0  0  0  0  0  0
    0.5929    0.0206    4.4838 C   0  0  0  0  0  0  0  0  0  0  0  0
    1.7788    0.0183    3.6962 N   0  0  0  0  0  0  0  0  0  0  0  0
    2.7172    0.0256    4.1180 H   0  0  0  0  0  0  0  0  0  0  0  0
    0.6602    0.0752    5.9102 C   0  0  2  0  0  0  0  0  0  0  0  0
   -0.5064    0.0935    6.6726 C   0  0  0  0  0  0  0  0  0  0  0  0
   -0.4489    0.1380    8.0547 C   0  0  0  0  0  0  0  0  0  0  0  0
   -1.6703   -0.0596    8.8846 C   0  0  0  0  0  0  0  0  0  0  0  0
   -1.9441   -1.5742    9.0344 C   0  0  0  0  0  0  0  0  0  0  0  0
   -0.6288   -2.3354    8.8847 N   0  0  0  0  0  0  0  0  0  0  0  0
   -0.2184   -2.1232    7.9409 H   0  0  0  0  0  0  0  0  0  0  0  0
    0.0575   -1.9925    9.5825 H   0  0  0  0  0  0  0  0  0  0  0  0
   -0.7581   -3.3450    8.9913 H   0  0  0  0  0  0  0  0  0  0  0  0
    0.7986    0.3687    8.6972 C   0  0  0  0  0  0  0  0  0  0  0  0
    1.9685    0.3710    7.9979 C   0  0  0  0  0  0  0  0  0  0  0  0
    1.9587    0.1433    6.5527 C   0  0  0  0  0  0  0  0  0  0  0  0
    3.0011   -0.0095    5.9163 O   0  0  0  0  0  0  0  0  0  0  0  0
    3.2512    0.6282    8.6489 C   0  0  0  0  0  0  0  0  0  0  0  0
    4.3576   -0.1861    8.3857 C   0  0  0  0  0  0  0  0  0  0  0  0
    5.5708    0.0596    9.0232 C   0  0  0  0  0  0  0  0  0  0  0  0
    5.6898    1.1219    9.9176 C   0  0  0  0  0  0  0  0  0  0  0  0
    4.5941    1.9453   10.1697 C   0  0  0  0  0  0  0  0  0  0  0  0
    3.3777    1.7019    9.5374 C   0  0  0  0  0  0  0  0  0  0  0  0
   -0.7092    0.0505   -1.2742 C   0  0  0  0  0  0  0  0  0  0  0  0
   -1.6602    0.9912   -1.4758 N   0  0  0  0  0  0  0  0  0  0  0  0
   -2.2059    1.0677   -2.3153 H   0  0  0  0  0  0  0  0  0  0  0  0
   -1.8483    1.6766   -0.7513 H   0  0  0  0  0  0  0  0  0  0  0  0
   -0.4228   -0.8356   -2.2554 N   0  0  0  0  0  0  0  0  0  0  0  0
    1.9500    0.0280   -0.9486 H   0  0  0  0  0  0  0  0  0  0  0  0
    3.2200    0.0146    1.1872 H   0  0  0  0  0  0  0  0  0  0  0  0
   -1.8369   -0.0427    1.1888 H   0  0  0  0  0  0  0  0  0  0  0  0
   -1.4711    0.0488    6.1558 H   0  0  0  0  0  0  0  0  0  0  0  0
   -2.5532    0.4368    8.4271 H   0  0  0  0  0  0  0  0  0  0  0  0
   -1.5681    0.4231    9.8779 H   0  0  0  0  0  0  0  0  0  0  0  0
   -2.6444   -1.9250    8.2454 H   0  0  0  0  0  0  0  0  0  0  0  0
   -2.3931   -1.8106   10.0202 H   0  0  0  0  0  0  0  0  0  0  0  0
    0.8039    0.5636    9.7707 H   0  0  0  0  0  0  0  0  0  0  0  0
    4.2732   -0.9951    7.6600 H   0  0  0  0  0  0  0  0  0  0  0  0
    6.4304   -0.5739    8.8125 H   0  0  0  0  0  0  0  0  0  0  0  0
    6.6409    1.3148   10.4103 H   0  0  0  0  0  0  0  0  0  0  0  0
    4.6906    2.7851   10.8554 H   0  0  0  0  0  0  0  0  0  0  0  0
    2.5299    2.3593    9.7161 H   0  0  0  0  0  0  0  0  0  0  0  0
    0.2596   -1.5668   -2.0939 H   0  0  0  0  0  0  0  0  0  0  0  0
   -0.8539   -0.8237   -3.1626 H   0  0  0  0  0  0  0  0  0  0  0  0
  1  2  1  0  0  0  0
  1  6  2  0  0  0  0
  2  3  1  0  0  0  0
  3 36  1  0  0  0  0
  3  4  2  0  0  0  0
  4  5  1  0  0  0  0
  4  9  1  0  0  0  0
  5  7  2  0  0  0  0
  6 37  1  0  0  0  0
  6  5  1  0  0  0  0
  7  8  2  0  0  0  0
  9 10  1  0  0  0  0
  9  8  1  0  0  0  0
 11  8  1  6  0  0  0
 11 22  1  0  0  0  0
 11 12  1  0  0  0  0
 12 13  2  0  0  0  0
 13 20  1  0  0  0  0
 13 14  1  0  0  0  0
 14 15  1  0  0  0  0
 14 40  1  0  0  0  0
 15 42  1  0  0  0  0
 16 19  1  0  0  0  0
 16 15  1  0  0  0  0
 16 18  1  0  0  0  0
 17 16  1  0  0  0  0
 20 43  1  0  0  0  0
 21 24  1  0  0  0  0
 21 20  2  0  0  0  0
 22 21  1  0  0  0  0
 23 22  2  0  0  0  0
 24 29  1  0  0  0  0
 25 24  2  0  0  0  0
 25 26  1  0  0  0  0
 26 27  2  0  0  0  0
 27 28  1  0  0  0  0
 27 46  1  0  0  0  0
 28 47  1  0  0  0  0
 29 48  1  0  0  0  0
 29 28  2  0  0  0  0
 30  1  1  0  0  0  0
 31 30  1  0  0  0  0
 31 33  1  0  0  0  0
 32 31  1  0  0  0  0
 34 49  1  0  0  0  0
 34 30  2  0  0  0  0
 35  2  1  0  0  0  0
 38 12  1  0  0  0  0
 39 14  1  0  0  0  0
 41 15  1  0  0  0  0
 44 25  1  0  0  0  0
 45 26  1  0  0  0  0
 50 34  1  0  0  0  0
M  RAD  2   2   2  11   2
M  END
$$$$
