rmsd102.gzmat
 OpenBabel08211713363D

 50 53  0  0  1  0  0  0  0  0999 V2000
    0.0000    0.0000    0.0000 C   0  0  0  0  0  0  0  0  0  0  0  0
    1.4128    0.0000    0.0000 C   0  0  0  0  0  0  0  0  0  0  0  0
    2.1332    0.0000    1.1797 C   0  0  0  0  0  0  0  0  0  0  0  0
    1.4113   -0.0041    2.3760 C   0  0  0  0  0  0  0  0  0  0  0  0
   -0.0483   -0.0141    2.3813 C   0  0  0  0  0  0  0  0  0  0  0  0
   -0.7456   -0.0102    1.1881 C   0  0  0  0  0  0  0  0  0  0  0  0
   -0.4991   -0.0062    3.7002 N   0  0  0  0  0  0  0  0  0  0  0  0
    0.6002    0.0263    4.4840 C   0  0  0  0  0  0  0  0  0  0  0  0
    1.7858    0.0176    3.6951 N   0  0  0  0  0  0  0  0  0  0  0  0
    2.7247    0.0152    4.1155 H   0  0  0  0  0  0  0  0  0  0  0  0
    0.6686    0.0781    5.9103 C   0  0  2  0  0  0  0  0  0  0  0  0
   -0.4983    0.1037    6.6723 C   0  0  0  0  0  0  0  0  0  0  0  0
   -0.4416    0.1508    8.0541 C   0  0  0  0  0  0  0  0  0  0  0  0
   -1.6614   -0.0462    8.8860 C   0  0  0  0  0  0  0  0  0  0  0  0
   -1.9086   -1.5617    9.0737 C   0  0  0  0  0  0  0  0  0  0  0  0
   -0.5806   -2.3051    8.9445 N   0  0  0  0  0  0  0  0  0  0  0  0
   -0.1717   -2.1106    7.9964 H   0  0  0  0  0  0  0  0  0  0  0  0
    0.0982   -1.9334    9.6354 H   0  0  0  0  0  0  0  0  0  0  0  0
   -0.6928   -3.3137    9.0771 H   0  0  0  0  0  0  0  0  0  0  0  0
    0.8073    0.3722    8.6961 C   0  0  0  0  0  0  0  0  0  0  0  0
    1.9781    0.3520    7.9985 C   0  0  0  0  0  0  0  0  0  0  0  0
    1.9681    0.1298    6.5530 C   0  0  0  0  0  0  0  0  0  0  0  0
    3.0091   -0.0331    5.9172 O   0  0  0  0  0  0  0  0  0  0  0  0
    3.2609    0.5710    8.6625 C   0  0  0  0  0  0  0  0  0  0  0  0
    4.3405   -0.2848    8.4215 C   0  0  0  0  0  0  0  0  0  0  0  0
    5.5474   -0.0872    9.0872 C   0  0  0  0  0  0  0  0  0  0  0  0
    5.6864    0.9675    9.9878 C   0  0  0  0  0  0  0  0  0  0  0  0
    4.6187    1.8343   10.2144 C   0  0  0  0  0  0  0  0  0  0  0  0
    3.4096    1.6407    9.5521 C   0  0  0  0  0  0  0  0  0  0  0  0
   -0.7063    0.0305   -1.2754 C   0  0  0  0  0  0  0  0  0  0  0  0
   -0.3689   -0.8300   -2.2643 N   0  0  0  0  0  0  0  0  0  0  0  0
   -0.7928   -0.8294   -3.1748 H   0  0  0  0  0  0  0  0  0  0  0  0
    0.3466   -1.5292   -2.1040 H   0  0  0  0  0  0  0  0  0  0  0  0
   -1.7036    0.9227   -1.4768 N   0  0  0  0  0  0  0  0  0  0  0  0
    1.9505    0.0287   -0.9488 H   0  0  0  0  0  0  0  0  0  0  0  0
    3.2230    0.0146    1.1840 H   0  0  0  0  0  0  0  0  0  0  0  0
   -1.8341   -0.0290    1.1953 H   0  0  0  0  0  0  0  0  0  0  0  0
   -1.4644    0.0621    6.1581 H   0  0  0  0  0  0  0  0  0  0  0  0
   -2.5526    0.4226    8.4157 H   0  0  0  0  0  0  0  0  0  0  0  0
   -1.5679    0.4618    9.8677 H   0  0  0  0  0  0  0  0  0  0  0  0
   -2.6030   -1.9448    8.2944 H   0  0  0  0  0  0  0  0  0  0  0  0
   -2.3540   -1.7790   10.0655 H   0  0  0  0  0  0  0  0  0  0  0  0
    0.8129    0.5731    9.7688 H   0  0  0  0  0  0  0  0  0  0  0  0
    4.2412   -1.0877    7.6914 H   0  0  0  0  0  0  0  0  0  0  0  0
    6.3860   -0.7538    8.8941 H   0  0  0  0  0  0  0  0  0  0  0  0
    6.6306    1.1202   10.5074 H   0  0  0  0  0  0  0  0  0  0  0  0
    4.7306    2.6673   10.9065 H   0  0  0  0  0  0  0  0  0  0  0  0
    2.5844    2.3321    9.7076 H   0  0  0  0  0  0  0  0  0  0  0  0
   -1.9309    1.5937   -0.7506 H   0  0  0  0  0  0  0  0  0  0  0  0
   -2.2469    0.9761   -2.3198 H   0  0  0  0  0  0  0  0  0  0  0  0
  1  2  1  0  0  0  0
  1  6  2  0  0  0  0
  2  3  1  0  0  0  0
  3 36  1  0  0  0  0
  3  4  2  0  0  0  0
  4  5  1  0  0  0  0
  4  9  1  0  0  0  0
  5  7  2  0  0  0  0
  6 37  1  0  0  0  0
  6  5  1  0  0  0  0
  7  8  2  0  0  0  0
  9 10  1  0  0  0  0
  9  8  1  0  0  0  0
 11  8  1  6  0  0  0
 11 22  1  0  0  0  0
 11 12  1  0  0  0  0
 12 13  2  0  0  0  0
 13 20  1  0  0  0  0
 13 14  1  0  0  0  0
 14 15  1  0  0  0  0
 14 40  1  0  0  0  0
 15 42  1  0  0  0  0
 16 15  1  0  0  0  0
 16 19  1  0  0  0  0
 16 18  1  0  0  0  0
 17 16  1  0  0  0  0
 20 43  1  0  0  0  0
 21 24  1  0  0  0  0
 21 20  2  0  0  0  0
 22 21  1  0  0  0  0
 23 22  2  0  0  0  0
 24 29  1  0  0  0  0
 25 24  2  0  0  0  0
 25 26  1  0  0  0  0
 26 27  2  0  0  0  0
 27 28  1  0  0  0  0
 27 46  1  0  0  0  0
 28 47  1  0  0  0  0
 29 48  1  0  0  0  0
 29 28  2  0  0  0  0
 30  1  1  0  0  0  0
 31 33  1  0  0  0  0
 31 30  2  0  0  0  0
 32 31  1  0  0  0  0
 34 30  1  0  0  0  0
 34 49  1  0  0  0  0
 35  2  1  0  0  0  0
 38 12  1  0  0  0  0
 39 14  1  0  0  0  0
 41 15  1  0  0  0  0
 44 25  1  0  0  0  0
 45 26  1  0  0  0  0
 50 34  1  0  0  0  0
M  RAD  2   2   2  11   2
M  END
$$$$
