rmsd36.gzmat
 OpenBabel08211713363D

 50 53  0  0  1  0  0  0  0  0999 V2000
    0.0000    0.0000    0.0000 C   0  0  0  0  0  0  0  0  0  0  0  0
    1.4122    0.0000    0.0000 C   0  0  0  0  0  0  0  0  0  0  0  0
    2.1309    0.0000    1.1810 C   0  0  0  0  0  0  0  0  0  0  0  0
    1.4066    0.0076    2.3756 C   0  0  0  0  0  0  0  0  0  0  0  0
   -0.0527    0.0226    2.3807 C   0  0  0  0  0  0  0  0  0  0  0  0
   -0.7480    0.0167    1.1861 C   0  0  0  0  0  0  0  0  0  0  0  0
   -0.5040    0.0248    3.6997 N   0  0  0  0  0  0  0  0  0  0  0  0
    0.5954   -0.0076    4.4838 C   0  0  0  0  0  0  0  0  0  0  0  0
    1.7803   -0.0105    3.6947 N   0  0  0  0  0  0  0  0  0  0  0  0
    2.7192   -0.0023    4.1158 H   0  0  0  0  0  0  0  0  0  0  0  0
    0.6673   -0.0432    5.9107 C   0  0  1  0  0  0  0  0  0  0  0  0
   -0.4959   -0.0858    6.6777 C   0  0  0  0  0  0  0  0  0  0  0  0
   -0.4346   -0.0955    8.0602 C   0  0  0  0  0  0  0  0  0  0  0  0
   -1.6620    0.0802    8.8868 C   0  0  0  0  0  0  0  0  0  0  0  0
   -2.0069    1.5852    8.9655 C   0  0  0  0  0  0  0  0  0  0  0  0
   -0.7253    2.3970    8.7888 N   0  0  0  0  0  0  0  0  0  0  0  0
   -0.0193    2.0937    9.4856 H   0  0  0  0  0  0  0  0  0  0  0  0
   -0.3155    2.1845    7.8454 H   0  0  0  0  0  0  0  0  0  0  0  0
   -0.8936    3.4022    8.8802 H   0  0  0  0  0  0  0  0  0  0  0  0
    0.8215   -0.2599    8.7060 C   0  0  0  0  0  0  0  0  0  0  0  0
    1.9882   -0.2395    8.0020 C   0  0  0  0  0  0  0  0  0  0  0  0
    1.9687   -0.0602    6.5504 C   0  0  0  0  0  0  0  0  0  0  0  0
    3.0063    0.0965    5.9068 O   0  0  0  0  0  0  0  0  0  0  0  0
    3.2830   -0.4222    8.6536 C   0  0  0  0  0  0  0  0  0  0  0  0
    3.4617   -1.4682    9.5653 C   0  0  0  0  0  0  0  0  0  0  0  0
    4.6901   -1.6401   10.1976 C   0  0  0  0  0  0  0  0  0  0  0  0
    5.7459   -0.7735    9.9201 C   0  0  0  0  0  0  0  0  0  0  0  0
    5.5745    0.2617    9.0027 C   0  0  0  0  0  0  0  0  0  0  0  0
    4.3488    0.4369    8.3659 C   0  0  0  0  0  0  0  0  0  0  0  0
   -0.7079   -0.0410   -1.2749 C   0  0  0  0  0  0  0  0  0  0  0  0
   -1.6671   -0.9723   -1.4822 N   0  0  0  0  0  0  0  0  0  0  0  0
   -2.2119   -1.0398   -2.3231 H   0  0  0  0  0  0  0  0  0  0  0  0
   -1.8618   -1.6599   -0.7619 H   0  0  0  0  0  0  0  0  0  0  0  0
   -0.4120    0.8462   -2.2525 N   0  0  0  0  0  0  0  0  0  0  0  0
    1.9506   -0.0270   -0.9481 H   0  0  0  0  0  0  0  0  0  0  0  0
    3.2206   -0.0150    1.1885 H   0  0  0  0  0  0  0  0  0  0  0  0
   -1.8365    0.0379    1.1903 H   0  0  0  0  0  0  0  0  0  0  0  0
   -1.4629   -0.0867    6.1636 H   0  0  0  0  0  0  0  0  0  0  0  0
   -1.5324   -0.3488    9.9015 H   0  0  0  0  0  0  0  0  0  0  0  0
   -2.5216   -0.4791    8.4582 H   0  0  0  0  0  0  0  0  0  0  0  0
   -2.4754    1.8450    9.9360 H   0  0  0  0  0  0  0  0  0  0  0  0
   -2.7156    1.8680    8.1570 H   0  0  0  0  0  0  0  0  0  0  0  0
    0.8366   -0.4206    9.7853 H   0  0  0  0  0  0  0  0  0  0  0  0
    2.6452   -2.1593    9.7616 H   0  0  0  0  0  0  0  0  0  0  0  0
    4.8268   -2.4577   10.9030 H   0  0  0  0  0  0  0  0  0  0  0  0
    6.7066   -0.9106   10.4129 H   0  0  0  0  0  0  0  0  0  0  0  0
    6.4026    0.9299    8.7748 H   0  0  0  0  0  0  0  0  0  0  0  0
    4.2241    1.2238    7.6225 H   0  0  0  0  0  0  0  0  0  0  0  0
    0.2754    1.5716   -2.0866 H   0  0  0  0  0  0  0  0  0  0  0  0
   -0.8423    0.8419   -3.1602 H   0  0  0  0  0  0  0  0  0  0  0  0
  1  2  1  0  0  0  0
  1  6  2  0  0  0  0
  2  3  1  0  0  0  0
  3 36  1  0  0  0  0
  3  4  2  0  0  0  0
  4  5  1  0  0  0  0
  4  9  1  0  0  0  0
  5  7  2  0  0  0  0
  6 37  1  0  0  0  0
  6  5  1  0  0  0  0
  7  8  2  0  0  0  0
  9 10  1  0  0  0  0
  9  8  1  0  0  0  0
 11  8  1  6  0  0  0
 11 22  1  0  0  0  0
 11 12  1  0  0  0  0
 12 13  2  0  0  0  0
 13 20  1  0  0  0  0
 13 14  1  0  0  0  0
 14 15  1  0  0  0  0
 14 39  1  0  0  0  0
 15 41  1  0  0  0  0
 16 19  1  0  0  0  0
 16 15  1  0  0  0  0
 16 17  1  0  0  0  0
 18 16  1  0  0  0  0
 20 43  1  0  0  0  0
 21 24  1  0  0  0  0
 21 20  2  0  0  0  0
 22 21  1  0  0  0  0
 23 22  2  0  0  0  0
 24 25  1  0  0  0  0
 25 44  1  0  0  0  0
 25 26  2  0  0  0  0
 26 45  1  0  0  0  0
 27 26  1  0  0  0  0
 27 46  1  0  0  0  0
 28 27  2  0  0  0  0
 29 24  2  0  0  0  0
 29 28  1  0  0  0  0
 30  1  1  0  0  0  0
 31 30  1  0  0  0  0
 31 33  1  0  0  0  0
 32 31  1  0  0  0  0
 34 49  1  0  0  0  0
 34 30  2  0  0  0  0
 35  2  1  0  0  0  0
 38 12  1  0  0  0  0
 40 14  1  0  0  0  0
 42 15  1  0  0  0  0
 47 28  1  0  0  0  0
 48 29  1  0  0  0  0
 50 34  1  0  0  0  0
M  RAD  2   2   2  11   2
M  END
$$$$
