50
rmsd85.gzmat
C          0.00000        0.00000        0.00000
C          1.41280        0.00000        0.00000
C          2.13310        0.00000        1.18000
C          1.41130       -0.00020        2.37650
C         -0.04800       -0.01850        2.38240
C         -0.74470       -0.02080        1.18890
N         -0.49820       -0.00750        3.70200
C          0.60100        0.03720        4.48520
N          1.78590        0.03070        3.69510
H          2.72500        0.03630        4.11610
C          0.67240        0.09800        5.91160
C         -0.49210        0.12760        6.67740
C         -0.43240        0.17500        8.05940
C         -1.65380       -0.00490        8.89380
C         -1.93190       -1.51560        9.07640
N         -0.62310       -2.28740        8.92550
H         -0.21750       -2.08760        7.97690
H          0.06970       -1.94280        9.61600
H         -0.75860       -3.29520        9.04330
C          0.81930        0.38990        8.69880
C          1.98810        0.37440        7.99720
C          1.97320        0.15630        6.55110
O          3.01350        0.00270        5.91110
C          3.27390        0.59640        8.65530
C          4.36090       -0.24450        8.39500
C          5.57060       -0.04340        9.05470
C          5.70650        1.00160        9.96690
C          4.63260        1.85600       10.21040
C          3.41980        1.65700        9.55620
C         -0.71060        0.05130       -1.27240
N         -1.71070        0.94560       -1.45190
H         -2.25840        1.01280       -2.29100
H         -1.93670        1.60260       -0.71280
N         -0.37800       -0.78700       -2.28190
H          1.95030        0.02820       -0.94890
H          3.22290        0.01130        1.18560
H         -1.83310       -0.05210        1.19410
H         -1.45890        0.09010        6.16450
H         -2.53800        0.48240        8.42870
H         -1.54930        0.49800        9.87710
H         -2.64440       -1.87840        8.30360
H         -2.37100       -1.72950       10.07200
H          0.82930        0.58480        9.77260
H          4.26470       -1.03880        7.65470
H          6.41420       -0.69900        8.84680
H          6.65390        1.15770       10.47990
H          4.74380        2.68530       10.90680
H          2.58920        2.33820        9.72630
H          0.33860       -1.48900       -2.14230
H         -0.80830       -0.76620       -3.18960
