34
rmsd109.gzmat
O          0.00000        0.00000        0.00000
C          1.19970        0.00000        0.00000
O          1.82760        0.00000        1.20770
C          2.08910       -0.00830       -1.21340
C          1.77720        1.19970       -2.09790
C          2.26390        2.53130       -1.49030
N          3.71260        2.59790       -1.36340
C          4.59320        2.51300       -2.45790
C          4.35070        2.75460       -3.81000
C          5.42920        2.65620       -4.68130
C          6.71420        2.33100       -4.22480
C          6.95980        2.09220       -2.87600
C          5.90080        2.17520       -1.98200
C          5.79160        1.99210       -0.55300
C          4.42190        2.23250       -0.20620
C          3.98510        2.15400        1.11630
C          4.92420        1.81550        2.08410
C          6.26240        1.56620        1.75240
C          6.70650        1.66090        0.43690
H          2.80960        0.07410        1.17430
H          1.90600       -0.94910       -1.78110
H          3.16680       -0.03350       -0.95390
H          0.68220        1.26320       -2.27870
H          2.24070        1.05420       -3.09560
H          1.79940        2.69740       -0.48960
H          1.92890        3.38110       -2.13450
H          3.36250        3.01990       -4.16800
H          5.27340        2.83750       -5.74510
H          7.53200        2.26870       -4.93960
H          7.95920        1.84700       -2.52310
H          2.95700        2.37820        1.38940
H          4.61510        1.74910        3.12840
H          6.96470        1.30420        2.54070
H          7.74930        1.48190        0.18260
