rmsd186.gzmat
 OpenBabel08211713373D

 34 36  0  0  0  0  0  0  0  0999 V2000
    0.0000    0.0000    0.0000 O   0  0  0  0  0  0  0  0  0  0  0  0
    1.1992    0.0000    0.0000 C   0  0  0  0  0  0  0  0  0  0  0  0
    1.8280    0.0000    1.2078 O   0  0  0  0  0  0  0  0  0  0  0  0
    2.0889   -0.0121   -1.2128 C   0  0  0  0  0  0  0  0  0  0  0  0
    1.7087    1.1305   -2.1555 C   0  0  0  0  0  0  0  0  0  0  0  0
    2.1019    2.5156   -1.6030 C   0  0  0  0  0  0  0  0  0  0  0  0
    3.5427    2.6860   -1.4841 N   0  0  0  0  0  0  0  0  0  0  0  0
    4.2828    2.3827   -0.3287 C   0  0  0  0  0  0  0  0  0  0  0  0
    3.8591    2.2760    0.9958 C   0  0  0  0  0  0  0  0  0  0  0  0
    4.8267    2.0218    1.9617 C   0  0  0  0  0  0  0  0  0  0  0  0
    6.1795    1.8803    1.6259 C   0  0  0  0  0  0  0  0  0  0  0  0
    6.6092    1.9987    0.3072 C   0  0  0  0  0  0  0  0  0  0  0  0
    5.6661    2.2468   -0.6805 C   0  0  0  0  0  0  0  0  0  0  0  0
    5.7533    2.4234   -2.1119 C   0  0  0  0  0  0  0  0  0  0  0  0
    4.4212    2.6570   -2.5831 C   0  0  0  0  0  0  0  0  0  0  0  0
    4.1531    2.8659   -3.9357 C   0  0  0  0  0  0  0  0  0  0  0  0
    5.2308    2.8382   -4.8132 C   0  0  0  0  0  0  0  0  0  0  0  0
    6.5388    2.6130   -4.3621 C   0  0  0  0  0  0  0  0  0  0  0  0
    6.8101    2.4083   -3.0124 C   0  0  0  0  0  0  0  0  0  0  0  0
    2.8082    0.0924    1.1735 H   0  0  0  0  0  0  0  0  0  0  0  0
    1.9654   -0.9891   -1.7326 H   0  0  0  0  0  0  0  0  0  0  0  0
    3.1653    0.0427   -0.9527 H   0  0  0  0  0  0  0  0  0  0  0  0
    0.6143    1.1139   -2.3484 H   0  0  0  0  0  0  0  0  0  0  0  0
    2.1924    0.9722   -3.1415 H   0  0  0  0  0  0  0  0  0  0  0  0
    1.6275    2.6892   -0.6083 H   0  0  0  0  0  0  0  0  0  0  0  0
    1.7097    3.3149   -2.2784 H   0  0  0  0  0  0  0  0  0  0  0  0
    2.8174    2.4176    1.2722 H   0  0  0  0  0  0  0  0  0  0  0  0
    4.5279    1.9380    3.0076 H   0  0  0  0  0  0  0  0  0  0  0  0
    6.9051    1.6847    2.4127 H   0  0  0  0  0  0  0  0  0  0  0  0
    7.6621    1.9025    0.0496 H   0  0  0  0  0  0  0  0  0  0  0  0
    3.1455    3.0534   -4.2885 H   0  0  0  0  0  0  0  0  0  0  0  0
    5.0571    2.9975   -5.8774 H   0  0  0  0  0  0  0  0  0  0  0  0
    7.3538    2.6035   -5.0825 H   0  0  0  0  0  0  0  0  0  0  0  0
    7.8267    2.2407   -2.6631 H   0  0  0  0  0  0  0  0  0  0  0  0
  1  2  2  0  0  0  0
  2  3  1  0  0  0  0
  4 22  1  0  0  0  0
  4  2  1  0  0  0  0
  5  6  1  0  0  0  0
  5  4  1  0  0  0  0
  6  7  1  0  0  0  0
  6 25  1  0  0  0  0
  7  8  1  0  0  0  0
  8  9  1  0  0  0  0
  9 27  1  0  0  0  0
  9 10  2  0  0  0  0
 10 28  1  0  0  0  0
 11 10  1  0  0  0  0
 11 29  1  0  0  0  0
 12 11  2  0  0  0  0
 13  8  2  0  0  0  0
 13 12  1  0  0  0  0
 14 13  1  0  0  0  0
 15 14  1  0  0  0  0
 15  7  1  0  0  0  0
 16 15  2  0  0  0  0
 17 18  2  0  0  0  0
 17 16  1  0  0  0  0
 18 19  1  0  0  0  0
 19 34  1  0  0  0  0
 19 14  2  0  0  0  0
 20  3  1  0  0  0  0
 21  4  1  0  0  0  0
 23  5  1  0  0  0  0
 24  5  1  0  0  0  0
 26  6  1  0  0  0  0
 30 12  1  0  0  0  0
 31 16  1  0  0  0  0
 32 17  1  0  0  0  0
 33 18  1  0  0  0  0
M  END
$$$$
