rmsd160.gzmat
 OpenBabel08211713373D

 34 36  0  0  0  0  0  0  0  0999 V2000
    0.0000    0.0000    0.0000 O   0  0  0  0  0  0  0  0  0  0  0  0
    1.1994    0.0000    0.0000 C   0  0  0  0  0  0  0  0  0  0  0  0
    1.8275    0.0000    1.2075 O   0  0  0  0  0  0  0  0  0  0  0  0
    2.0886    0.0119   -1.2131 C   0  0  0  0  0  0  0  0  0  0  0  0
    1.7033   -1.1287   -2.1562 C   0  0  0  0  0  0  0  0  0  0  0  0
    2.0619   -2.5185   -1.5918 C   0  0  0  0  0  0  0  0  0  0  0  0
    3.4960   -2.7108   -1.4326 N   0  0  0  0  0  0  0  0  0  0  0  0
    4.2044   -2.4219   -0.2530 C   0  0  0  0  0  0  0  0  0  0  0  0
    3.7430   -2.3274    1.0598 C   0  0  0  0  0  0  0  0  0  0  0  0
    4.6822   -2.0809    2.0549 C   0  0  0  0  0  0  0  0  0  0  0  0
    6.0442   -1.9382    1.7589 C   0  0  0  0  0  0  0  0  0  0  0  0
    6.5118   -2.0494    0.4527 C   0  0  0  0  0  0  0  0  0  0  0  0
    5.5972   -2.2872   -0.5640 C   0  0  0  0  0  0  0  0  0  0  0  0
    5.7252   -2.4510   -1.9938 C   0  0  0  0  0  0  0  0  0  0  0  0
    4.4064   -2.6740   -2.5052 C   0  0  0  0  0  0  0  0  0  0  0  0
    4.1765   -2.8675   -3.8670 C   0  0  0  0  0  0  0  0  0  0  0  0
    5.2794   -2.8372   -4.7123 C   0  0  0  0  0  0  0  0  0  0  0  0
    6.5748   -2.6217   -4.2219 C   0  0  0  0  0  0  0  0  0  0  0  0
    6.8075   -2.4317   -2.8632 C   0  0  0  0  0  0  0  0  0  0  0  0
    2.8069   -0.0976    1.1755 H   0  0  0  0  0  0  0  0  0  0  0  0
    3.1654   -0.0455   -0.9548 H   0  0  0  0  0  0  0  0  0  0  0  0
    1.9661    0.9898   -1.7315 H   0  0  0  0  0  0  0  0  0  0  0  0
    2.2042   -0.9831   -3.1355 H   0  0  0  0  0  0  0  0  0  0  0  0
    0.6122   -1.0939   -2.3651 H   0  0  0  0  0  0  0  0  0  0  0  0
    1.6753   -3.3125   -2.2766 H   0  0  0  0  0  0  0  0  0  0  0  0
    1.5593   -2.6833   -0.6094 H   0  0  0  0  0  0  0  0  0  0  0  0
    2.6933   -2.4686    1.3047 H   0  0  0  0  0  0  0  0  0  0  0  0
    4.3539   -2.0041    3.0924 H   0  0  0  0  0  0  0  0  0  0  0  0
    6.7466   -1.7469    2.5672 H   0  0  0  0  0  0  0  0  0  0  0  0
    7.5719   -1.9554    0.2269 H   0  0  0  0  0  0  0  0  0  0  0  0
    3.1787   -3.0449   -4.2516 H   0  0  0  0  0  0  0  0  0  0  0  0
    5.1346   -2.9864   -5.7824 H   0  0  0  0  0  0  0  0  0  0  0  0
    7.4104   -2.6066   -4.9185 H   0  0  0  0  0  0  0  0  0  0  0  0
    7.8146   -2.2715   -2.4836 H   0  0  0  0  0  0  0  0  0  0  0  0
  1  2  2  0  0  0  0
  2  3  1  0  0  0  0
  4 21  1  0  0  0  0
  4  2  1  0  0  0  0
  5  6  1  0  0  0  0
  5  4  1  0  0  0  0
  6  7  1  0  0  0  0
  6 26  1  0  0  0  0
  7  8  1  0  0  0  0
  8  9  1  0  0  0  0
  9 27  1  0  0  0  0
  9 10  2  0  0  0  0
 10 28  1  0  0  0  0
 11 10  1  0  0  0  0
 11 29  1  0  0  0  0
 12 11  2  0  0  0  0
 13  8  2  0  0  0  0
 13 12  1  0  0  0  0
 14 13  1  0  0  0  0
 15 14  1  0  0  0  0
 15  7  1  0  0  0  0
 16 15  2  0  0  0  0
 17 18  2  0  0  0  0
 17 16  1  0  0  0  0
 18 19  1  0  0  0  0
 19 34  1  0  0  0  0
 19 14  2  0  0  0  0
 20  3  1  0  0  0  0
 22  4  1  0  0  0  0
 23  5  1  0  0  0  0
 24  5  1  0  0  0  0
 25  6  1  0  0  0  0
 30 12  1  0  0  0  0
 31 16  1  0  0  0  0
 32 17  1  0  0  0  0
 33 18  1  0  0  0  0
M  END
$$$$
