34
rmsd154.gzmat
O          0.00000        0.00000        0.00000
C          1.19940        0.00000        0.00000
O          1.82760        0.00000        1.20790
C          2.08790        0.00660       -1.21400
C          1.76040       -1.19160       -2.10580
C          2.22360       -2.53090       -1.49710
N          3.67210       -2.62820       -1.38810
C          4.53950       -2.57520       -2.49510
C          4.27230       -2.82320       -3.84120
C          5.34180       -2.76160       -4.72690
C          6.64010       -2.46310       -4.29080
C          6.91010       -2.21600       -2.94830
C          5.86160       -2.26520       -2.03970
C          5.77670       -2.06640       -0.61120
C          4.40580       -2.26910       -0.24440
C          3.98960       -2.16650        1.08300
C          4.95030       -1.84360        2.03480
C          6.29010       -1.63310        1.68340
C          6.71360       -1.75100        0.36320
H          2.80970       -0.07080        1.17330
H          3.16610        0.01520       -0.95590
H          1.91710        0.95400       -1.77350
H          2.23050       -1.05130       -3.10110
H          0.66580       -1.23610       -2.29320
H          1.86230       -3.37770       -2.13100
H          1.76900       -2.68090       -0.48910
H          3.27270       -3.06560       -4.18350
H          5.16990       -2.95180       -5.78650
H          7.44910       -2.42830       -5.01740
H          7.92000       -1.99020       -2.61200
H          2.96040       -2.36250        1.37260
H          4.65630       -1.75870        3.08200
H          7.00990       -1.38280        2.45980
H          7.75740       -1.60270        0.09360
