34
rmsd102.gzmat
O          0.00000        0.00000        0.00000
C          1.19950        0.00000        0.00000
O          1.82740        0.00000        1.20820
C          2.08930       -0.01400       -1.21310
C          1.68780        1.10530       -2.17440
C          2.02330        2.50980       -1.63300
N          3.45210        2.72180       -1.45450
C          4.14620        2.45900       -0.26080
C          3.66520        2.36810        1.04520
C          4.59300        2.15130        2.05750
C          5.96250        2.03220        1.78550
C          6.44920        2.13860        0.48600
C          5.54630        2.34890       -0.54700
C          5.69510        2.50390       -1.97540
C          4.38090        2.69570       -2.51140
C          4.17160        2.87580       -3.87840
C          5.29050        2.86700       -4.70310
C          6.58160        2.68510       -4.18790
C          6.79370        2.50440       -2.82430
H          2.80610        0.10880        1.17620
H          1.98340       -1.00110       -1.71790
H          3.16520        0.06410       -0.95480
H          0.59710        1.05010       -2.38340
H          2.19260        0.95160       -3.15030
H          1.50250        2.68880       -0.66240
H          1.63990        3.28530       -2.34000
H          2.60860        2.48860        1.27170
H          4.24890        2.07920        3.09010
H          6.65510        1.86290        2.60710
H          7.51440        2.06140        0.27740
H          3.17710        3.02780       -4.28180
H          5.16340        3.00730       -5.77650
H          7.43030        2.68900       -4.86830
H          7.79690        2.36850       -2.42560
