rmsd158.gzmat
 OpenBabel08211713373D

 34 36  0  0  0  0  0  0  0  0999 V2000
    0.0000    0.0000    0.0000 O   0  0  0  0  0  0  0  0  0  0  0  0
    1.1996    0.0000    0.0000 C   0  0  0  0  0  0  0  0  0  0  0  0
    1.8268    0.0000    1.2080 O   0  0  0  0  0  0  0  0  0  0  0  0
    2.0878    0.0152   -1.2139 C   0  0  0  0  0  0  0  0  0  0  0  0
    1.7088   -1.1278   -2.1565 C   0  0  0  0  0  0  0  0  0  0  0  0
    2.1039   -2.5131   -1.6061 C   0  0  0  0  0  0  0  0  0  0  0  0
    3.5411   -2.6598   -1.4256 N   0  0  0  0  0  0  0  0  0  0  0  0
    4.2164   -2.3796   -0.2248 C   0  0  0  0  0  0  0  0  0  0  0  0
    3.7242   -2.3298    1.0793 C   0  0  0  0  0  0  0  0  0  0  0  0
    4.6348   -2.0855    2.1012 C   0  0  0  0  0  0  0  0  0  0  0  0
    5.9988   -1.9018    1.8392 C   0  0  0  0  0  0  0  0  0  0  0  0
    6.4965   -1.9623    0.5407 C   0  0  0  0  0  0  0  0  0  0  0  0
    5.6105   -2.1940   -0.5028 C   0  0  0  0  0  0  0  0  0  0  0  0
    5.7705   -2.3089   -1.9345 C   0  0  0  0  0  0  0  0  0  0  0  0
    4.4699   -2.5612   -2.4782 C   0  0  0  0  0  0  0  0  0  0  0  0
    4.2715   -2.7199   -3.8495 C   0  0  0  0  0  0  0  0  0  0  0  0
    5.3869   -2.6191   -4.6729 C   0  0  0  0  0  0  0  0  0  0  0  0
    6.6648   -2.3747   -4.1509 C   0  0  0  0  0  0  0  0  0  0  0  0
    6.8666   -2.2229   -2.7825 C   0  0  0  0  0  0  0  0  0  0  0  0
    2.8060   -0.1028    1.1772 H   0  0  0  0  0  0  0  0  0  0  0  0
    3.1650   -0.0343   -0.9551 H   0  0  0  0  0  0  0  0  0  0  0  0
    1.9583    0.9915   -1.7343 H   0  0  0  0  0  0  0  0  0  0  0  0
    2.1904   -0.9674   -3.1432 H   0  0  0  0  0  0  0  0  0  0  0  0
    0.6139   -1.1129   -2.3476 H   0  0  0  0  0  0  0  0  0  0  0  0
    1.7555   -3.3106   -2.3076 H   0  0  0  0  0  0  0  0  0  0  0  0
    1.5904   -2.7090   -0.6352 H   0  0  0  0  0  0  0  0  0  0  0  0
    2.6728   -2.5001    1.2974 H   0  0  0  0  0  0  0  0  0  0  0  0
    4.2802   -2.0424    3.1322 H   0  0  0  0  0  0  0  0  0  0  0  0
    6.6792   -1.7182    2.6682 H   0  0  0  0  0  0  0  0  0  0  0  0
    7.5587   -1.8336    0.3419 H   0  0  0  0  0  0  0  0  0  0  0  0
    3.2882   -2.9245   -4.2575 H   0  0  0  0  0  0  0  0  0  0  0  0
    5.2661   -2.7347   -5.7500 H   0  0  0  0  0  0  0  0  0  0  0  0
    7.5111   -2.3064   -4.8311 H   0  0  0  0  0  0  0  0  0  0  0  0
    7.8603   -2.0413   -2.3780 H   0  0  0  0  0  0  0  0  0  0  0  0
  1  2  2  0  0  0  0
  2  3  1  0  0  0  0
  4 21  1  0  0  0  0
  4  2  1  0  0  0  0
  5  6  1  0  0  0  0
  5  4  1  0  0  0  0
  6  7  1  0  0  0  0
  6 26  1  0  0  0  0
  7  8  1  0  0  0  0
  8  9  1  0  0  0  0
  9 27  1  0  0  0  0
  9 10  2  0  0  0  0
 10 28  1  0  0  0  0
 11 10  1  0  0  0  0
 11 29  1  0  0  0  0
 12 11  2  0  0  0  0
 13  8  2  0  0  0  0
 13 12  1  0  0  0  0
 14 13  1  0  0  0  0
 15 14  1  0  0  0  0
 15  7  1  0  0  0  0
 16 15  2  0  0  0  0
 17 18  2  0  0  0  0
 17 16  1  0  0  0  0
 18 19  1  0  0  0  0
 19 34  1  0  0  0  0
 19 14  2  0  0  0  0
 20  3  1  0  0  0  0
 22  4  1  0  0  0  0
 23  5  1  0  0  0  0
 24  5  1  0  0  0  0
 25  6  1  0  0  0  0
 30 12  1  0  0  0  0
 31 16  1  0  0  0  0
 32 17  1  0  0  0  0
 33 18  1  0  0  0  0
M  END
$$$$
