34

O          0.49110       -0.78980        0.46620
C          1.45940       -0.13230        0.18930
O          2.07260        0.60890        1.13450
C          2.05550       -0.04560       -1.20880
C          1.60870       -1.18830       -2.11840
C          2.12030       -2.56310       -1.66430
N          3.56080       -2.61150       -1.50980
C          4.25820       -2.41000       -0.32180
C          3.77620       -2.28590        0.98750
C          4.70680       -2.07360        2.00590
C          6.08580       -1.99070        1.73710
C          6.56340       -2.11970        0.43310
C          5.65150       -2.32690       -0.61020
C          5.78710       -2.48090       -2.04560
C          4.46930       -2.64290       -2.56110
C          4.23620       -2.80720       -3.93200
C          5.34180       -2.81460       -4.78380
C          6.65030       -2.66030       -4.28900
C          6.87900       -2.49380       -2.92320
H          2.88810        0.99530        0.78420
H          3.15590       -0.00600       -1.14460
H          1.73740        0.92300       -1.63400
H          1.96050       -0.98370       -3.14150
H          0.50880       -1.22180       -2.14560
H          1.81570       -3.33280       -2.39090
H          1.65980       -2.83460       -0.70560
H          2.71250       -2.35360        1.21670
H          4.35080       -1.97070        3.03360
H          6.78590       -1.82590        2.55900
H          7.63420       -2.05690        0.22470
H          3.22680       -2.92960       -4.32810
H          5.18590       -2.94340       -5.85760
H          7.49290       -2.67130       -4.98380
H          7.89560       -2.37460       -2.54110
