rmsd154.gzmat
 OpenBabel08211713373D

 34 36  0  0  0  0  0  0  0  0999 V2000
    0.0000    0.0000    0.0000 O   0  0  0  0  0  0  0  0  0  0  0  0
    1.1994    0.0000    0.0000 C   0  0  0  0  0  0  0  0  0  0  0  0
    1.8276    0.0000    1.2079 O   0  0  0  0  0  0  0  0  0  0  0  0
    2.0879    0.0066   -1.2140 C   0  0  0  0  0  0  0  0  0  0  0  0
    1.7604   -1.1916   -2.1058 C   0  0  0  0  0  0  0  0  0  0  0  0
    2.2236   -2.5309   -1.4971 C   0  0  0  0  0  0  0  0  0  0  0  0
    3.6721   -2.6282   -1.3881 N   0  0  0  0  0  0  0  0  0  0  0  0
    4.5395   -2.5752   -2.4951 C   0  0  0  0  0  0  0  0  0  0  0  0
    4.2723   -2.8232   -3.8412 C   0  0  0  0  0  0  0  0  0  0  0  0
    5.3418   -2.7616   -4.7269 C   0  0  0  0  0  0  0  0  0  0  0  0
    6.6401   -2.4631   -4.2908 C   0  0  0  0  0  0  0  0  0  0  0  0
    6.9101   -2.2160   -2.9483 C   0  0  0  0  0  0  0  0  0  0  0  0
    5.8616   -2.2652   -2.0397 C   0  0  0  0  0  0  0  0  0  0  0  0
    5.7767   -2.0664   -0.6112 C   0  0  0  0  0  0  0  0  0  0  0  0
    4.4058   -2.2691   -0.2444 C   0  0  0  0  0  0  0  0  0  0  0  0
    3.9896   -2.1665    1.0830 C   0  0  0  0  0  0  0  0  0  0  0  0
    4.9503   -1.8436    2.0348 C   0  0  0  0  0  0  0  0  0  0  0  0
    6.2901   -1.6331    1.6834 C   0  0  0  0  0  0  0  0  0  0  0  0
    6.7136   -1.7510    0.3632 C   0  0  0  0  0  0  0  0  0  0  0  0
    2.8097   -0.0708    1.1733 H   0  0  0  0  0  0  0  0  0  0  0  0
    3.1661    0.0152   -0.9559 H   0  0  0  0  0  0  0  0  0  0  0  0
    1.9171    0.9540   -1.7735 H   0  0  0  0  0  0  0  0  0  0  0  0
    2.2305   -1.0513   -3.1011 H   0  0  0  0  0  0  0  0  0  0  0  0
    0.6658   -1.2361   -2.2932 H   0  0  0  0  0  0  0  0  0  0  0  0
    1.8623   -3.3777   -2.1310 H   0  0  0  0  0  0  0  0  0  0  0  0
    1.7690   -2.6809   -0.4891 H   0  0  0  0  0  0  0  0  0  0  0  0
    3.2727   -3.0656   -4.1835 H   0  0  0  0  0  0  0  0  0  0  0  0
    5.1699   -2.9518   -5.7865 H   0  0  0  0  0  0  0  0  0  0  0  0
    7.4491   -2.4283   -5.0174 H   0  0  0  0  0  0  0  0  0  0  0  0
    7.9200   -1.9902   -2.6120 H   0  0  0  0  0  0  0  0  0  0  0  0
    2.9604   -2.3625    1.3726 H   0  0  0  0  0  0  0  0  0  0  0  0
    4.6563   -1.7587    3.0820 H   0  0  0  0  0  0  0  0  0  0  0  0
    7.0099   -1.3828    2.4598 H   0  0  0  0  0  0  0  0  0  0  0  0
    7.7574   -1.6027    0.0936 H   0  0  0  0  0  0  0  0  0  0  0  0
  1  2  2  0  0  0  0
  2  3  1  0  0  0  0
  4 21  1  0  0  0  0
  4  2  1  0  0  0  0
  5  6  1  0  0  0  0
  5  4  1  0  0  0  0
  6  7  1  0  0  0  0
  6 26  1  0  0  0  0
  7 15  1  0  0  0  0
  8 13  1  0  0  0  0
  8  7  1  0  0  0  0
  9  8  2  0  0  0  0
 10 11  2  0  0  0  0
 10  9  1  0  0  0  0
 11 12  1  0  0  0  0
 12 30  1  0  0  0  0
 12 13  2  0  0  0  0
 13 14  1  0  0  0  0
 14 15  2  0  0  0  0
 14 19  1  0  0  0  0
 15 16  1  0  0  0  0
 16 31  1  0  0  0  0
 16 17  2  0  0  0  0
 17 32  1  0  0  0  0
 18 17  1  0  0  0  0
 18 33  1  0  0  0  0
 19 18  2  0  0  0  0
 20  3  1  0  0  0  0
 22  4  1  0  0  0  0
 23  5  1  0  0  0  0
 24  5  1  0  0  0  0
 25  6  1  0  0  0  0
 27  9  1  0  0  0  0
 28 10  1  0  0  0  0
 29 11  1  0  0  0  0
 34 19  1  0  0  0  0
M  END
$$$$
