34
rmsd160.gzmat
O          0.00000        0.00000        0.00000
C          1.19940        0.00000        0.00000
O          1.82750        0.00000        1.20750
C          2.08860        0.01190       -1.21310
C          1.70330       -1.12870       -2.15620
C          2.06190       -2.51850       -1.59180
N          3.49600       -2.71080       -1.43260
C          4.20440       -2.42190       -0.25300
C          3.74300       -2.32740        1.05980
C          4.68220       -2.08090        2.05490
C          6.04420       -1.93820        1.75890
C          6.51180       -2.04940        0.45270
C          5.59720       -2.28720       -0.56400
C          5.72520       -2.45100       -1.99380
C          4.40640       -2.67400       -2.50520
C          4.17650       -2.86750       -3.86700
C          5.27940       -2.83720       -4.71230
C          6.57480       -2.62170       -4.22190
C          6.80750       -2.43170       -2.86320
H          2.80690       -0.09760        1.17550
H          3.16540       -0.04550       -0.95480
H          1.96610        0.98980       -1.73150
H          2.20420       -0.98310       -3.13550
H          0.61220       -1.09390       -2.36510
H          1.67530       -3.31250       -2.27660
H          1.55930       -2.68330       -0.60940
H          2.69330       -2.46860        1.30470
H          4.35390       -2.00410        3.09240
H          6.74660       -1.74690        2.56720
H          7.57190       -1.95540        0.22690
H          3.17870       -3.04490       -4.25160
H          5.13460       -2.98640       -5.78240
H          7.41040       -2.60660       -4.91850
H          7.81460       -2.27150       -2.48360
