rmsd109.gzmat
 OpenBabel08211713373D

 34 36  0  0  0  0  0  0  0  0999 V2000
    0.0000    0.0000    0.0000 O   0  0  0  0  0  0  0  0  0  0  0  0
    1.1997    0.0000    0.0000 C   0  0  0  0  0  0  0  0  0  0  0  0
    1.8276    0.0000    1.2077 O   0  0  0  0  0  0  0  0  0  0  0  0
    2.0891   -0.0083   -1.2134 C   0  0  0  0  0  0  0  0  0  0  0  0
    1.7772    1.1997   -2.0979 C   0  0  0  0  0  0  0  0  0  0  0  0
    2.2639    2.5313   -1.4903 C   0  0  0  0  0  0  0  0  0  0  0  0
    3.7126    2.5979   -1.3634 N   0  0  0  0  0  0  0  0  0  0  0  0
    4.5932    2.5130   -2.4579 C   0  0  0  0  0  0  0  0  0  0  0  0
    4.3507    2.7546   -3.8100 C   0  0  0  0  0  0  0  0  0  0  0  0
    5.4292    2.6562   -4.6813 C   0  0  0  0  0  0  0  0  0  0  0  0
    6.7142    2.3310   -4.2248 C   0  0  0  0  0  0  0  0  0  0  0  0
    6.9598    2.0922   -2.8760 C   0  0  0  0  0  0  0  0  0  0  0  0
    5.9008    2.1752   -1.9820 C   0  0  0  0  0  0  0  0  0  0  0  0
    5.7916    1.9921   -0.5530 C   0  0  0  0  0  0  0  0  0  0  0  0
    4.4219    2.2325   -0.2062 C   0  0  0  0  0  0  0  0  0  0  0  0
    3.9851    2.1540    1.1163 C   0  0  0  0  0  0  0  0  0  0  0  0
    4.9242    1.8155    2.0841 C   0  0  0  0  0  0  0  0  0  0  0  0
    6.2624    1.5662    1.7524 C   0  0  0  0  0  0  0  0  0  0  0  0
    6.7065    1.6609    0.4369 C   0  0  0  0  0  0  0  0  0  0  0  0
    2.8096    0.0741    1.1743 H   0  0  0  0  0  0  0  0  0  0  0  0
    1.9060   -0.9491   -1.7811 H   0  0  0  0  0  0  0  0  0  0  0  0
    3.1668   -0.0335   -0.9539 H   0  0  0  0  0  0  0  0  0  0  0  0
    0.6822    1.2632   -2.2787 H   0  0  0  0  0  0  0  0  0  0  0  0
    2.2407    1.0542   -3.0956 H   0  0  0  0  0  0  0  0  0  0  0  0
    1.7994    2.6974   -0.4896 H   0  0  0  0  0  0  0  0  0  0  0  0
    1.9289    3.3811   -2.1345 H   0  0  0  0  0  0  0  0  0  0  0  0
    3.3625    3.0199   -4.1680 H   0  0  0  0  0  0  0  0  0  0  0  0
    5.2734    2.8375   -5.7451 H   0  0  0  0  0  0  0  0  0  0  0  0
    7.5320    2.2687   -4.9396 H   0  0  0  0  0  0  0  0  0  0  0  0
    7.9592    1.8470   -2.5231 H   0  0  0  0  0  0  0  0  0  0  0  0
    2.9570    2.3782    1.3894 H   0  0  0  0  0  0  0  0  0  0  0  0
    4.6151    1.7491    3.1284 H   0  0  0  0  0  0  0  0  0  0  0  0
    6.9647    1.3042    2.5407 H   0  0  0  0  0  0  0  0  0  0  0  0
    7.7493    1.4819    0.1826 H   0  0  0  0  0  0  0  0  0  0  0  0
  1  2  2  0  0  0  0
  2  3  1  0  0  0  0
  4 22  1  0  0  0  0
  4  2  1  0  0  0  0
  5  6  1  0  0  0  0
  5  4  1  0  0  0  0
  6  7  1  0  0  0  0
  6 25  1  0  0  0  0
  7 15  1  0  0  0  0
  8 13  1  0  0  0  0
  8  7  1  0  0  0  0
  9  8  2  0  0  0  0
 10 11  2  0  0  0  0
 10  9  1  0  0  0  0
 11 12  1  0  0  0  0
 12 30  1  0  0  0  0
 12 13  2  0  0  0  0
 13 14  1  0  0  0  0
 14 15  2  0  0  0  0
 14 19  1  0  0  0  0
 15 16  1  0  0  0  0
 16 31  1  0  0  0  0
 16 17  2  0  0  0  0
 17 32  1  0  0  0  0
 18 17  1  0  0  0  0
 18 33  1  0  0  0  0
 19 18  2  0  0  0  0
 20  3  1  0  0  0  0
 21  4  1  0  0  0  0
 23  5  1  0  0  0  0
 24  5  1  0  0  0  0
 26  6  1  0  0  0  0
 27  9  1  0  0  0  0
 28 10  1  0  0  0  0
 29 11  1  0  0  0  0
 34 19  1  0  0  0  0
M  END
$$$$
