34
rmsd103.gzmat
O          0.00000        0.00000        0.00000
C          1.19950        0.00000        0.00000
O          1.82750        0.00000        1.20800
C          2.08990       -0.00660       -1.21300
C          1.83460        1.24290       -2.05690
C          2.40470        2.52610       -1.41910
N          3.85730        2.51110       -1.32260
C          4.57610        2.10330       -0.18650
C          4.16880        2.03180        1.14580
C          5.11830        1.65310        2.08840
C          6.43810        1.35680        1.72350
C          6.85290        1.43970        0.39730
C          5.92710        1.81010       -0.56800
C          6.01090        2.00380       -1.99720
C          4.70950        2.40820       -2.43730
C          4.44860        2.68990       -3.77800
C          5.50100        2.55700       -4.67580
C          6.77750        2.15640       -4.25660
C          7.04300        1.88280       -2.91830
H          2.81010        0.06520        1.17200
H          1.86630       -0.91880       -1.81150
H          3.16480       -0.08920       -0.95380
H          0.74300        1.37290       -2.22220
H          2.27570        1.10120       -3.06550
H          1.96970        2.68540       -0.40460
H          2.10490        3.41200       -2.03090
H          3.15810        2.29530        1.44620
H          4.83160        1.59290        3.13940
H          7.15060        1.06800        2.49310
H          7.88190        1.22380        0.11620
H          3.46700        3.01250       -4.10600
H          5.33110        2.77200       -5.73090
H          7.57230        2.06390       -4.99350
H          8.03670        1.58150       -2.59330
