rmsd69.gzmat
 OpenBabel08211713403D

 37 39  0  0  0  0  0  0  0  0999 V2000
    0.0000    0.0000    0.0000 C   0  0  0  0  0  0  0  0  0  0  0  0
    1.3947    0.0000    0.0000 C   0  0  0  0  0  0  0  0  0  0  0  0
    2.0902    0.0000    1.2051 C   0  0  0  0  0  0  0  0  0  0  0  0
    1.3934   -0.0019    2.4183 C   0  0  0  0  0  0  0  0  0  0  0  0
   -0.0037    0.0015    2.4134 C   0  0  0  0  0  0  0  0  0  0  0  0
   -0.6986    0.0051    1.2061 C   0  0  0  0  0  0  0  0  0  0  0  0
    2.1482   -0.0098    3.7022 C   0  0  0  0  0  0  0  0  0  0  0  0
   -0.8731   -0.0204   -1.5170 S   0  0  0  0  0  0  0  0  0  0  0  0
   -2.0824    0.7533   -1.3636 O   0  0  0  0  0  0  0  0  0  0  0  0
    0.0500    0.2147   -2.6044 O   0  0  0  0  0  0  0  0  0  0  0  0
   -1.3163   -1.6933   -1.6891 N   0  0  0  0  0  0  0  0  0  0  0  0
   -2.5231   -2.1840   -1.1767 C   0  0  0  0  0  0  0  0  0  0  0  0
   -3.7027   -1.5020   -0.8835 C   0  0  0  0  0  0  0  0  0  0  0  0
   -4.6266   -2.4076   -0.3584 N   0  0  0  0  0  0  0  0  0  0  0  0
   -4.0608   -3.6731   -0.3183 C   0  0  0  0  0  0  0  0  0  0  0  0
   -4.5894   -4.9020    0.1096 C   0  0  0  0  0  0  0  0  0  0  0  0
   -3.7686   -6.0086    0.0289 C   0  0  0  0  0  0  0  0  0  0  0  0
   -2.4451   -5.9164   -0.4586 C   0  0  0  0  0  0  0  0  0  0  0  0
   -1.9206   -4.7119   -0.8859 C   0  0  0  0  0  0  0  0  0  0  0  0
   -2.7244   -3.5697   -0.8272 C   0  0  0  0  0  0  0  0  0  0  0  0
   -5.9569   -2.0691    0.1025 C   0  0  0  0  0  0  0  0  0  0  0  0
    1.9564    0.0036   -0.9422 H   0  0  0  0  0  0  0  0  0  0  0  0
    3.1772   -0.0016    1.2047 H   0  0  0  0  0  0  0  0  0  0  0  0
   -0.5526   -0.0011    3.3519 H   0  0  0  0  0  0  0  0  0  0  0  0
   -1.7940    0.0129    1.2235 H   0  0  0  0  0  0  0  0  0  0  0  0
    1.4947    0.0279    4.5843 H   0  0  0  0  0  0  0  0  0  0  0  0
    2.8328    0.8492    3.7732 H   0  0  0  0  0  0  0  0  0  0  0  0
    2.7630   -0.9182    3.7984 H   0  0  0  0  0  0  0  0  0  0  0  0
   -0.9702   -2.1950   -2.5051 H   0  0  0  0  0  0  0  0  0  0  0  0
   -3.9418   -0.4568   -1.0088 H   0  0  0  0  0  0  0  0  0  0  0  0
   -5.6040   -4.9703    0.4840 H   0  0  0  0  0  0  0  0  0  0  0  0
   -4.1401   -6.9832    0.3443 H   0  0  0  0  0  0  0  0  0  0  0  0
   -1.8378   -6.8179   -0.4912 H   0  0  0  0  0  0  0  0  0  0  0  0
   -0.9007   -4.6362   -1.2567 H   0  0  0  0  0  0  0  0  0  0  0  0
   -6.1707   -0.9974   -0.0644 H   0  0  0  0  0  0  0  0  0  0  0  0
   -6.0623   -2.2756    1.1849 H   0  0  0  0  0  0  0  0  0  0  0  0
   -6.7222   -2.6584   -0.4389 H   0  0  0  0  0  0  0  0  0  0  0  0
  1  2  2  0  0  0  0
  1  6  1  0  0  0  0
  2  3  1  0  0  0  0
  3  4  2  0  0  0  0
  4  7  1  0  0  0  0
  5  4  1  0  0  0  0
  5 24  1  0  0  0  0
  6 25  1  0  0  0  0
  6  5  2  0  0  0  0
  7 27  1  0  0  0  0
  7 28  1  0  0  0  0
  7 26  1  0  0  0  0
  8  9  2  0  0  0  0
  8  1  1  0  0  0  0
 10  8  2  0  0  0  0
 11  8  1  0  0  0  0
 11 12  1  0  0  0  0
 12 13  2  0  0  0  0
 12 20  1  0  0  0  0
 13 14  1  0  0  0  0
 14 15  1  0  0  0  0
 14 21  1  0  0  0  0
 15 16  2  0  0  0  0
 16 31  1  0  0  0  0
 17 16  1  0  0  0  0
 17 32  1  0  0  0  0
 18 17  2  0  0  0  0
 19 20  2  0  0  0  0
 19 18  1  0  0  0  0
 20 15  1  0  0  0  0
 21 36  1  0  0  0  0
 22  2  1  0  0  0  0
 23  3  1  0  0  0  0
 29 11  1  0  0  0  0
 30 13  1  0  0  0  0
 33 18  1  0  0  0  0
 34 19  1  0  0  0  0
 35 21  1  0  0  0  0
 37 21  1  0  0  0  0
M  END
$$$$
