37

C         -0.43240        0.09010       -0.39090
C          0.66860       -0.76730       -0.36830
C          0.99190       -1.42070        0.82100
C          0.22230       -1.23830        1.98100
C         -0.86080       -0.34570        1.93360
C         -1.19350        0.32180        0.75770
C          0.52400       -2.00200        3.24310
S         -0.99720        0.74190       -1.95420
O         -1.77250        1.95110       -1.68540
O          0.10280        0.69920       -2.91740
N         -2.10880       -0.43170       -2.50410
C         -3.17530       -0.77070       -1.64740
C         -4.33570       -0.03890       -1.50750
N         -5.10420       -0.57150       -0.49330
C         -4.44730       -1.66810        0.03750
C         -4.81310       -2.51810        1.08960
C         -3.91680       -3.52320        1.44760
C         -2.68630       -3.68210        0.77390
C         -2.32940       -2.84360       -0.27750
C         -3.21450       -1.82280       -0.66000
C         -6.39150       -0.08490       -0.05380
H          1.25580       -0.91380       -1.27660
H          1.85360       -2.09260        0.84830
H         -1.46260       -0.18320        2.83130
H         -2.03860        1.00910        0.71330
H          0.45630       -1.35550        4.13180
H          1.52750       -2.45090        3.21790
H         -0.20610       -2.81840        3.37910
H         -1.60200       -1.20890       -2.92410
H         -4.64110        0.85460       -2.04630
H         -5.76180       -2.39750        1.61640
H         -4.17110       -4.20030        2.26630
H         -2.00390       -4.47570        1.08720
H         -1.36730       -2.96020       -0.78030
H         -6.64670        0.82310       -0.61520
H         -6.37230        0.16310        1.02020
H         -7.18150       -0.83550       -0.22280
