rmsd9.gzmat
 OpenBabel08211713403D

 37 39  0  0  0  0  0  0  0  0999 V2000
    0.0000    0.0000    0.0000 C   0  0  0  0  0  0  0  0  0  0  0  0
    1.3948    0.0000    0.0000 C   0  0  0  0  0  0  0  0  0  0  0  0
    2.0912    0.0000    1.2052 C   0  0  0  0  0  0  0  0  0  0  0  0
    1.3956   -0.0059    2.4187 C   0  0  0  0  0  0  0  0  0  0  0  0
   -0.0021   -0.0050    2.4143 C   0  0  0  0  0  0  0  0  0  0  0  0
   -0.6973    0.0004    1.2077 C   0  0  0  0  0  0  0  0  0  0  0  0
    2.1455   -0.0021    3.7056 C   0  0  0  0  0  0  0  0  0  0  0  0
   -0.8761   -0.0056   -1.5163 S   0  0  0  0  0  0  0  0  0  0  0  0
   -0.1611   -0.8351   -2.4560 O   0  0  0  0  0  0  0  0  0  0  0  0
   -2.2853   -0.1893   -1.2515 O   0  0  0  0  0  0  0  0  0  0  0  0
   -0.7591    1.6473   -2.0464 N   0  0  0  0  0  0  0  0  0  0  0  0
    0.2817    2.0913   -2.8676 C   0  0  0  0  0  0  0  0  0  0  0  0
    1.1835    1.3550   -3.6322 C   0  0  0  0  0  0  0  0  0  0  0  0
    2.0953    2.2351   -4.2231 N   0  0  0  0  0  0  0  0  0  0  0  0
    1.7616    3.5377   -3.8877 C   0  0  0  0  0  0  0  0  0  0  0  0
    2.3550    4.7599   -4.2459 C   0  0  0  0  0  0  0  0  0  0  0  0
    1.8068    5.9111   -3.7181 C   0  0  0  0  0  0  0  0  0  0  0  0
    0.6906    5.8722   -2.8519 C   0  0  0  0  0  0  0  0  0  0  0  0
    0.1003    4.6746   -2.4972 C   0  0  0  0  0  0  0  0  0  0  0  0
    0.6250    3.4866   -3.0145 C   0  0  0  0  0  0  0  0  0  0  0  0
    3.1350    1.8447   -5.1528 C   0  0  0  0  0  0  0  0  0  0  0  0
    1.9587   -0.0015   -0.9396 H   0  0  0  0  0  0  0  0  0  0  0  0
    3.1781    0.0051    1.2023 H   0  0  0  0  0  0  0  0  0  0  0  0
   -0.5493   -0.0080    3.3537 H   0  0  0  0  0  0  0  0  0  0  0  0
   -1.7942   -0.0001    1.2242 H   0  0  0  0  0  0  0  0  0  0  0  0
    1.5280   -0.3117    4.5600 H   0  0  0  0  0  0  0  0  0  0  0  0
    2.5272    1.0059    3.9350 H   0  0  0  0  0  0  0  0  0  0  0  0
    3.0145   -0.6758    3.6810 H   0  0  0  0  0  0  0  0  0  0  0  0
   -1.6258    2.1751   -2.1399 H   0  0  0  0  0  0  0  0  0  0  0  0
    1.2431    0.2896   -3.7928 H   0  0  0  0  0  0  0  0  0  0  0  0
    3.2087    4.7884   -4.9122 H   0  0  0  0  0  0  0  0  0  0  0  0
    2.2376    6.8804   -3.9671 H   0  0  0  0  0  0  0  0  0  0  0  0
    0.3002    6.8094   -2.4635 H   0  0  0  0  0  0  0  0  0  0  0  0
   -0.7524    4.6412   -1.8224 H   0  0  0  0  0  0  0  0  0  0  0  0
    3.3281    0.7577   -5.0900 H   0  0  0  0  0  0  0  0  0  0  0  0
    4.0797    2.3735   -4.9265 H   0  0  0  0  0  0  0  0  0  0  0  0
    2.8454    2.0816   -6.1955 H   0  0  0  0  0  0  0  0  0  0  0  0
  1  6  1  0  0  0  0
  2  1  2  0  0  0  0
  2  3  1  0  0  0  0
  3  4  2  0  0  0  0
  4  7  1  0  0  0  0
  5  4  1  0  0  0  0
  5 24  1  0  0  0  0
  6 25  1  0  0  0  0
  6  5  2  0  0  0  0
  7 27  1  0  0  0  0
  7 26  1  0  0  0  0
  8 10  2  0  0  0  0
  8  1  1  0  0  0  0
  9  8  2  0  0  0  0
 11  8  1  0  0  0  0
 12 11  1  0  0  0  0
 13 12  2  0  0  0  0
 14 15  1  0  0  0  0
 14 13  1  0  0  0  0
 15 20  1  0  0  0  0
 16 15  2  0  0  0  0
 16 17  1  0  0  0  0
 17 18  2  0  0  0  0
 18 19  1  0  0  0  0
 18 33  1  0  0  0  0
 19 34  1  0  0  0  0
 20 12  1  0  0  0  0
 20 19  2  0  0  0  0
 21 35  1  0  0  0  0
 21 36  1  0  0  0  0
 21 14  1  0  0  0  0
 22  2  1  0  0  0  0
 23  3  1  0  0  0  0
 28  7  1  0  0  0  0
 29 11  1  0  0  0  0
 30 13  1  0  0  0  0
 31 16  1  0  0  0  0
 32 17  1  0  0  0  0
 37 21  1  0  0  0  0
M  END
$$$$
