37
rmsd14.gzmat
C          0.00000        0.00000        0.00000
C          1.39410        0.00000        0.00000
C          2.09190        0.00000        1.20520
C          1.39700        0.00130        2.41750
C         -0.00180        0.00420        2.41290
C         -0.69750        0.00360        1.20750
C          2.13280        0.01020        3.71230
S         -0.87070        0.00240       -1.51920
O         -2.21300        0.49190       -1.30230
O         -0.00640        0.55710       -2.53330
N         -1.10300       -1.69050       -1.85270
C         -0.18590       -2.44050       -2.59320
C          0.92740       -2.01760       -3.31430
N          1.59920       -3.14330       -3.80570
C          0.89420       -4.28520       -3.46260
C          1.14460       -5.63970       -3.73980
C          0.26450       -6.56830       -3.22340
C         -0.84910       -6.18220       -2.44370
C         -1.10130       -4.85290       -2.16460
C         -0.23480       -3.88200       -2.67520
C          2.72950       -3.08180       -4.70950
H          1.95680        0.00540       -0.94060
H          3.17890       -0.00080        1.20020
H         -0.54620        0.00650        3.35350
H         -1.79340        0.01400        1.22420
H          2.04800        0.99000        4.20870
H          3.20540       -0.19770        3.59770
H          1.73670       -0.73910        4.41390
H         -2.06440       -2.02400       -1.91390
H          1.28420       -1.02040       -3.51410
H          1.99770       -5.93660       -4.33840
H          0.42150       -7.62940       -3.41590
H         -1.51070       -6.95560       -2.06160
H         -1.95200       -4.55560       -1.55590
H          3.38980       -2.23420       -4.44600
H          2.39570       -2.94650       -5.75680
H          3.32760       -4.00970       -4.65510
