37
rmsd7.gzmat
C          0.00000        0.00000        0.00000
C          1.39410        0.00000        0.00000
C          2.09180        0.00000        1.20550
C          1.39700        0.00040        2.41770
C         -0.00200        0.00110        2.41350
C         -0.69770        0.00080        1.20820
C          2.13260       -0.00340        3.71270
S         -0.87370        0.00480       -1.51810
O         -2.25060        0.36810       -1.27210
O         -0.06480        0.67770       -2.50530
N         -0.96020       -1.68640       -1.92900
C         -0.05820       -2.29780       -2.80270
C          1.00960       -1.74420       -3.50400
N          1.68910       -2.77060       -4.17140
C          1.03800       -3.97190       -3.95260
C          1.31320       -5.26720       -4.42330
C          0.48460       -6.28660       -4.00290
C         -0.60120       -6.04810       -3.12980
C         -0.87840       -4.77810       -2.66310
C         -0.06590       -3.71710       -3.07340
C          2.80160       -2.55720       -5.07340
H          1.95740        0.00380       -0.94010
H          3.17910       -0.00030        1.20130
H         -0.54650        0.00140        3.35470
H         -1.79390        0.00750        1.22460
H          1.81960        0.83060        4.35920
H          3.22100        0.08100        3.58960
H          1.94660       -0.93260        4.27370
H         -1.88810       -2.11150       -1.92270
H          1.32400       -0.71720       -3.59080
H          2.14390       -5.44980       -5.09420
H          0.66180       -7.30550       -4.34660
H         -1.22130       -6.88820       -2.82720
H         -1.70770       -4.59620       -1.98290
H          3.45230       -1.74420       -4.70030
H          2.44590       -2.27960       -6.08460
H          3.41620       -3.47170       -5.16310
