37
rmsd9.gzmat
C          0.00000        0.00000        0.00000
C          1.39480        0.00000        0.00000
C          2.09120        0.00000        1.20520
C          1.39560       -0.00590        2.41870
C         -0.00210       -0.00500        2.41430
C         -0.69730        0.00040        1.20770
C          2.14550       -0.00210        3.70560
S         -0.87610       -0.00560       -1.51630
O         -0.16110       -0.83510       -2.45600
O         -2.28530       -0.18930       -1.25150
N         -0.75910        1.64730       -2.04640
C          0.28170        2.09130       -2.86760
C          1.18350        1.35500       -3.63220
N          2.09530        2.23510       -4.22310
C          1.76160        3.53770       -3.88770
C          2.35500        4.75990       -4.24590
C          1.80680        5.91110       -3.71810
C          0.69060        5.87220       -2.85190
C          0.10030        4.67460       -2.49720
C          0.62500        3.48660       -3.01450
C          3.13500        1.84470       -5.15280
H          1.95870       -0.00150       -0.93960
H          3.17810        0.00510        1.20230
H         -0.54930       -0.00800        3.35370
H         -1.79420       -0.00010        1.22420
H          1.52800       -0.31170        4.56000
H          2.52720        1.00590        3.93500
H          3.01450       -0.67580        3.68100
H         -1.62580        2.17510       -2.13990
H          1.24310        0.28960       -3.79280
H          3.20870        4.78840       -4.91220
H          2.23760        6.88040       -3.96710
H          0.30020        6.80940       -2.46350
H         -0.75240        4.64120       -1.82240
H          3.32810        0.75770       -5.09000
H          4.07970        2.37350       -4.92650
H          2.84540        2.08160       -6.19550
