rmsd46.gzmat
 OpenBabel08211713403D

 37 39  0  0  0  0  0  0  0  0999 V2000
    0.0000    0.0000    0.0000 C   0  0  0  0  0  0  0  0  0  0  0  0
    1.3946    0.0000    0.0000 C   0  0  0  0  0  0  0  0  0  0  0  0
    2.0909    0.0000    1.2056 C   0  0  0  0  0  0  0  0  0  0  0  0
    1.3954    0.0051    2.4190 C   0  0  0  0  0  0  0  0  0  0  0  0
   -0.0026    0.0072    2.4142 C   0  0  0  0  0  0  0  0  0  0  0  0
   -0.6976    0.0036    1.2075 C   0  0  0  0  0  0  0  0  0  0  0  0
    2.1436   -0.0064    3.7069 C   0  0  0  0  0  0  0  0  0  0  0  0
   -0.8776    0.0093   -1.5157 S   0  0  0  0  0  0  0  0  0  0  0  0
   -2.2632    0.3252   -1.2526 O   0  0  0  0  0  0  0  0  0  0  0  0
   -0.0964    0.7290   -2.4921 O   0  0  0  0  0  0  0  0  0  0  0  0
   -0.9135   -1.6741   -1.9661 N   0  0  0  0  0  0  0  0  0  0  0  0
   -0.0336   -2.2237   -2.9032 C   0  0  0  0  0  0  0  0  0  0  0  0
    0.9673   -1.6080   -3.6504 C   0  0  0  0  0  0  0  0  0  0  0  0
    1.6428   -2.5864   -4.3896 N   0  0  0  0  0  0  0  0  0  0  0  0
    1.0558   -3.8197   -4.1652 C   0  0  0  0  0  0  0  0  0  0  0  0
    1.3539   -5.0886   -4.6904 C   0  0  0  0  0  0  0  0  0  0  0  0
    0.5978   -6.1539   -4.2471 C   0  0  0  0  0  0  0  0  0  0  0  0
   -0.4381   -5.9853   -3.3004 C   0  0  0  0  0  0  0  0  0  0  0  0
   -0.7390   -4.7406   -2.7819 C   0  0  0  0  0  0  0  0  0  0  0  0
   -0.0001   -3.6347   -3.2124 C   0  0  0  0  0  0  0  0  0  0  0  0
    2.6862   -2.3135   -5.3563 C   0  0  0  0  0  0  0  0  0  0  0  0
    1.9578    0.0049   -0.9396 H   0  0  0  0  0  0  0  0  0  0  0  0
    3.1780   -0.0041    1.2029 H   0  0  0  0  0  0  0  0  0  0  0  0
   -0.5496    0.0113    3.3537 H   0  0  0  0  0  0  0  0  0  0  0  0
   -1.7944    0.0113    1.2240 H   0  0  0  0  0  0  0  0  0  0  0  0
    1.5664    0.4237    4.5372 H   0  0  0  0  0  0  0  0  0  0  0  0
    3.0857    0.5578    3.6500 H   0  0  0  0  0  0  0  0  0  0  0  0
    2.4043   -1.0370    3.9977 H   0  0  0  0  0  0  0  0  0  0  0  0
   -1.8266   -2.1310   -1.9398 H   0  0  0  0  0  0  0  0  0  0  0  0
    1.2394   -0.5673   -3.7194 H   0  0  0  0  0  0  0  0  0  0  0  0
    2.1475   -5.2158   -5.4170 H   0  0  0  0  0  0  0  0  0  0  0  0
    0.7939   -7.1549   -4.6303 H   0  0  0  0  0  0  0  0  0  0  0  0
   -1.0006   -6.8595   -2.9823 H   0  0  0  0  0  0  0  0  0  0  0  0
   -1.5308   -4.6132   -2.0474 H   0  0  0  0  0  0  0  0  0  0  0  0
    3.1728   -1.3437   -5.1431 H   0  0  0  0  0  0  0  0  0  0  0  0
    2.2753   -2.2733   -6.3841 H   0  0  0  0  0  0  0  0  0  0  0  0
    3.4636   -3.0997   -5.3245 H   0  0  0  0  0  0  0  0  0  0  0  0
  1  6  1  0  0  0  0
  2  1  2  0  0  0  0
  2  3  1  0  0  0  0
  3  4  2  0  0  0  0
  4  7  1  0  0  0  0
  5  4  1  0  0  0  0
  5 24  1  0  0  0  0
  6 25  1  0  0  0  0
  6  5  2  0  0  0  0
  7 28  1  0  0  0  0
  7 26  1  0  0  0  0
  8  9  2  0  0  0  0
  8  1  1  0  0  0  0
 10  8  2  0  0  0  0
 11 29  1  0  0  0  0
 11  8  1  0  0  0  0
 12 11  1  0  0  0  0
 13 12  2  0  0  0  0
 14 15  1  0  0  0  0
 14 13  1  0  0  0  0
 15 20  2  0  0  0  0
 16 17  2  0  0  0  0
 16 15  1  0  0  0  0
 17 18  1  0  0  0  0
 18 33  1  0  0  0  0
 18 19  2  0  0  0  0
 19 34  1  0  0  0  0
 20 12  1  0  0  0  0
 20 19  1  0  0  0  0
 21 37  1  0  0  0  0
 21 35  1  0  0  0  0
 21 14  1  0  0  0  0
 22  2  1  0  0  0  0
 23  3  1  0  0  0  0
 27  7  1  0  0  0  0
 30 13  1  0  0  0  0
 31 16  1  0  0  0  0
 32 17  1  0  0  0  0
 36 21  1  0  0  0  0
M  END
$$$$
