rmsd60.gzmat
 OpenBabel08211713403D

 37 39  0  0  0  0  0  0  0  0999 V2000
    0.0000    0.0000    0.0000 C   0  0  0  0  0  0  0  0  0  0  0  0
    1.3948    0.0000    0.0000 C   0  0  0  0  0  0  0  0  0  0  0  0
    2.0905    0.0000    1.2051 C   0  0  0  0  0  0  0  0  0  0  0  0
    1.3952   -0.0002    2.4187 C   0  0  0  0  0  0  0  0  0  0  0  0
   -0.0015   -0.0104    2.4143 C   0  0  0  0  0  0  0  0  0  0  0  0
   -0.6965   -0.0129    1.2072 C   0  0  0  0  0  0  0  0  0  0  0  0
    2.1508    0.0129    3.7020 C   0  0  0  0  0  0  0  0  0  0  0  0
   -0.8900    0.0340   -1.5100 S   0  0  0  0  0  0  0  0  0  0  0  0
   -2.2605   -0.3429   -1.2499 O   0  0  0  0  0  0  0  0  0  0  0  0
   -0.5592    1.2457   -2.2180 O   0  0  0  0  0  0  0  0  0  0  0  0
   -0.2245   -1.3162   -2.3909 N   0  0  0  0  0  0  0  0  0  0  0  0
    0.7369   -1.1565   -3.3933 C   0  0  0  0  0  0  0  0  0  0  0  0
    1.3319    0.0072   -3.8741 C   0  0  0  0  0  0  0  0  0  0  0  0
    2.3120   -0.3423   -4.8105 N   0  0  0  0  0  0  0  0  0  0  0  0
    2.3174   -1.7165   -4.9791 C   0  0  0  0  0  0  0  0  0  0  0  0
    3.0924   -2.5357   -5.8175 C   0  0  0  0  0  0  0  0  0  0  0  0
    2.8902   -3.8981   -5.7385 C   0  0  0  0  0  0  0  0  0  0  0  0
    1.9414   -4.4570   -4.8526 C   0  0  0  0  0  0  0  0  0  0  0  0
    1.1732   -3.6578   -4.0286 C   0  0  0  0  0  0  0  0  0  0  0  0
    1.3457   -2.2715   -4.0822 C   0  0  0  0  0  0  0  0  0  0  0  0
    3.0612    0.6067   -5.6079 C   0  0  0  0  0  0  0  0  0  0  0  0
    1.9597   -0.0075   -0.9383 H   0  0  0  0  0  0  0  0  0  0  0  0
    3.1778   -0.0010    1.2051 H   0  0  0  0  0  0  0  0  0  0  0  0
   -0.5493   -0.0170    3.3532 H   0  0  0  0  0  0  0  0  0  0  0  0
   -1.7933   -0.0293    1.2257 H   0  0  0  0  0  0  0  0  0  0  0  0
    1.4993   -0.0450    4.5845 H   0  0  0  0  0  0  0  0  0  0  0  0
    2.7471    0.9329    3.8041 H   0  0  0  0  0  0  0  0  0  0  0  0
    2.8522   -0.8329    3.7673 H   0  0  0  0  0  0  0  0  0  0  0  0
   -0.8438   -2.1149   -2.5348 H   0  0  0  0  0  0  0  0  0  0  0  0
    1.1307    1.0395   -3.6347 H   0  0  0  0  0  0  0  0  0  0  0  0
    3.8159   -2.1058   -6.4998 H   0  0  0  0  0  0  0  0  0  0  0  0
    3.4691   -4.5699   -6.3717 H   0  0  0  0  0  0  0  0  0  0  0  0
    1.8240   -5.5377   -4.8293 H   0  0  0  0  0  0  0  0  0  0  0  0
    0.4476   -4.0896   -3.3432 H   0  0  0  0  0  0  0  0  0  0  0  0
    3.0909    1.5950   -5.1125 H   0  0  0  0  0  0  0  0  0  0  0  0
    2.6031    0.7373   -6.6077 H   0  0  0  0  0  0  0  0  0  0  0  0
    4.1031    0.2629   -5.7474 H   0  0  0  0  0  0  0  0  0  0  0  0
  1  6  1  0  0  0  0
  2  1  2  0  0  0  0
  2  3  1  0  0  0  0
  3  4  2  0  0  0  0
  4  7  1  0  0  0  0
  5  4  1  0  0  0  0
  5 24  1  0  0  0  0
  6 25  1  0  0  0  0
  6  5  2  0  0  0  0
  7 28  1  0  0  0  0
  7 27  1  0  0  0  0
  7 26  1  0  0  0  0
  8  9  2  0  0  0  0
  8  1  1  0  0  0  0
 10  8  2  0  0  0  0
 11  8  1  0  0  0  0
 12 11  1  0  0  0  0
 13 30  1  0  0  0  0
 13 12  2  0  0  0  0
 14 13  1  0  0  0  0
 15 14  1  0  0  0  0
 15 20  2  0  0  0  0
 16 17  2  0  0  0  0
 16 15  1  0  0  0  0
 17 18  1  0  0  0  0
 18 33  1  0  0  0  0
 18 19  2  0  0  0  0
 19 34  1  0  0  0  0
 20 19  1  0  0  0  0
 20 12  1  0  0  0  0
 21 35  1  0  0  0  0
 21 14  1  0  0  0  0
 22  2  1  0  0  0  0
 23  3  1  0  0  0  0
 29 11  1  0  0  0  0
 31 16  1  0  0  0  0
 32 17  1  0  0  0  0
 36 21  1  0  0  0  0
 37 21  1  0  0  0  0
M  END
$$$$
