
     RDKit          3D

 37 39  0  0  0  0  0  0  0  0999 V2000
   -0.4324    0.0901   -0.3909 C   0  0  0  0  0  0  0  0  0  0  0  0
    0.6686   -0.7673   -0.3683 C   0  0  0  0  0  0  0  0  0  0  0  0
    0.9919   -1.4207    0.8210 C   0  0  0  0  0  0  0  0  0  0  0  0
    0.2223   -1.2383    1.9810 C   0  0  0  0  0  0  0  0  0  0  0  0
   -0.8608   -0.3457    1.9336 C   0  0  0  0  0  0  0  0  0  0  0  0
   -1.1935    0.3218    0.7577 C   0  0  0  0  0  0  0  0  0  0  0  0
    0.5240   -2.0020    3.2431 C   0  0  0  0  0  0  0  0  0  0  0  0
   -0.9972    0.7419   -1.9542 S   0  0  0  0  0  0  0  0  0  0  0  0
   -1.7725    1.9511   -1.6854 O   0  0  0  0  0  0  0  0  0  0  0  0
    0.1028    0.6992   -2.9174 O   0  0  0  0  0  0  0  0  0  0  0  0
   -2.1088   -0.4317   -2.5041 N   0  0  0  0  0  0  0  0  0  0  0  0
   -3.1753   -0.7707   -1.6474 C   0  0  0  0  0  0  0  0  0  0  0  0
   -4.3357   -0.0389   -1.5075 C   0  0  0  0  0  0  0  0  0  0  0  0
   -5.1042   -0.5715   -0.4933 N   0  0  0  0  0  0  0  0  0  0  0  0
   -4.4473   -1.6681    0.0375 C   0  0  0  0  0  0  0  0  0  0  0  0
   -4.8131   -2.5181    1.0896 C   0  0  0  0  0  0  0  0  0  0  0  0
   -3.9168   -3.5232    1.4476 C   0  0  0  0  0  0  0  0  0  0  0  0
   -2.6863   -3.6821    0.7739 C   0  0  0  0  0  0  0  0  0  0  0  0
   -2.3294   -2.8436   -0.2775 C   0  0  0  0  0  0  0  0  0  0  0  0
   -3.2145   -1.8228   -0.6600 C   0  0  0  0  0  0  0  0  0  0  0  0
   -6.3915   -0.0849   -0.0538 C   0  0  0  0  0  0  0  0  0  0  0  0
    1.2558   -0.9138   -1.2766 H   0  0  0  0  0  0  0  0  0  0  0  0
    1.8536   -2.0926    0.8483 H   0  0  0  0  0  0  0  0  0  0  0  0
   -1.4626   -0.1832    2.8313 H   0  0  0  0  0  0  0  0  0  0  0  0
   -2.0386    1.0091    0.7133 H   0  0  0  0  0  0  0  0  0  0  0  0
    0.4563   -1.3555    4.1318 H   0  0  0  0  0  0  0  0  0  0  0  0
    1.5275   -2.4509    3.2179 H   0  0  0  0  0  0  0  0  0  0  0  0
   -0.2061   -2.8184    3.3791 H   0  0  0  0  0  0  0  0  0  0  0  0
   -1.6020   -1.2089   -2.9241 H   0  0  0  0  0  0  0  0  0  0  0  0
   -4.6411    0.8546   -2.0463 H   0  0  0  0  0  0  0  0  0  0  0  0
   -5.7618   -2.3975    1.6164 H   0  0  0  0  0  0  0  0  0  0  0  0
   -4.1711   -4.2003    2.2663 H   0  0  0  0  0  0  0  0  0  0  0  0
   -2.0039   -4.4757    1.0872 H   0  0  0  0  0  0  0  0  0  0  0  0
   -1.3673   -2.9602   -0.7803 H   0  0  0  0  0  0  0  0  0  0  0  0
   -6.6467    0.8231   -0.6152 H   0  0  0  0  0  0  0  0  0  0  0  0
   -6.3723    0.1631    1.0202 H   0  0  0  0  0  0  0  0  0  0  0  0
   -7.1815   -0.8355   -0.2228 H   0  0  0  0  0  0  0  0  0  0  0  0
  1  2  2  0
  1  6  1  0
  1  8  1  0
  2  3  1  0
  2 22  1  0
  3  4  2  0
  3 23  1  0
  4  5  1  0
  4  7  1  0
  5  6  2  0
  5 24  1  0
  6 25  1  0
  7 26  1  0
  7 27  1  0
  7 28  1  0
  8  9  2  0
  8 10  2  0
  8 11  1  0
 11 12  1  0
 11 29  1  0
 12 13  2  0
 12 20  1  0
 13 14  1  0
 13 30  1  0
 14 15  1  0
 14 21  1  0
 15 16  1  0
 15 20  2  0
 16 17  2  0
 16 31  1  0
 17 18  1  0
 17 32  1  0
 18 19  2  0
 18 33  1  0
 19 20  1  0
 19 34  1  0
 21 35  1  0
 21 36  1  0
 21 37  1  0
M  END

