rmsd85.gzmat
 OpenBabel08211713403D

 37 39  0  0  0  0  0  0  0  0999 V2000
    0.0000    0.0000    0.0000 C   0  0  0  0  0  0  0  0  0  0  0  0
    1.3945    0.0000    0.0000 C   0  0  0  0  0  0  0  0  0  0  0  0
    2.0913    0.0000    1.2054 C   0  0  0  0  0  0  0  0  0  0  0  0
    1.3966    0.0036    2.4188 C   0  0  0  0  0  0  0  0  0  0  0  0
   -0.0013   -0.0007    2.4140 C   0  0  0  0  0  0  0  0  0  0  0  0
   -0.6964   -0.0055    1.2076 C   0  0  0  0  0  0  0  0  0  0  0  0
    2.1432    0.0299    3.7074 C   0  0  0  0  0  0  0  0  0  0  0  0
   -0.8879    0.0264   -1.5102 S   0  0  0  0  0  0  0  0  0  0  0  0
   -2.2958   -0.1289   -1.2230 O   0  0  0  0  0  0  0  0  0  0  0  0
   -0.3926    1.1109   -2.3218 O   0  0  0  0  0  0  0  0  0  0  0  0
   -0.4337   -1.4757   -2.2668 N   0  0  0  0  0  0  0  0  0  0  0  0
    0.5502   -1.5513   -3.2576 C   0  0  0  0  0  0  0  0  0  0  0  0
    1.2390   -0.5309   -3.9079 C   0  0  0  0  0  0  0  0  0  0  0  0
    2.1944   -1.1021   -4.7565 N   0  0  0  0  0  0  0  0  0  0  0  0
    2.0868   -2.4824   -4.7061 C   0  0  0  0  0  0  0  0  0  0  0  0
    2.7950   -3.4851   -5.3893 C   0  0  0  0  0  0  0  0  0  0  0  0
    2.4848   -4.7969   -5.0944 C   0  0  0  0  0  0  0  0  0  0  0  0
    1.4945   -5.1283   -4.1424 C   0  0  0  0  0  0  0  0  0  0  0  0
    0.7891   -4.1479   -3.4716 C   0  0  0  0  0  0  0  0  0  0  0  0
    1.0707   -2.8070   -3.7481 C   0  0  0  0  0  0  0  0  0  0  0  0
    3.0060   -0.3528   -5.6938 C   0  0  0  0  0  0  0  0  0  0  0  0
    1.9599   -0.0036   -0.9381 H   0  0  0  0  0  0  0  0  0  0  0  0
    3.1783   -0.0026    1.2010 H   0  0  0  0  0  0  0  0  0  0  0  0
   -0.5482    0.0003    3.3534 H   0  0  0  0  0  0  0  0  0  0  0  0
   -1.7934   -0.0118    1.2249 H   0  0  0  0  0  0  0  0  0  0  0  0
    1.5514   -0.3537    4.5503 H   0  0  0  0  0  0  0  0  0  0  0  0
    2.4378    1.0598    3.9666 H   0  0  0  0  0  0  0  0  0  0  0  0
    3.0656   -0.5672    3.6691 H   0  0  0  0  0  0  0  0  0  0  0  0
   -1.1615   -2.1864   -2.3503 H   0  0  0  0  0  0  0  0  0  0  0  0
    1.1263    0.5393   -3.8324 H   0  0  0  0  0  0  0  0  0  0  0  0
    3.5518   -3.2303   -6.1212 H   0  0  0  0  0  0  0  0  0  0  0  0
    3.0090   -5.6054   -5.6035 H   0  0  0  0  0  0  0  0  0  0  0  0
    1.2943   -6.1782   -3.9427 H   0  0  0  0  0  0  0  0  0  0  0  0
    0.0299   -4.4031   -2.7357 H   0  0  0  0  0  0  0  0  0  0  0  0
    3.2283    0.6551   -5.2960 H   0  0  0  0  0  0  0  0  0  0  0  0
    2.4866   -0.2334   -6.6649 H   0  0  0  0  0  0  0  0  0  0  0  0
    3.9677   -0.8663   -5.8773 H   0  0  0  0  0  0  0  0  0  0  0  0
  1  6  1  0  0  0  0
  2  1  2  0  0  0  0
  2  3  1  0  0  0  0
  3  4  2  0  0  0  0
  4  7  1  0  0  0  0
  5  4  1  0  0  0  0
  5 24  1  0  0  0  0
  6 25  1  0  0  0  0
  6  5  2  0  0  0  0
  7 27  1  0  0  0  0
  7 26  1  0  0  0  0
  8  9  2  0  0  0  0
  8  1  1  0  0  0  0
 10  8  2  0  0  0  0
 11  8  1  0  0  0  0
 12 11  1  0  0  0  0
 13 30  1  0  0  0  0
 13 12  2  0  0  0  0
 14 15  1  0  0  0  0
 14 13  1  0  0  0  0
 15 20  2  0  0  0  0
 16 17  2  0  0  0  0
 16 15  1  0  0  0  0
 17 18  1  0  0  0  0
 18 33  1  0  0  0  0
 18 19  2  0  0  0  0
 19 34  1  0  0  0  0
 20 19  1  0  0  0  0
 20 12  1  0  0  0  0
 21 35  1  0  0  0  0
 21 14  1  0  0  0  0
 22  2  1  0  0  0  0
 23  3  1  0  0  0  0
 28  7  1  0  0  0  0
 29 11  1  0  0  0  0
 31 16  1  0  0  0  0
 32 17  1  0  0  0  0
 36 21  1  0  0  0  0
 37 21  1  0  0  0  0
M  END
$$$$
