rmsd230.gzmat
 OpenBabel08211713403D

 49 51  0  0  1  0  0  0  0  0999 V2000
    0.0000    0.0000    0.0000 Br  0  0  0  0  0  0  0  0  0  0  0  0
    1.8992    0.0000    0.0000 C   0  0  0  0  0  0  0  0  0  0  0  0
    2.5704    0.0000    1.2174 C   0  0  0  0  0  0  0  0  0  0  0  0
    3.9645   -0.0015    1.2126 C   0  0  0  0  0  0  0  0  0  0  0  0
    4.6512   -0.0057   -0.0026 C   0  0  0  0  0  0  0  0  0  0  0  0
    6.1288   -0.0023   -0.0483 C   0  0  0  0  0  0  0  0  0  0  0  0
    6.8082    0.1873   -1.0254 O   0  0  0  0  0  0  0  0  0  0  0  0
    6.6256   -0.2544    1.1834 O   0  0  0  0  0  0  0  0  0  0  0  0
    8.0287   -0.2476    1.4386 C   0  0  2  0  0  0  0  0  0  0  0  0
    8.0076   -0.5575    2.5222 H   0  0  0  0  0  0  0  0  0  0  0  0
    8.5620    1.1641    1.3043 C   0  0  0  0  0  0  0  0  0  0  0  0
    8.6352    1.8329    2.4732 N   0  0  0  0  0  0  0  0  0  0  0  0
    9.0827    3.1019    2.4656 C   0  0  0  0  0  0  0  0  0  0  0  0
    9.0929    3.7883    3.8136 C   0  0  1  0  0  0  0  0  0  0  0  0
    9.3282    3.0686    4.6368 H   0  0  0  0  0  0  0  0  0  0  0  0
   10.0844    4.8243    3.7604 O   0  0  0  0  0  0  0  0  0  0  0  0
   11.2983    4.5713    4.3136 C   0  0  0  0  0  0  0  0  0  0  0  0
   11.5684    3.5242    4.8435 O   0  0  0  0  0  0  0  0  0  0  0  0
   12.1842    5.7443    4.1769 C   0  0  0  0  0  0  0  0  0  0  0  0
   11.7668    6.9051    3.5233 C   0  0  0  0  0  0  0  0  0  0  0  0
   12.6368    7.9893    3.4179 C   0  0  0  0  0  0  0  0  0  0  0  0
   13.9062    7.8845    3.9755 C   0  0  0  0  0  0  0  0  0  0  0  0
   15.0918    9.3612    3.8369 Br  0  0  0  0  0  0  0  0  0  0  0  0
   14.3387    6.7363    4.6293 C   0  0  0  0  0  0  0  0  0  0  0  0
   13.4652    5.6555    4.7284 C   0  0  0  0  0  0  0  0  0  0  0  0
    7.7828    4.5286    4.0537 C   0  0  0  0  0  0  0  0  0  0  0  0
    9.4858    3.7540    1.2925 C   0  0  0  0  0  0  0  0  0  0  0  0
    9.4145    3.0538    0.0913 C   0  0  0  0  0  0  0  0  0  0  0  0
    8.9450    1.7412    0.0877 C   0  0  0  0  0  0  0  0  0  0  0  0
    8.7714   -1.2618    0.5895 C   0  0  0  0  0  0  0  0  0  0  0  0
    3.9608   -0.0013   -1.2171 C   0  0  0  0  0  0  0  0  0  0  0  0
    2.5673    0.0000   -1.2193 C   0  0  0  0  0  0  0  0  0  0  0  0
    2.0328   -0.0008    2.1657 H   0  0  0  0  0  0  0  0  0  0  0  0
    4.5160    0.0005    2.1578 H   0  0  0  0  0  0  0  0  0  0  0  0
   10.7624    6.9678    3.0959 H   0  0  0  0  0  0  0  0  0  0  0  0
   12.3137    8.8950    2.9044 H   0  0  0  0  0  0  0  0  0  0  0  0
   15.3385    6.6672    5.0586 H   0  0  0  0  0  0  0  0  0  0  0  0
   13.7772    4.7359    5.2345 H   0  0  0  0  0  0  0  0  0  0  0  0
    7.5837    5.2674    3.2670 H   0  0  0  0  0  0  0  0  0  0  0  0
    7.8012    5.0659    5.0102 H   0  0  0  0  0  0  0  0  0  0  0  0
    6.9405    3.8234    4.0752 H   0  0  0  0  0  0  0  0  0  0  0  0
    9.8434    4.7801    1.3306 H   0  0  0  0  0  0  0  0  0  0  0  0
    9.7183    3.5279   -0.8422 H   0  0  0  0  0  0  0  0  0  0  0  0
    8.8639    1.1800   -0.8446 H   0  0  0  0  0  0  0  0  0  0  0  0
    9.8292   -1.3181    0.8773 H   0  0  0  0  0  0  0  0  0  0  0  0
    8.7339   -1.0194   -0.4832 H   0  0  0  0  0  0  0  0  0  0  0  0
    8.3387   -2.2645    0.7040 H   0  0  0  0  0  0  0  0  0  0  0  0
    4.5175    0.0049   -2.1595 H   0  0  0  0  0  0  0  0  0  0  0  0
    2.0263    0.0026   -2.1656 H   0  0  0  0  0  0  0  0  0  0  0  0
  1  2  1  0  0  0  0
  2  3  2  0  0  0  0
  3 33  1  0  0  0  0
  4  3  1  0  0  0  0
  4 34  1  0  0  0  0
  5  4  2  0  0  0  0
  6  5  1  0  0  0  0
  6  8  1  0  0  0  0
  7  6  2  0  0  0  0
  8  9  1  0  0  0  0
  9 10  1  1  0  0  0
 11  9  1  0  0  0  0
 11 12  2  0  0  0  0
 13 12  2  0  0  0  0
 13 14  1  0  0  0  0
 14 26  1  0  0  0  0
 14 15  1  1  0  0  0
 16 14  1  0  0  0  0
 16 17  1  0  0  0  0
 17 18  2  0  0  0  0
 19 17  1  0  0  0  0
 19 25  2  0  0  0  0
 20 19  1  0  0  0  0
 21 20  2  0  0  0  0
 21 22  1  0  0  0  0
 22 24  2  0  0  0  0
 23 22  1  0  0  0  0
 24 25  1  0  0  0  0
 24 37  1  0  0  0  0
 25 38  1  0  0  0  0
 26 41  1  0  0  0  0
 26 40  1  0  0  0  0
 27 42  1  0  0  0  0
 27 13  1  0  0  0  0
 28 27  2  0  0  0  0
 29 28  1  0  0  0  0
 29 11  1  0  0  0  0
 30 47  1  0  0  0  0
 30 45  1  0  0  0  0
 30  9  1  0  0  0  0
 31  5  1  0  0  0  0
 32 31  2  0  0  0  0
 32  2  1  0  0  0  0
 35 20  1  0  0  0  0
 36 21  1  0  0  0  0
 39 26  1  0  0  0  0
 43 28  1  0  0  0  0
 44 29  1  0  0  0  0
 46 30  1  0  0  0  0
 48 31  1  0  0  0  0
 49 32  1  0  0  0  0
M  RAD  1  29   2
M  END
$$$$
