
     RDKit          3D

 49 51  0  0  0  0  0  0  0  0999 V2000
    0.1408    2.1982    0.0675 Br  0  0  0  0  0  0  0  0  0  0  0  0
    1.8180    1.3018    0.0955 C   0  0  0  0  0  0  0  0  0  0  0  0
    2.7853    1.6849    1.0299 C   0  0  0  0  0  0  0  0  0  0  0  0
    4.0127    1.0239    1.0485 C   0  0  0  0  0  0  0  0  0  0  0  0
    4.2741   -0.0125    0.1399 C   0  0  0  0  0  0  0  0  0  0  0  0
    5.5707   -0.7478    0.1192 C   0  0  0  0  0  0  0  0  0  0  0  0
    5.8600   -1.5935   -0.6948 O   0  0  0  0  0  0  0  0  0  0  0  0
    6.3855   -0.3631    1.1215 O   0  0  0  0  0  0  0  0  0  0  0  0
    7.6878   -0.9684    1.2023 C   0  0  2  0  0  0  0  0  0  0  0  0
    7.6220   -1.9737    0.7574 H   0  0  0  0  0  0  0  0  0  0  0  0
    8.0511   -1.1112    2.6678 C   0  0  0  0  0  0  0  0  0  0  0  0
    9.2835   -1.5687    2.9021 N   0  0  0  0  0  0  0  0  0  0  0  0
    9.6957   -1.7428    4.1602 C   0  0  0  0  0  0  0  0  0  0  0  0
   11.1171   -2.2518    4.3040 C   0  0  1  0  0  0  0  0  0  0  0  0
   11.8077   -1.4661    3.9598 H   0  0  0  0  0  0  0  0  0  0  0  0
   11.3708   -2.4825    5.7009 O   0  0  0  0  0  0  0  0  0  0  0  0
   12.6122   -2.2402    6.1662 C   0  0  0  0  0  0  0  0  0  0  0  0
   13.5137   -1.8121    5.4839 O   0  0  0  0  0  0  0  0  0  0  0  0
   12.7366   -2.5564    7.6177 C   0  0  0  0  0  0  0  0  0  0  0  0
   11.6913   -3.1350    8.3529 C   0  0  0  0  0  0  0  0  0  0  0  0
   11.8539   -3.4145    9.7092 C   0  0  0  0  0  0  0  0  0  0  0  0
   13.0706   -3.1102   10.3276 C   0  0  0  0  0  0  0  0  0  0  0  0
   13.2970   -3.4869   12.1781 Br  0  0  0  0  0  0  0  0  0  0  0  0
   14.1247   -2.5358    9.6092 C   0  0  0  0  0  0  0  0  0  0  0  0
   13.9516   -2.2637    8.2541 C   0  0  0  0  0  0  0  0  0  0  0  0
   11.3780   -3.5287    3.5153 C   0  0  0  0  0  0  0  0  0  0  0  0
    8.8781   -1.4579    5.2609 C   0  0  0  0  0  0  0  0  0  0  0  0
    7.5891   -0.9836    5.0171 C   0  0  0  0  0  0  0  0  0  0  0  0
    7.1581   -0.8054    3.7024 C   0  0  0  0  0  0  0  0  0  0  0  0
    8.6922   -0.1370    0.4145 C   0  0  0  0  0  0  0  0  0  0  0  0
    3.2936   -0.3787   -0.7936 C   0  0  0  0  0  0  0  0  0  0  0  0
    2.0626    0.2725   -0.8199 C   0  0  0  0  0  0  0  0  0  0  0  0
    2.5778    2.4931    1.7323 H   0  0  0  0  0  0  0  0  0  0  0  0
    4.7802    1.3157    1.7656 H   0  0  0  0  0  0  0  0  0  0  0  0
   10.7516   -3.3731    7.8543 H   0  0  0  0  0  0  0  0  0  0  0  0
   11.0454   -3.8667   10.2849 H   0  0  0  0  0  0  0  0  0  0  0  0
   15.0672   -2.3071   10.1081 H   0  0  0  0  0  0  0  0  0  0  0  0
   14.7555   -1.8184    7.6656 H   0  0  0  0  0  0  0  0  0  0  0  0
   10.7614   -4.3519    3.9073 H   0  0  0  0  0  0  0  0  0  0  0  0
   12.4398   -3.8051    3.5852 H   0  0  0  0  0  0  0  0  0  0  0  0
   11.1161   -3.3621    2.4620 H   0  0  0  0  0  0  0  0  0  0  0  0
    9.2518   -1.6030    6.2731 H   0  0  0  0  0  0  0  0  0  0  0  0
    6.9212   -0.7530    5.8508 H   0  0  0  0  0  0  0  0  0  0  0  0
    6.1573   -0.4436    3.4731 H   0  0  0  0  0  0  0  0  0  0  0  0
    9.6943   -0.5682    0.5394 H   0  0  0  0  0  0  0  0  0  0  0  0
    8.7042    0.8991    0.7857 H   0  0  0  0  0  0  0  0  0  0  0  0
    8.4278   -0.1375   -0.6526 H   0  0  0  0  0  0  0  0  0  0  0  0
    3.5160   -1.1837   -1.4961 H   0  0  0  0  0  0  0  0  0  0  0  0
    1.2967   -0.0113   -1.5427 H   0  0  0  0  0  0  0  0  0  0  0  0
  1  2  1  0
  2  3  2  0
  2 32  1  0
  3  4  1  0
  3 33  1  0
  4  5  2  0
  4 34  1  0
  5  6  1  0
  5 31  1  0
  6  7  2  0
  6  8  1  0
  8  9  1  0
  9 10  1  6
  9 11  1  0
  9 30  1  0
 11 12  2  0
 11 29  1  0
 12 13  1  0
 13 14  1  0
 13 27  2  0
 14 15  1  6
 14 16  1  0
 14 26  1  0
 16 17  1  0
 17 18  2  0
 17 19  1  0
 19 20  2  0
 19 25  1  0
 20 21  1  0
 20 35  1  0
 21 22  2  0
 21 36  1  0
 22 23  1  0
 22 24  1  0
 24 25  2  0
 24 37  1  0
 25 38  1  0
 26 39  1  0
 26 40  1  0
 26 41  1  0
 27 28  1  0
 27 42  1  0
 28 29  2  0
 28 43  1  0
 29 44  1  0
 30 45  1  0
 30 46  1  0
 30 47  1  0
 31 32  2  0
 31 48  1  0
 32 49  1  0
M  END

