rmsd178.gzmat
 OpenBabel08211713403D

 49 51  0  0  1  0  0  0  0  0999 V2000
    0.0000    0.0000    0.0000 Br  0  0  0  0  0  0  0  0  0  0  0  0
    1.8987    0.0000    0.0000 C   0  0  0  0  0  0  0  0  0  0  0  0
    2.5691    0.0000    1.2180 C   0  0  0  0  0  0  0  0  0  0  0  0
    3.9624    0.0017    1.2136 C   0  0  0  0  0  0  0  0  0  0  0  0
    4.6530    0.0087   -0.0010 C   0  0  0  0  0  0  0  0  0  0  0  0
    6.1283    0.0253    0.0490 C   0  0  0  0  0  0  0  0  0  0  0  0
    6.8184   -0.0818    1.0299 O   0  0  0  0  0  0  0  0  0  0  0  0
    6.6428    0.1837   -1.1974 O   0  0  0  0  0  0  0  0  0  0  0  0
    8.0679    0.2904   -1.3258 C   0  0  2  0  0  0  0  0  0  0  0  0
    8.5701   -0.2596   -0.4917 H   0  0  0  0  0  0  0  0  0  0  0  0
    8.4207    1.7626   -1.3056 C   0  0  0  0  0  0  0  0  0  0  0  0
    9.7078    2.0371   -1.0179 N   0  0  0  0  0  0  0  0  0  0  0  0
   10.0990    3.3261   -0.9974 C   0  0  0  0  0  0  0  0  0  0  0  0
   11.5562    3.5485   -0.6554 C   0  0  1  0  0  0  0  0  0  0  0  0
   12.2038    2.7508   -1.0959 H   0  0  0  0  0  0  0  0  0  0  0  0
   11.9432    4.8297   -1.1721 O   0  0  0  0  0  0  0  0  0  0  0  0
   12.4386    4.8807   -2.4352 C   0  0  0  0  0  0  0  0  0  0  0  0
   12.5654    3.9026   -3.1254 O   0  0  0  0  0  0  0  0  0  0  0  0
   12.7843    6.2700   -2.7957 C   0  0  0  0  0  0  0  0  0  0  0  0
   13.1583    6.5251   -4.1176 C   0  0  0  0  0  0  0  0  0  0  0  0
   13.5043    7.8189   -4.5017 C   0  0  0  0  0  0  0  0  0  0  0  0
   13.4649    8.8301   -3.5483 C   0  0  0  0  0  0  0  0  0  0  0  0
   13.9373   10.5954   -4.0641 Br  0  0  0  0  0  0  0  0  0  0  0  0
   13.0924    8.5947   -2.2297 C   0  0  0  0  0  0  0  0  0  0  0  0
   12.7493    7.2975   -1.8519 C   0  0  0  0  0  0  0  0  0  0  0  0
   11.7467    3.6875    0.8497 C   0  0  0  0  0  0  0  0  0  0  0  0
    9.2218    4.3875   -1.2540 C   0  0  0  0  0  0  0  0  0  0  0  0
    7.8944    4.0903   -1.5535 C   0  0  0  0  0  0  0  0  0  0  0  0
    7.4790    2.7613   -1.5850 C   0  0  0  0  0  0  0  0  0  0  0  0
    8.3684   -0.3227   -2.6871 C   0  0  0  0  0  0  0  0  0  0  0  0
    3.9635    0.0052   -1.2147 C   0  0  0  0  0  0  0  0  0  0  0  0
    2.5693   -0.0008   -1.2178 C   0  0  0  0  0  0  0  0  0  0  0  0
    2.0298   -0.0010    2.1654 H   0  0  0  0  0  0  0  0  0  0  0  0
    4.5195   -0.0030    2.1563 H   0  0  0  0  0  0  0  0  0  0  0  0
   13.1795    5.7066   -4.8448 H   0  0  0  0  0  0  0  0  0  0  0  0
   13.7990    8.0176   -5.5325 H   0  0  0  0  0  0  0  0  0  0  0  0
   13.0648    9.3982   -1.4938 H   0  0  0  0  0  0  0  0  0  0  0  0
   12.4557    7.0883   -0.8195 H   0  0  0  0  0  0  0  0  0  0  0  0
   11.1725    4.5318    1.2535 H   0  0  0  0  0  0  0  0  0  0  0  0
   12.8009    3.8562    1.1025 H   0  0  0  0  0  0  0  0  0  0  0  0
   11.4133    2.7760    1.3668 H   0  0  0  0  0  0  0  0  0  0  0  0
    9.5764    5.4149   -1.2192 H   0  0  0  0  0  0  0  0  0  0  0  0
    7.1857    4.8919   -1.7613 H   0  0  0  0  0  0  0  0  0  0  0  0
    6.4507    2.4980   -1.8212 H   0  0  0  0  0  0  0  0  0  0  0  0
    9.4414   -0.2432   -2.9162 H   0  0  0  0  0  0  0  0  0  0  0  0
    7.8167    0.1822   -3.4903 H   0  0  0  0  0  0  0  0  0  0  0  0
    8.0925   -1.3839   -2.7146 H   0  0  0  0  0  0  0  0  0  0  0  0
    4.5117    0.0059   -2.1607 H   0  0  0  0  0  0  0  0  0  0  0  0
    2.0294   -0.0060   -2.1647 H   0  0  0  0  0  0  0  0  0  0  0  0
  2  1  1  0  0  0  0
  2  3  2  0  0  0  0
  3 33  1  0  0  0  0
  4  3  1  0  0  0  0
  4 34  1  0  0  0  0
  5  6  1  0  0  0  0
  5  4  2  0  0  0  0
  6  7  2  0  0  0  0
  8  6  1  0  0  0  0
  9 11  1  0  0  0  0
  9  8  1  0  0  0  0
  9 10  1  1  0  0  0
 11 12  2  0  0  0  0
 12 13  2  0  0  0  0
 13 14  1  0  0  0  0
 14 15  1  6  0  0  0
 14 26  1  0  0  0  0
 16 14  1  0  0  0  0
 17 16  1  0  0  0  0
 18 17  2  0  0  0  0
 19 17  1  0  0  0  0
 19 25  2  0  0  0  0
 20 19  1  0  0  0  0
 21 20  2  0  0  0  0
 21 22  1  0  0  0  0
 22 24  2  0  0  0  0
 23 22  1  0  0  0  0
 24 25  1  0  0  0  0
 24 37  1  0  0  0  0
 25 38  1  0  0  0  0
 26 40  1  0  0  0  0
 26 39  1  0  0  0  0
 26 41  1  0  0  0  0
 27 42  1  0  0  0  0
 27 13  1  0  0  0  0
 28 27  2  0  0  0  0
 29 28  1  0  0  0  0
 29 11  1  0  0  0  0
 30  9  1  0  0  0  0
 31  5  1  0  0  0  0
 32 31  2  0  0  0  0
 32  2  1  0  0  0  0
 35 20  1  0  0  0  0
 36 21  1  0  0  0  0
 43 28  1  0  0  0  0
 44 29  1  0  0  0  0
 45 30  1  0  0  0  0
 46 30  1  0  0  0  0
 47 30  1  0  0  0  0
 48 31  1  0  0  0  0
 49 32  1  0  0  0  0
M  RAD  1  29   2
M  END
$$$$
