rmsd131.gzmat
 OpenBabel08211713403D

 49 51  0  0  1  0  0  0  0  0999 V2000
    0.0000    0.0000    0.0000 Br  0  0  0  0  0  0  0  0  0  0  0  0
    1.8984    0.0000    0.0000 C   0  0  0  0  0  0  0  0  0  0  0  0
    2.5686    0.0000    1.2181 C   0  0  0  0  0  0  0  0  0  0  0  0
    3.9625   -0.0034    1.2157 C   0  0  0  0  0  0  0  0  0  0  0  0
    4.6526   -0.0065    0.0024 C   0  0  0  0  0  0  0  0  0  0  0  0
    6.1279   -0.0168   -0.0466 C   0  0  0  0  0  0  0  0  0  0  0  0
    6.8171   -0.0567   -1.0337 O   0  0  0  0  0  0  0  0  0  0  0  0
    6.6451    0.0257    1.2067 O   0  0  0  0  0  0  0  0  0  0  0  0
    8.0772   -0.0221    1.3323 C   0  0  2  0  0  0  0  0  0  0  0  0
    8.4864   -0.7465    0.5851 H   0  0  0  0  0  0  0  0  0  0  0  0
    8.2730   -0.5064    2.7533 C   0  0  0  0  0  0  0  0  0  0  0  0
    9.2758   -1.3870    2.9306 N   0  0  0  0  0  0  0  0  0  0  0  0
    9.4972   -1.8635    4.1715 C   0  0  0  0  0  0  0  0  0  0  0  0
   10.6264   -2.8651    4.2800 C   0  0  1  0  0  0  0  0  0  0  0  0
   11.4507   -2.6384    3.5593 H   0  0  0  0  0  0  0  0  0  0  0  0
   11.1136   -2.6823    5.6209 O   0  0  0  0  0  0  0  0  0  0  0  0
   12.3616   -3.1410    5.8917 C   0  0  0  0  0  0  0  0  0  0  0  0
   13.0587   -3.6578    5.0559 O   0  0  0  0  0  0  0  0  0  0  0  0
   12.7020   -2.9171    7.3102 C   0  0  0  0  0  0  0  0  0  0  0  0
   11.7901   -2.3488    8.2009 C   0  0  0  0  0  0  0  0  0  0  0  0
   12.1484   -2.1671    9.5358 C   0  0  0  0  0  0  0  0  0  0  0  0
   13.4169   -2.5610    9.9468 C   0  0  0  0  0  0  0  0  0  0  0  0
   13.9057   -2.3216   11.7656 Br  0  0  0  0  0  0  0  0  0  0  0  0
   14.3398   -3.1247    9.0727 C   0  0  0  0  0  0  0  0  0  0  0  0
   13.9749   -3.3020    7.7400 C   0  0  0  0  0  0  0  0  0  0  0  0
   10.1102   -4.2880    4.1347 C   0  0  0  0  0  0  0  0  0  0  0  0
    8.7267   -1.4807    5.2772 C   0  0  0  0  0  0  0  0  0  0  0  0
    7.6978   -0.5619    5.0812 C   0  0  0  0  0  0  0  0  0  0  0  0
    7.4601   -0.0607    3.8040 C   0  0  0  0  0  0  0  0  0  0  0  0
    8.6377    1.3778    1.1399 C   0  0  0  0  0  0  0  0  0  0  0  0
    3.9621   -0.0060   -1.2125 C   0  0  0  0  0  0  0  0  0  0  0  0
    2.5691   -0.0023   -1.2180 C   0  0  0  0  0  0  0  0  0  0  0  0
    2.0292    0.0011    2.1653 H   0  0  0  0  0  0  0  0  0  0  0  0
    4.5102   -0.0065    2.1620 H   0  0  0  0  0  0  0  0  0  0  0  0
   10.7984   -2.0457    7.8565 H   0  0  0  0  0  0  0  0  0  0  0  0
   11.4360   -1.7236   10.2313 H   0  0  0  0  0  0  0  0  0  0  0  0
   15.3323   -3.4273    9.4080 H   0  0  0  0  0  0  0  0  0  0  0  0
   14.6802   -3.7418    7.0273 H   0  0  0  0  0  0  0  0  0  0  0  0
    9.3905   -4.5430    4.9209 H   0  0  0  0  0  0  0  0  0  0  0  0
   10.9356   -5.0122    4.1901 H   0  0  0  0  0  0  0  0  0  0  0  0
    9.6134   -4.4276    3.1646 H   0  0  0  0  0  0  0  0  0  0  0  0
    8.9333   -1.8945    6.2612 H   0  0  0  0  0  0  0  0  0  0  0  0
    7.0830   -0.2399    5.9211 H   0  0  0  0  0  0  0  0  0  0  0  0
    6.6635    0.6546    3.6150 H   0  0  0  0  0  0  0  0  0  0  0  0
    9.7179    1.4003    1.3377 H   0  0  0  0  0  0  0  0  0  0  0  0
    8.1579    2.1059    1.8049 H   0  0  0  0  0  0  0  0  0  0  0  0
    8.4848    1.7213    0.1061 H   0  0  0  0  0  0  0  0  0  0  0  0
    4.5194   -0.0107   -2.1549 H   0  0  0  0  0  0  0  0  0  0  0  0
    2.0303   -0.0022   -2.1657 H   0  0  0  0  0  0  0  0  0  0  0  0
  1  2  1  0  0  0  0
  2  3  2  0  0  0  0
  3 33  1  0  0  0  0
  4  3  1  0  0  0  0
  4 34  1  0  0  0  0
  5  4  2  0  0  0  0
  6  5  1  0  0  0  0
  6  8  1  0  0  0  0
  7  6  2  0  0  0  0
  8  9  1  0  0  0  0
  9 10  1  6  0  0  0
  9 11  1  0  0  0  0
 11 12  2  0  0  0  0
 11 29  1  0  0  0  0
 12 13  2  0  0  0  0
 13 14  1  0  0  0  0
 13 27  1  0  0  0  0
 14 15  1  6  0  0  0
 14 16  1  0  0  0  0
 16 17  1  0  0  0  0
 17 19  1  0  0  0  0
 18 17  2  0  0  0  0
 19 25  2  0  0  0  0
 19 20  1  0  0  0  0
 20 21  2  0  0  0  0
 21 22  1  0  0  0  0
 21 36  1  0  0  0  0
 22 23  1  0  0  0  0
 24 37  1  0  0  0  0
 24 22  2  0  0  0  0
 25 24  1  0  0  0  0
 26 40  1  0  0  0  0
 26 14  1  0  0  0  0
 26 39  1  0  0  0  0
 27 42  1  0  0  0  0
 28 27  2  0  0  0  0
 28 43  1  0  0  0  0
 29 28  1  0  0  0  0
 30  9  1  0  0  0  0
 30 45  1  0  0  0  0
 30 46  1  0  0  0  0
 31  5  1  0  0  0  0
 32 31  2  0  0  0  0
 32  2  1  0  0  0  0
 35 20  1  0  0  0  0
 38 25  1  0  0  0  0
 41 26  1  0  0  0  0
 44 29  1  0  0  0  0
 47 30  1  0  0  0  0
 48 31  1  0  0  0  0
 49 32  1  0  0  0  0
M  RAD  1  29   2
M  END
$$$$
