
     RDKit          3D

 49 51  0  0  0  0  0  0  0  0999 V2000
    1.2203    2.4998    2.7461 Br  0  0  0  0  0  0  0  0  0  0  0  0
    2.8169    1.7698    2.0112 C   0  0  0  0  0  0  0  0  0  0  0  0
    3.6136    0.9316    2.7972 C   0  0  0  0  0  0  0  0  0  0  0  0
    4.7839    0.4011    2.2555 C   0  0  0  0  0  0  0  0  0  0  0  0
    5.1560    0.7059    0.9387 C   0  0  0  0  0  0  0  0  0  0  0  0
    6.4250    0.2068    0.3386 C   0  0  0  0  0  0  0  0  0  0  0  0
    6.8601    0.5847   -0.7253 O   0  0  0  0  0  0  0  0  0  0  0  0
    7.0320   -0.7057    1.1206 O   0  0  0  0  0  0  0  0  0  0  0  0
    8.4212   -0.9862    0.8879 C   0  0  2  0  0  0  0  0  0  0  0  0
    8.6939   -1.5760    1.7787 H   0  0  0  0  0  0  0  0  0  0  0  0
    9.2316    0.3074    0.9399 C   0  0  0  0  0  0  0  0  0  0  0  0
    8.6754    1.3136    1.6138 N   0  0  0  0  0  0  0  0  0  0  0  0
    9.3091    2.4816    1.7098 C   0  0  0  0  0  0  0  0  0  0  0  0
    8.5238    3.5622    2.4296 C   0  0  1  0  0  0  0  0  0  0  0  0
    8.1612    3.1276    3.3722 H   0  0  0  0  0  0  0  0  0  0  0  0
    9.3609    4.6905    2.7337 O   0  0  0  0  0  0  0  0  0  0  0  0
   10.1470    4.6007    3.8266 C   0  0  0  0  0  0  0  0  0  0  0  0
   10.1627    3.6421    4.5622 O   0  0  0  0  0  0  0  0  0  0  0  0
   10.9939    5.8137    4.0089 C   0  0  0  0  0  0  0  0  0  0  0  0
   10.9358    6.9085    3.1337 C   0  0  0  0  0  0  0  0  0  0  0  0
   11.7503    8.0209    3.3419 C   0  0  0  0  0  0  0  0  0  0  0  0
   12.6247    8.0319    4.4331 C   0  0  0  0  0  0  0  0  0  0  0  0
   13.7390    9.5464    4.7213 Br  0  0  0  0  0  0  0  0  0  0  0  0
   12.6948    6.9494    5.3166 C   0  0  0  0  0  0  0  0  0  0  0  0
   11.8764    5.8436    5.0985 C   0  0  0  0  0  0  0  0  0  0  0  0
    7.3600    4.0699    1.5907 C   0  0  0  0  0  0  0  0  0  0  0  0
   10.5695    2.6985    1.1432 C   0  0  0  0  0  0  0  0  0  0  0  0
   11.1689    1.6406    0.4595 C   0  0  0  0  0  0  0  0  0  0  0  0
   10.4945    0.4245    0.3456 C   0  0  0  0  0  0  0  0  0  0  0  0
    8.6393   -1.8437   -0.3540 C   0  0  0  0  0  0  0  0  0  0  0  0
    4.3469    1.5523    0.1672 C   0  0  0  0  0  0  0  0  0  0  0  0
    3.1737    2.0859    0.6959 C   0  0  0  0  0  0  0  0  0  0  0  0
    3.3213    0.7025    3.8227 H   0  0  0  0  0  0  0  0  0  0  0  0
    5.4262   -0.2440    2.8547 H   0  0  0  0  0  0  0  0  0  0  0  0
   10.2470    6.8837    2.2891 H   0  0  0  0  0  0  0  0  0  0  0  0
   11.7090    8.8752    2.6651 H   0  0  0  0  0  0  0  0  0  0  0  0
   13.3827    6.9763    6.1626 H   0  0  0  0  0  0  0  0  0  0  0  0
   11.9069    4.9832    5.7692 H   0  0  0  0  0  0  0  0  0  0  0  0
    7.7267    4.5290    0.6601 H   0  0  0  0  0  0  0  0  0  0  0  0
    6.7793    4.8157    2.1532 H   0  0  0  0  0  0  0  0  0  0  0  0
    6.7058    3.2271    1.3302 H   0  0  0  0  0  0  0  0  0  0  0  0
   11.0595    3.6679    1.2339 H   0  0  0  0  0  0  0  0  0  0  0  0
   12.1538    1.7668    0.0034 H   0  0  0  0  0  0  0  0  0  0  0  0
   10.9396   -0.4061   -0.2018 H   0  0  0  0  0  0  0  0  0  0  0  0
    9.6568   -2.2619   -0.3584 H   0  0  0  0  0  0  0  0  0  0  0  0
    8.4804   -1.2591   -1.2687 H   0  0  0  0  0  0  0  0  0  0  0  0
    7.9335   -2.6871   -0.3405 H   0  0  0  0  0  0  0  0  0  0  0  0
    4.6598    1.7876   -0.8515 H   0  0  0  0  0  0  0  0  0  0  0  0
    2.5404    2.7436    0.0993 H   0  0  0  0  0  0  0  0  0  0  0  0
  1  2  1  0
  2  3  2  0
  2 32  1  0
  3  4  1  0
  3 33  1  0
  4  5  2  0
  4 34  1  0
  5  6  1  0
  5 31  1  0
  6  7  2  0
  6  8  1  0
  8  9  1  0
  9 10  1  1
  9 11  1  0
  9 30  1  0
 11 12  2  0
 11 29  1  0
 12 13  1  0
 13 14  1  0
 13 27  2  0
 14 15  1  1
 14 16  1  0
 14 26  1  0
 16 17  1  0
 17 18  2  0
 17 19  1  0
 19 20  2  0
 19 25  1  0
 20 21  1  0
 20 35  1  0
 21 22  2  0
 21 36  1  0
 22 23  1  0
 22 24  1  0
 24 25  2  0
 24 37  1  0
 25 38  1  0
 26 39  1  0
 26 40  1  0
 26 41  1  0
 27 28  1  0
 27 42  1  0
 28 29  2  0
 28 43  1  0
 29 44  1  0
 30 45  1  0
 30 46  1  0
 30 47  1  0
 31 32  2  0
 31 48  1  0
 32 49  1  0
M  END

