49
rmsd145.gzmat
Br         0.00000        0.00000        0.00000
C          1.89870        0.00000        0.00000
C          2.57000        0.00000        1.21760
C          3.96320       -0.00080        1.21100
C          4.65270       -0.00660       -0.00460
C          6.12800       -0.02020        0.04640
O          6.81390        0.01740        1.03570
O          6.64870       -0.10040       -1.20520
C          8.07830       -0.13070       -1.33130
H          8.53400       -0.57200       -0.41010
C          8.54790        1.29070       -1.55140
N          9.80510        1.54740       -1.14260
C         10.29220        2.79240       -1.31000
C         11.70410        2.99790       -0.80620
H         12.35030        2.11660       -1.04120
O         12.24930        4.16780       -1.43330
C         12.79140        4.01880       -2.66980
O         12.82740        2.95800       -3.23870
C         13.30360        5.30880       -3.17150
C         13.28540        6.45960       -2.38180
C         13.78220        7.65670       -2.89480
C         14.28580        7.67040       -4.19060
Br        14.95590        9.30200       -4.89230
C         14.31330        6.53370       -4.99080
C         13.81470        5.34090       -4.47200
C         11.70730        3.34400        0.67720
C          9.54320        3.82600       -1.88700
C          8.24740        3.54520       -2.31420
C          7.73350        2.26100       -2.14940
C          8.32660       -0.98820       -2.56500
C          3.96200       -0.00600       -1.21760
C          2.56810       -0.00110       -1.21860
H          2.03180        0.00000        2.16590
H          4.52190        0.00210        2.15280
H         12.88480        6.42530       -1.36500
H         13.76970        8.55670       -2.27980
H         14.71330        6.55900       -6.00470
H         13.82030        4.42780       -5.07670
H         11.14590        4.26500        0.88000
H         12.72850        3.49250        1.04850
H         11.24540        2.53450        1.26160
H          9.96870        4.82070       -1.99500
H          7.64080        4.32540       -2.77390
H          6.72610        2.00970       -2.47160
H          9.40090       -1.03490       -2.79310
H          7.81340       -0.58780       -3.44820
H          7.96600       -2.01310       -2.41270
H          4.50870       -0.01230       -2.16420
H          2.02740        0.00070       -2.16500
