49
rmsd128.gzmat
Br         0.00000        0.00000        0.00000
C          1.89870        0.00000        0.00000
C          2.56850        0.00000        1.21830
C          3.96250        0.00040        1.21660
C          4.65310       -0.00510        0.00330
C          6.12870       -0.01760       -0.04350
O          6.82050       -0.06150       -1.02820
O          6.64000        0.03370        1.21270
C          8.06430       -0.02850        1.36820
H          8.56930        0.33630        0.43980
C          8.43470       -1.46870        1.65540
N          9.75950       -1.71780        1.67760
C         10.17150       -2.97360        1.93630
C         11.67310       -3.16410        1.96410
H         12.18380       -2.29210        2.44210
O         11.95550       -4.35590        2.71170
C         12.03970       -4.24480        4.06310
O         11.94570       -3.19020        4.63640
C         12.24740       -5.57210        4.67490
C         12.07710       -5.68550        6.05710
C         12.25580       -6.92060        6.67700
C         12.60740       -8.01440        5.89390
Br        12.85530       -9.69980        6.73220
C         12.78470       -7.91820        4.51830
C         12.59950       -6.68090        3.90380
C         12.21510       -3.46490        0.57320
C          9.28090       -4.03220        2.15860
C          7.91490       -3.76220        2.13590
C          7.47620       -2.46290        1.89040
C          8.34760        0.86460        2.56910
C          3.96360       -0.00540       -1.21210
C          2.57010        0.00020       -1.21780
H          2.02800        0.00020        2.16520
H          4.50910        0.00620        2.16410
H         11.80580       -4.80370        6.64670
H         12.11970       -7.01140        7.75500
H         13.06220       -8.78490        3.91840
H         12.72950       -6.58200        2.82260
H         11.79600       -4.39580        0.16910
H         13.30670       -3.57430        0.58660
H         11.96270       -2.65220       -0.12310
H          9.65420       -5.03640        2.34470
H          7.19330       -4.56110        2.30920
H          6.41580       -2.22270        1.88150
H          9.41870        0.83960        2.82180
H          7.78950        0.53980        3.45670
H          8.06810        1.90540        2.36640
H          4.52140       -0.01120       -2.15430
H          2.03160        0.00330       -2.16580
