
     RDKit          3D

 49 51  0  0  0  0  0  0  0  0999 V2000
   -0.1345    0.4602   -0.1209 Br  0  0  0  0  0  0  0  0  0  0  0  0
    1.7626    0.3941   -0.0008 C   0  0  0  0  0  0  0  0  0  0  0  0
    2.3939    0.8540    1.1599 C   0  0  0  0  0  0  0  0  0  0  0  0
    3.7835    0.8031    1.2401 C   0  0  0  0  0  0  0  0  0  0  0  0
    4.5411    0.2985    0.1731 C   0  0  0  0  0  0  0  0  0  0  0  0
    6.0241    0.2740    0.3181 C   0  0  0  0  0  0  0  0  0  0  0  0
    6.6198    0.6516    1.2990 O   0  0  0  0  0  0  0  0  0  0  0  0
    6.6343   -0.2136   -0.7832 O   0  0  0  0  0  0  0  0  0  0  0  0
    8.0710   -0.2480   -0.7772 C   0  0  2  0  0  0  0  0  0  0  0  0
    8.4134   -0.5093    0.2343 H   0  0  0  0  0  0  0  0  0  0  0  0
    8.6490    1.1164   -1.1072 C   0  0  0  0  0  0  0  0  0  0  0  0
    9.9504    1.2500   -0.8469 N   0  0  0  0  0  0  0  0  0  0  0  0
   10.5626    2.4032   -1.1291 C   0  0  0  0  0  0  0  0  0  0  0  0
   12.0441    2.4391   -0.8071 C   0  0  1  0  0  0  0  0  0  0  0  0
   12.5715    1.7703   -1.5053 H   0  0  0  0  0  0  0  0  0  0  0  0
   12.5191    3.7777   -1.0352 O   0  0  0  0  0  0  0  0  0  0  0  0
   13.7666    3.9329   -1.5200 C   0  0  0  0  0  0  0  0  0  0  0  0
   14.4970    3.0124   -1.8044 O   0  0  0  0  0  0  0  0  0  0  0  0
   14.1328    5.3704   -1.6690 C   0  0  0  0  0  0  0  0  0  0  0  0
   15.3714    5.6783   -2.2502 C   0  0  0  0  0  0  0  0  0  0  0  0
   15.7657    7.0039   -2.4162 C   0  0  0  0  0  0  0  0  0  0  0  0
   14.9106    8.0261   -1.9907 C   0  0  0  0  0  0  0  0  0  0  0  0
   15.4399    9.8396   -2.2122 Br  0  0  0  0  0  0  0  0  0  0  0  0
   13.6744    7.7388   -1.4036 C   0  0  0  0  0  0  0  0  0  0  0  0
   13.2893    6.4081   -1.2452 C   0  0  0  0  0  0  0  0  0  0  0  0
   12.3568    2.0178    0.6228 C   0  0  0  0  0  0  0  0  0  0  0  0
    9.8846    3.4896   -1.6962 C   0  0  0  0  0  0  0  0  0  0  0  0
    8.5248    3.3465   -1.9736 C   0  0  0  0  0  0  0  0  0  0  0  0
    7.8874    2.1415   -1.6796 C   0  0  0  0  0  0  0  0  0  0  0  0
    8.5019   -1.3069   -1.7808 C   0  0  0  0  0  0  0  0  0  0  0  0
    3.8915   -0.1595   -0.9828 C   0  0  0  0  0  0  0  0  0  0  0  0
    2.5009   -0.1133   -1.0745 C   0  0  0  0  0  0  0  0  0  0  0  0
    1.8012    1.2460    1.9873 H   0  0  0  0  0  0  0  0  0  0  0  0
    4.3062    1.1539    2.1316 H   0  0  0  0  0  0  0  0  0  0  0  0
   16.0169    4.8582   -2.5693 H   0  0  0  0  0  0  0  0  0  0  0  0
   16.7270    7.2473   -2.8703 H   0  0  0  0  0  0  0  0  0  0  0  0
   13.0236    8.5494   -1.0735 H   0  0  0  0  0  0  0  0  0  0  0  0
   12.3320    6.1670   -0.7827 H   0  0  0  0  0  0  0  0  0  0  0  0
   11.9134    2.7292    1.3359 H   0  0  0  0  0  0  0  0  0  0  0  0
   13.4449    1.9797    0.7755 H   0  0  0  0  0  0  0  0  0  0  0  0
   11.9291    1.0233    0.8064 H   0  0  0  0  0  0  0  0  0  0  0  0
   10.4172    4.4138   -1.9143 H   0  0  0  0  0  0  0  0  0  0  0  0
    7.9640    4.1726   -2.4178 H   0  0  0  0  0  0  0  0  0  0  0  0
    6.8270    1.9941   -1.8839 H   0  0  0  0  0  0  0  0  0  0  0  0
    9.5996   -1.3478   -1.8091 H   0  0  0  0  0  0  0  0  0  0  0  0
    8.1322   -1.0582   -2.7872 H   0  0  0  0  0  0  0  0  0  0  0  0
    8.1109   -2.2934   -1.4912 H   0  0  0  0  0  0  0  0  0  0  0  0
    4.4824   -0.5537   -1.8097 H   0  0  0  0  0  0  0  0  0  0  0  0
    1.9904   -0.4685   -1.9705 H   0  0  0  0  0  0  0  0  0  0  0  0
  1  2  1  0
  2  3  2  0
  2 32  1  0
  3  4  1  0
  3 33  1  0
  4  5  2  0
  4 34  1  0
  5  6  1  0
  5 31  1  0
  6  7  2  0
  6  8  1  0
  8  9  1  0
  9 10  1  1
  9 11  1  0
  9 30  1  0
 11 12  2  0
 11 29  1  0
 12 13  1  0
 13 14  1  0
 13 27  2  0
 14 15  1  6
 14 16  1  0
 14 26  1  0
 16 17  1  0
 17 18  2  0
 17 19  1  0
 19 20  2  0
 19 25  1  0
 20 21  1  0
 20 35  1  0
 21 22  2  0
 21 36  1  0
 22 23  1  0
 22 24  1  0
 24 25  2  0
 24 37  1  0
 25 38  1  0
 26 39  1  0
 26 40  1  0
 26 41  1  0
 27 28  1  0
 27 42  1  0
 28 29  2  0
 28 43  1  0
 29 44  1  0
 30 45  1  0
 30 46  1  0
 30 47  1  0
 31 32  2  0
 31 48  1  0
 32 49  1  0
M  END

