
     RDKit          3D

 49 51  0  0  0  0  0  0  0  0999 V2000
   -0.1503   -0.3890   -0.2753 Br  0  0  0  0  0  0  0  0  0  0  0  0
    1.7415   -0.2119   -0.1863 C   0  0  0  0  0  0  0  0  0  0  0  0
    2.3505    0.0395    1.0479 C   0  0  0  0  0  0  0  0  0  0  0  0
    3.7362    0.1686    1.1050 C   0  0  0  0  0  0  0  0  0  0  0  0
    4.5118    0.0490   -0.0574 C   0  0  0  0  0  0  0  0  0  0  0  0
    5.9891    0.2010    0.0682 C   0  0  0  0  0  0  0  0  0  0  0  0
    6.5668    0.4109    1.1086 O   0  0  0  0  0  0  0  0  0  0  0  0
    6.6146    0.0855   -1.1221 O   0  0  0  0  0  0  0  0  0  0  0  0
    8.0421    0.2551   -1.1332 C   0  0  2  0  0  0  0  0  0  0  0  0
    8.4590   -0.2004   -0.2236 H   0  0  0  0  0  0  0  0  0  0  0  0
    8.4155    1.7259   -1.1087 C   0  0  0  0  0  0  0  0  0  0  0  0
    9.6929    1.9737   -0.8132 N   0  0  0  0  0  0  0  0  0  0  0  0
   10.1275    3.2352   -0.8020 C   0  0  0  0  0  0  0  0  0  0  0  0
   11.5845    3.4026   -0.4116 C   0  0  1  0  0  0  0  0  0  0  0  0
   12.1612    2.6639   -0.9864 H   0  0  0  0  0  0  0  0  0  0  0  0
   12.0588    4.7185   -0.7435 O   0  0  0  0  0  0  0  0  0  0  0  0
   12.4016    4.9444   -2.0291 C   0  0  0  0  0  0  0  0  0  0  0  0
   12.3538    4.0994   -2.8915 O   0  0  0  0  0  0  0  0  0  0  0  0
   12.8331    6.3530   -2.2553 C   0  0  0  0  0  0  0  0  0  0  0  0
   13.1974    6.7294   -3.5563 C   0  0  0  0  0  0  0  0  0  0  0  0
   13.6054    8.0332   -3.8280 C   0  0  0  0  0  0  0  0  0  0  0  0
   13.6474    8.9639   -2.7843 C   0  0  0  0  0  0  0  0  0  0  0  0
   14.2021   10.7472   -3.1449 Br  0  0  0  0  0  0  0  0  0  0  0  0
   13.2891    8.6070   -1.4806 C   0  0  0  0  0  0  0  0  0  0  0  0
   12.8823    7.2989   -1.2206 C   0  0  0  0  0  0  0  0  0  0  0  0
   11.7984    3.2081    1.0818 C   0  0  0  0  0  0  0  0  0  0  0  0
    9.2903    4.3217   -1.0802 C   0  0  0  0  0  0  0  0  0  0  0  0
    7.9576    4.0611   -1.3989 C   0  0  0  0  0  0  0  0  0  0  0  0
    7.5049    2.7419   -1.4205 C   0  0  0  0  0  0  0  0  0  0  0  0
    8.5709   -0.4446   -2.3760 C   0  0  0  0  0  0  0  0  0  0  0  0
    3.8845   -0.2042   -1.2863 C   0  0  0  0  0  0  0  0  0  0  0  0
    2.4981   -0.3354   -1.3558 C   0  0  0  0  0  0  0  0  0  0  0  0
    1.7438    0.1323    1.9494 H   0  0  0  0  0  0  0  0  0  0  0  0
    4.2418    0.3647    2.0520 H   0  0  0  0  0  0  0  0  0  0  0  0
   13.1538    5.9797   -4.3482 H   0  0  0  0  0  0  0  0  0  0  0  0
   13.8890    8.3300   -4.8385 H   0  0  0  0  0  0  0  0  0  0  0  0
   13.3297    9.3466   -0.6800 H   0  0  0  0  0  0  0  0  0  0  0  0
   12.6009    7.0031   -0.2097 H   0  0  0  0  0  0  0  0  0  0  0  0
   11.2426    3.9669    1.6534 H   0  0  0  0  0  0  0  0  0  0  0  0
   12.8671    3.2854    1.3309 H   0  0  0  0  0  0  0  0  0  0  0  0
   11.4309    2.2133    1.3694 H   0  0  0  0  0  0  0  0  0  0  0  0
    9.6785    5.3398   -1.0493 H   0  0  0  0  0  0  0  0  0  0  0  0
    7.2747    4.8825   -1.6294 H   0  0  0  0  0  0  0  0  0  0  0  0
    6.4715    2.4998   -1.6691 H   0  0  0  0  0  0  0  0  0  0  0  0
    9.6617   -0.3198   -2.4202 H   0  0  0  0  0  0  0  0  0  0  0  0
    8.1299   -0.0052   -3.2836 H   0  0  0  0  0  0  0  0  0  0  0  0
    8.3301   -1.5176   -2.3455 H   0  0  0  0  0  0  0  0  0  0  0  0
    4.4899   -0.2993   -2.1880 H   0  0  0  0  0  0  0  0  0  0  0  0
    2.0049   -0.5328   -2.3084 H   0  0  0  0  0  0  0  0  0  0  0  0
  1  2  1  0
  2  3  2  0
  2 32  1  0
  3  4  1  0
  3 33  1  0
  4  5  2  0
  4 34  1  0
  5  6  1  0
  5 31  1  0
  6  7  2  0
  6  8  1  0
  8  9  1  0
  9 10  1  1
  9 11  1  0
  9 30  1  0
 11 12  2  0
 11 29  1  0
 12 13  1  0
 13 14  1  0
 13 27  2  0
 14 15  1  6
 14 16  1  0
 14 26  1  0
 16 17  1  0
 17 18  2  0
 17 19  1  0
 19 20  2  0
 19 25  1  0
 20 21  1  0
 20 35  1  0
 21 22  2  0
 21 36  1  0
 22 23  1  0
 22 24  1  0
 24 25  2  0
 24 37  1  0
 25 38  1  0
 26 39  1  0
 26 40  1  0
 26 41  1  0
 27 28  1  0
 27 42  1  0
 28 29  2  0
 28 43  1  0
 29 44  1  0
 30 45  1  0
 30 46  1  0
 30 47  1  0
 31 32  2  0
 31 48  1  0
 32 49  1  0
M  END

