49
rmsd229.gzmat
Br         0.00000        0.00000        0.00000
C          1.89850        0.00000        0.00000
C          2.56800        0.00000        1.21870
C          3.96110       -0.01110        1.21460
C          4.65250       -0.02110       -0.00000
C          6.12680       -0.05410        0.05380
O          6.81010       -0.14230        1.04150
O          6.65580        0.02360       -1.19550
C          8.08550       -0.01570       -1.30950
H          8.49840       -0.73010       -0.55450
C          8.62470        1.38090       -1.09160
N          9.92480        1.44190       -0.74350
C         10.47270        2.65240       -0.52420
C         11.92900        2.63350       -0.11210
H         12.45530        1.72010       -0.48460
O         12.47250        3.79240       -0.76920
C         13.81440        3.82130       -0.96350
O         14.54320        2.92950       -0.60960
C         14.21300        5.07050       -1.64180
C         15.57980        5.33110       -1.77040
C         16.00650        6.49920       -2.39840
C         15.04840        7.38000       -2.88810
Br        15.62250        8.97690       -3.73940
C         13.68510        7.13340       -2.77570
C         13.26550        5.96380       -2.14370
C         12.07480        2.80830        1.39150
C          9.74970        3.84600       -0.64860
C          8.41050        3.77030       -1.02410
C          7.83160        2.52420       -1.25400
C          8.32660       -0.47970       -2.74010
C          3.96410       -0.01210       -1.21410
C          2.57000       -0.00300       -1.21740
H          2.02800        0.00620        2.16610
H          4.51780       -0.01550        2.15790
H         16.30910        4.61510       -1.37860
H         17.07320        6.70360       -2.49700
H         12.94560        7.83110       -3.16990
H         12.19830        5.74880       -2.04450
H         11.68850        3.77810        1.72840
H         13.13010        2.74620        1.69420
H         11.52830        2.02350        1.93310
H         10.23090        4.80210       -0.45710
H          7.81880        4.67850       -1.13660
H          6.78980        2.43340       -1.55180
H          9.40440       -0.53690       -2.94870
H          7.87870        0.20490       -3.47100
H          7.89360       -1.47290       -2.91340
H          4.51250       -0.01520       -2.16020
H          2.03080       -0.00040       -2.16490
