49
rmsd249.gzmat
Br         0.00000        0.00000        0.00000
C          1.89830        0.00000        0.00000
C          2.56860        0.00000        1.21820
C          3.96230        0.00110        1.21580
C          4.65250        0.00250        0.00230
C          6.12770       -0.00330       -0.04540
O          6.81950       -0.06660       -1.02860
O          6.64100        0.07990        1.20970
C          8.06650        0.02450        1.35540
H          8.55840        0.46570        0.45310
C          8.45830       -1.42590        1.54030
N          9.76620       -1.69270        1.35590
C         10.18660       -2.96330        1.50530
C         11.66580       -3.18790        1.27290
H         12.26130       -2.25800        1.44700
O         12.00530       -4.15920        2.27840
C         13.30690       -4.24420        2.64970
O         14.17360       -3.57770        2.14340
C         13.47170       -5.23600        3.73110
C         14.76020       -5.45050        4.22780
C         14.96220       -6.36460        5.25980
C         13.86290       -7.04560        5.77080
Br        14.12800       -8.28890        7.18100
C         12.57480       -6.84810        5.28610
C         12.38020       -5.93030        4.25520
C         11.92300       -3.78670       -0.10030
C          9.32360       -4.01380        1.84520
C          7.97630       -3.72290        2.04490
C          7.52860       -2.41260        1.89460
C          8.34040        0.83070        2.61870
C          3.96230        0.00290       -1.21270
C          2.56920        0.00130       -1.21780
H          2.02930        0.00080        2.16550
H          4.50970        0.00370        2.16230
H         15.60540       -4.89750        3.80520
H         15.96750       -6.52950        5.64880
H         11.72240       -7.39050        5.69550
H         11.37500       -5.75510        3.86260
H         11.43650       -4.76220       -0.21850
H         12.99990       -3.92920       -0.27020
H         11.54730       -3.12610       -0.89380
H          9.70600       -5.02590        1.95130
H          7.27710       -4.51370        2.31560
H          6.48350       -2.15460        2.04860
H          9.41500        0.82770        2.85180
H          7.80740        0.42080        3.48600
H          8.02030        1.87360        2.50000
H          4.51980        0.00460       -2.15540
H          2.02980        0.00060       -2.16550
