rmsd128.gzmat
 OpenBabel08211713403D

 49 51  0  0  1  0  0  0  0  0999 V2000
    0.0000    0.0000    0.0000 Br  0  0  0  0  0  0  0  0  0  0  0  0
    1.8987    0.0000    0.0000 C   0  0  0  0  0  0  0  0  0  0  0  0
    2.5685    0.0000    1.2183 C   0  0  0  0  0  0  0  0  0  0  0  0
    3.9625    0.0004    1.2166 C   0  0  0  0  0  0  0  0  0  0  0  0
    4.6531   -0.0051    0.0033 C   0  0  0  0  0  0  0  0  0  0  0  0
    6.1287   -0.0176   -0.0435 C   0  0  0  0  0  0  0  0  0  0  0  0
    6.8205   -0.0615   -1.0282 O   0  0  0  0  0  0  0  0  0  0  0  0
    6.6400    0.0337    1.2127 O   0  0  0  0  0  0  0  0  0  0  0  0
    8.0643   -0.0285    1.3682 C   0  0  2  0  0  0  0  0  0  0  0  0
    8.5693    0.3363    0.4398 H   0  0  0  0  0  0  0  0  0  0  0  0
    8.4347   -1.4687    1.6554 C   0  0  0  0  0  0  0  0  0  0  0  0
    9.7595   -1.7178    1.6776 N   0  0  0  0  0  0  0  0  0  0  0  0
   10.1715   -2.9736    1.9363 C   0  0  0  0  0  0  0  0  0  0  0  0
   11.6731   -3.1641    1.9641 C   0  0  1  0  0  0  0  0  0  0  0  0
   12.1838   -2.2921    2.4421 H   0  0  0  0  0  0  0  0  0  0  0  0
   11.9555   -4.3559    2.7117 O   0  0  0  0  0  0  0  0  0  0  0  0
   12.0397   -4.2448    4.0631 C   0  0  0  0  0  0  0  0  0  0  0  0
   11.9457   -3.1902    4.6364 O   0  0  0  0  0  0  0  0  0  0  0  0
   12.2474   -5.5721    4.6749 C   0  0  0  0  0  0  0  0  0  0  0  0
   12.0771   -5.6855    6.0571 C   0  0  0  0  0  0  0  0  0  0  0  0
   12.2558   -6.9206    6.6770 C   0  0  0  0  0  0  0  0  0  0  0  0
   12.6074   -8.0144    5.8939 C   0  0  0  0  0  0  0  0  0  0  0  0
   12.8553   -9.6998    6.7322 Br  0  0  0  0  0  0  0  0  0  0  0  0
   12.7847   -7.9182    4.5183 C   0  0  0  0  0  0  0  0  0  0  0  0
   12.5995   -6.6809    3.9038 C   0  0  0  0  0  0  0  0  0  0  0  0
   12.2151   -3.4649    0.5732 C   0  0  0  0  0  0  0  0  0  0  0  0
    9.2809   -4.0322    2.1586 C   0  0  0  0  0  0  0  0  0  0  0  0
    7.9149   -3.7622    2.1359 C   0  0  0  0  0  0  0  0  0  0  0  0
    7.4762   -2.4629    1.8904 C   0  0  0  0  0  0  0  0  0  0  0  0
    8.3476    0.8646    2.5691 C   0  0  0  0  0  0  0  0  0  0  0  0
    3.9636   -0.0054   -1.2121 C   0  0  0  0  0  0  0  0  0  0  0  0
    2.5701    0.0002   -1.2178 C   0  0  0  0  0  0  0  0  0  0  0  0
    2.0280    0.0002    2.1652 H   0  0  0  0  0  0  0  0  0  0  0  0
    4.5091    0.0062    2.1641 H   0  0  0  0  0  0  0  0  0  0  0  0
   11.8058   -4.8037    6.6467 H   0  0  0  0  0  0  0  0  0  0  0  0
   12.1197   -7.0114    7.7550 H   0  0  0  0  0  0  0  0  0  0  0  0
   13.0622   -8.7849    3.9184 H   0  0  0  0  0  0  0  0  0  0  0  0
   12.7295   -6.5820    2.8226 H   0  0  0  0  0  0  0  0  0  0  0  0
   11.7960   -4.3958    0.1691 H   0  0  0  0  0  0  0  0  0  0  0  0
   13.3067   -3.5743    0.5866 H   0  0  0  0  0  0  0  0  0  0  0  0
   11.9627   -2.6522   -0.1231 H   0  0  0  0  0  0  0  0  0  0  0  0
    9.6542   -5.0364    2.3447 H   0  0  0  0  0  0  0  0  0  0  0  0
    7.1933   -4.5611    2.3092 H   0  0  0  0  0  0  0  0  0  0  0  0
    6.4158   -2.2227    1.8815 H   0  0  0  0  0  0  0  0  0  0  0  0
    9.4187    0.8396    2.8218 H   0  0  0  0  0  0  0  0  0  0  0  0
    7.7895    0.5398    3.4567 H   0  0  0  0  0  0  0  0  0  0  0  0
    8.0681    1.9054    2.3664 H   0  0  0  0  0  0  0  0  0  0  0  0
    4.5214   -0.0112   -2.1543 H   0  0  0  0  0  0  0  0  0  0  0  0
    2.0316    0.0033   -2.1658 H   0  0  0  0  0  0  0  0  0  0  0  0
  1  2  1  0  0  0  0
  2  3  2  0  0  0  0
  3 33  1  0  0  0  0
  4  3  1  0  0  0  0
  4 34  1  0  0  0  0
  5  4  2  0  0  0  0
  6  5  1  0  0  0  0
  6  8  1  0  0  0  0
  7  6  2  0  0  0  0
  8  9  1  0  0  0  0
  9 10  1  6  0  0  0
  9 11  1  0  0  0  0
  9 30  1  0  0  0  0
 11 12  2  0  0  0  0
 11 29  1  0  0  0  0
 12 13  2  0  0  0  0
 13 14  1  0  0  0  0
 13 27  1  0  0  0  0
 14 15  1  1  0  0  0
 14 16  1  0  0  0  0
 16 17  1  0  0  0  0
 17 18  2  0  0  0  0
 17 19  1  0  0  0  0
 19 20  2  0  0  0  0
 20 35  1  0  0  0  0
 20 21  1  0  0  0  0
 21 36  1  0  0  0  0
 22 21  2  0  0  0  0
 22 23  1  0  0  0  0
 24 22  1  0  0  0  0
 25 24  2  0  0  0  0
 25 19  1  0  0  0  0
 26 40  1  0  0  0  0
 26 14  1  0  0  0  0
 27 42  1  0  0  0  0
 28 27  2  0  0  0  0
 28 43  1  0  0  0  0
 29 28  1  0  0  0  0
 30 45  1  0  0  0  0
 30 46  1  0  0  0  0
 31  5  1  0  0  0  0
 32 31  2  0  0  0  0
 32  2  1  0  0  0  0
 37 24  1  0  0  0  0
 38 25  1  0  0  0  0
 39 26  1  0  0  0  0
 41 26  1  0  0  0  0
 44 29  1  0  0  0  0
 47 30  1  0  0  0  0
 48 31  1  0  0  0  0
 49 32  1  0  0  0  0
M  RAD  1  29   2
M  END
$$$$
