31
rmsd191.gzmat
N          0.00000        0.00000        0.00000
H          1.04000        0.00000        0.00000
H         -0.36850        0.00000       -1.00160
C         -0.57690       -1.17980        0.75850
C         -1.95270       -0.72160        1.29040
H         -1.97160       -0.92840        2.39750
C         -2.00910        0.82670        1.09290
H         -2.26480        1.29510        2.08720
C         -0.57180        1.23100        0.68550
H         -0.56420        2.09570       -0.03810
C          0.23990        1.63090        1.90950
O         -0.11730        2.34440        2.79630
O          1.46240        1.05660        1.84770
C         -3.05540        1.32930        0.09980
C         -2.79910        0.99050       -1.33440
O         -1.75640        0.61840       -1.83970
O         -3.88790        1.19440       -2.08020
C         -3.12340       -1.44180        0.67750
C         -3.12730       -1.94340       -0.55850
C         -4.29760       -1.58430        1.58500
H         -0.64510       -2.06810        0.09140
H          0.10570       -1.45770        1.59360
H          2.08280        1.32170        2.58740
H         -4.07090        0.94730        0.39530
H         -3.17250        2.44090        0.18780
H         -3.75890        1.00710       -3.05820
H         -3.97310       -2.47960       -0.97490
H         -2.31600       -1.88230       -1.26420
H         -5.23730       -1.75700        1.03440
H         -4.46370       -0.70930        2.22680
H         -4.17610       -2.45540        2.25360
