rmsd97.gzmat
 OpenBabel08211713363D

 31 31  0  0  1  0  0  0  0  0999 V2000
    0.0000    0.0000    0.0000 N   0  0  0  0  0  0  0  0  0  0  0  0
    1.0394    0.0000    0.0000 H   0  0  0  0  0  0  0  0  0  0  0  0
   -0.3685    0.0000   -1.0010 H   0  0  0  0  0  0  0  0  0  0  0  0
   -0.5775   -1.1782    0.7608 C   0  0  0  0  0  0  0  0  0  0  0  0
   -1.9647   -0.7249    1.2644 C   0  0  1  0  0  0  0  0  0  0  0  0
   -2.0139   -0.9477    2.3676 H   0  0  0  0  0  0  0  0  0  0  0  0
   -2.0110    0.8270    1.0863 C   0  0  1  0  0  0  0  0  0  0  0  0
   -2.2643    1.2836    2.0859 H   0  0  0  0  0  0  0  0  0  0  0  0
   -0.5720    1.2314    0.6842 C   0  0  1  0  0  0  0  0  0  0  0  0
   -0.5626    2.0964   -0.0395 H   0  0  0  0  0  0  0  0  0  0  0  0
    0.2355    1.6350    1.9097 C   0  0  0  0  0  0  0  0  0  0  0  0
   -0.1071    2.3919    2.7660 O   0  0  0  0  0  0  0  0  0  0  0  0
    1.4340    1.0095    1.8888 O   0  0  0  0  0  0  0  0  0  0  0  0
   -3.0524    1.3474    0.0973 C   0  0  0  0  0  0  0  0  0  0  0  0
   -2.7845    1.0373   -1.3416 C   0  0  0  0  0  0  0  0  0  0  0  0
   -1.7399    0.6682   -1.8444 O   0  0  0  0  0  0  0  0  0  0  0  0
   -3.8671    1.2627   -2.0905 O   0  0  0  0  0  0  0  0  0  0  0  0
   -3.1211   -1.4326    0.6105 C   0  0  0  0  0  0  0  0  0  0  0  0
   -3.0959   -1.9159   -0.6327 C   0  0  0  0  0  0  0  0  0  0  0  0
   -4.3186   -1.5886    1.4851 C   0  0  0  0  0  0  0  0  0  0  0  0
   -0.6273   -2.0740    0.1021 H   0  0  0  0  0  0  0  0  0  0  0  0
    0.0951   -1.4406    1.6092 H   0  0  0  0  0  0  0  0  0  0  0  0
    2.0504    1.2698    2.6336 H   0  0  0  0  0  0  0  0  0  0  0  0
   -4.0683    0.9558    0.3766 H   0  0  0  0  0  0  0  0  0  0  0  0
   -3.1736    2.4568    0.2068 H   0  0  0  0  0  0  0  0  0  0  0  0
   -3.7353    1.0897   -3.0708 H   0  0  0  0  0  0  0  0  0  0  0  0
   -3.9356   -2.4397   -1.0771 H   0  0  0  0  0  0  0  0  0  0  0  0
   -2.2667   -1.8492   -1.3171 H   0  0  0  0  0  0  0  0  0  0  0  0
   -5.2568   -1.6525    0.9100 H   0  0  0  0  0  0  0  0  0  0  0  0
   -4.4470   -0.7724    2.2077 H   0  0  0  0  0  0  0  0  0  0  0  0
   -4.2572   -2.5257    2.0680 H   0  0  0  0  0  0  0  0  0  0  0  0
  1  2  1  0  0  0  0
  1  9  1  0  0  0  0
  1  4  1  0  0  0  0
  3  1  1  0  0  0  0
  4  5  1  0  0  0  0
  4 22  1  0  0  0  0
  5  7  1  0  0  0  0
  5  6  1  1  0  0  0
  7  9  1  0  0  0  0
  7  8  1  1  0  0  0
  9 10  1  6  0  0  0
  9 11  1  0  0  0  0
 11 12  2  0  0  0  0
 13 11  1  0  0  0  0
 13 23  1  0  0  0  0
 14 25  1  0  0  0  0
 14 24  1  0  0  0  0
 14  7  1  0  0  0  0
 15 14  1  0  0  0  0
 16 15  2  0  0  0  0
 17 15  1  0  0  0  0
 18  5  1  0  0  0  0
 18 20  1  0  0  0  0
 19 18  2  0  0  0  0
 20 31  1  0  0  0  0
 20 30  1  0  0  0  0
 21  4  1  0  0  0  0
 26 17  1  0  0  0  0
 27 19  1  0  0  0  0
 28 19  1  0  0  0  0
 29 20  1  0  0  0  0
M  END
$$$$
