rmsd192.gzmat
 OpenBabel08211713363D

 31 31  0  0  1  0  0  0  0  0999 V2000
    0.0000    0.0000    0.0000 N   0  0  0  0  0  0  0  0  0  0  0  0
    1.0424    0.0000    0.0000 H   0  0  0  0  0  0  0  0  0  0  0  0
   -0.3768    0.0000   -0.9962 H   0  0  0  0  0  0  0  0  0  0  0  0
   -0.5629   -1.1847    0.7635 C   0  0  0  0  0  0  0  0  0  0  0  0
   -1.9110   -0.7243    1.3569 C   0  0  1  0  0  0  0  0  0  0  0  0
   -1.8813   -0.9345    2.4630 H   0  0  0  0  0  0  0  0  0  0  0  0
   -1.9750    0.8245    1.1641 C   0  0  1  0  0  0  0  0  0  0  0  0
   -2.1885    1.2936    2.1658 H   0  0  0  0  0  0  0  0  0  0  0  0
   -0.5627    1.2341    0.6934 C   0  0  1  0  0  0  0  0  0  0  0  0
   -0.5971    2.0956   -0.0318 H   0  0  0  0  0  0  0  0  0  0  0  0
    0.3689    1.5945    1.8430 C   0  0  0  0  0  0  0  0  0  0  0  0
    1.4428    1.0863    2.0204 O   0  0  0  0  0  0  0  0  0  0  0  0
   -0.1688    2.5549    2.6000 O   0  0  0  0  0  0  0  0  0  0  0  0
   -3.0625    1.3211    0.2112 C   0  0  0  0  0  0  0  0  0  0  0  0
   -2.8470    0.9922   -1.2321 C   0  0  0  0  0  0  0  0  0  0  0  0
   -1.8214    0.6150   -1.7670 O   0  0  0  0  0  0  0  0  0  0  0  0
   -3.9536    1.2053   -1.9484 O   0  0  0  0  0  0  0  0  0  0  0  0
   -3.1115   -1.4397    0.7966 C   0  0  0  0  0  0  0  0  0  0  0  0
   -3.1743   -1.9402   -0.4383 C   0  0  0  0  0  0  0  0  0  0  0  0
   -4.2453   -1.5771    1.7548 C   0  0  0  0  0  0  0  0  0  0  0  0
   -0.6673   -2.0617    0.0853 H   0  0  0  0  0  0  0  0  0  0  0  0
    0.1505   -1.4843    1.5661 H   0  0  0  0  0  0  0  0  0  0  0  0
    0.4274    2.8615    3.3513 H   0  0  0  0  0  0  0  0  0  0  0  0
   -4.0621    0.9228    0.5361 H   0  0  0  0  0  0  0  0  0  0  0  0
   -3.1917    2.4298    0.3123 H   0  0  0  0  0  0  0  0  0  0  0  0
   -3.8506    1.0165   -2.9294 H   0  0  0  0  0  0  0  0  0  0  0  0
   -4.0413   -2.4711   -0.8163 H   0  0  0  0  0  0  0  0  0  0  0  0
   -2.3950   -1.8838   -1.1803 H   0  0  0  0  0  0  0  0  0  0  0  0
   -5.2150   -1.7035    1.2454 H   0  0  0  0  0  0  0  0  0  0  0  0
   -4.3533   -0.7202    2.4321 H   0  0  0  0  0  0  0  0  0  0  0  0
   -4.1181   -2.4735    2.3879 H   0  0  0  0  0  0  0  0  0  0  0  0
  1  2  1  0  0  0  0
  1  9  1  0  0  0  0
  1  4  1  0  0  0  0
  3  1  1  0  0  0  0
  4  5  1  0  0  0  0
  4 22  1  0  0  0  0
  5  7  1  0  0  0  0
  5  6  1  1  0  0  0
  7  9  1  0  0  0  0
  7  8  1  1  0  0  0
  9 10  1  6  0  0  0
  9 11  1  0  0  0  0
 11 12  2  0  0  0  0
 11 13  1  0  0  0  0
 13 23  1  0  0  0  0
 14 25  1  0  0  0  0
 14 24  1  0  0  0  0
 14  7  1  0  0  0  0
 15 14  1  0  0  0  0
 16 15  2  0  0  0  0
 17 15  1  0  0  0  0
 18  5  1  0  0  0  0
 18 20  1  0  0  0  0
 19 18  2  0  0  0  0
 20 31  1  0  0  0  0
 20 30  1  0  0  0  0
 21  4  1  0  0  0  0
 26 17  1  0  0  0  0
 27 19  1  0  0  0  0
 28 19  1  0  0  0  0
 29 20  1  0  0  0  0
M  END
$$$$
