rmsd30.gzmat
 OpenBabel08211713393D

 43 45  0  0  0  0  0  0  0  0999 V2000
    0.0000    0.0000    0.0000 S   0  0  0  0  0  0  0  0  0  0  0  0
    1.4428    0.0000    0.0000 O   0  0  0  0  0  0  0  0  0  0  0  0
   -0.7403    0.0000   -1.2335 O   0  0  0  0  0  0  0  0  0  0  0  0
   -0.4973    1.4193    0.8824 N   0  0  0  0  0  0  0  0  0  0  0  0
   -0.1066    2.6105    0.8256 C   0  0  0  0  0  0  0  0  0  0  0  0
   -0.6053    3.6365    1.6245 O   0  0  0  0  0  0  0  0  0  0  0  0
    0.1110    4.7869    1.3043 N   0  0  0  0  0  0  0  0  0  0  0  0
    0.9791    4.5041    0.3638 C   0  0  0  0  0  0  0  0  0  0  0  0
    0.8850    3.1585    0.0116 O   0  0  0  0  0  0  0  0  0  0  0  0
    1.9747    5.2852   -0.3281 C   0  0  0  0  0  0  0  0  0  0  0  0
    3.2054    4.6986   -0.6803 C   0  0  0  0  0  0  0  0  0  0  0  0
    4.1607    5.4635   -1.3492 C   0  0  0  0  0  0  0  0  0  0  0  0
    3.9069    6.7988   -1.6660 C   0  0  0  0  0  0  0  0  0  0  0  0
    2.6864    7.3783   -1.3137 C   0  0  0  0  0  0  0  0  0  0  0  0
    1.7161    6.6317   -0.6482 C   0  0  0  0  0  0  0  0  0  0  0  0
    0.4226    7.2715   -0.2867 C   0  0  0  0  0  0  0  0  0  0  0  0
    4.9448    7.6103   -2.3613 C   0  0  0  0  0  0  0  0  0  0  0  0
    3.5155    3.2810   -0.3566 C   0  0  0  0  0  0  0  0  0  0  0  0
   -0.5840   -1.2571    1.0616 C   0  0  0  0  0  0  0  0  0  0  0  0
   -1.9320   -1.6137    1.0508 C   0  0  0  0  0  0  0  0  0  0  0  0
   -2.3979   -2.6007    1.9164 C   0  0  0  0  0  0  0  0  0  0  0  0
   -1.5163   -3.2384    2.7928 C   0  0  0  0  0  0  0  0  0  0  0  0
   -0.1625   -2.8840    2.7929 C   0  0  0  0  0  0  0  0  0  0  0  0
    0.3014   -1.8949    1.9318 C   0  0  0  0  0  0  0  0  0  0  0  0
   -2.0027   -4.2952    3.7229 C   0  0  0  0  0  0  0  0  0  0  0  0
    5.1122    5.0143   -1.6258 H   0  0  0  0  0  0  0  0  0  0  0  0
    2.4926    8.4194   -1.5595 H   0  0  0  0  0  0  0  0  0  0  0  0
    0.2933    7.3194    0.8104 H   0  0  0  0  0  0  0  0  0  0  0  0
   -0.4399    6.7061   -0.6747 H   0  0  0  0  0  0  0  0  0  0  0  0
    0.3287    8.2980   -0.6636 H   0  0  0  0  0  0  0  0  0  0  0  0
    4.5116    8.4150   -2.9715 H   0  0  0  0  0  0  0  0  0  0  0  0
    5.5735    7.0047   -3.0294 H   0  0  0  0  0  0  0  0  0  0  0  0
    5.6174    8.0861   -1.6295 H   0  0  0  0  0  0  0  0  0  0  0  0
    2.9729    2.5848   -1.0264 H   0  0  0  0  0  0  0  0  0  0  0  0
    3.2240    2.9995    0.6669 H   0  0  0  0  0  0  0  0  0  0  0  0
    4.5821    3.0396   -0.4566 H   0  0  0  0  0  0  0  0  0  0  0  0
   -2.6377   -1.1281    0.3664 H   0  0  0  0  0  0  0  0  0  0  0  0
   -3.4516   -2.8701    1.9110 H   0  0  0  0  0  0  0  0  0  0  0  0
    0.5277   -3.3808    3.4704 H   0  0  0  0  0  0  0  0  0  0  0  0
    1.3662   -1.6304    1.9452 H   0  0  0  0  0  0  0  0  0  0  0  0
   -1.5788   -5.2783    3.4649 H   0  0  0  0  0  0  0  0  0  0  0  0
   -3.0956   -4.4068    3.7136 H   0  0  0  0  0  0  0  0  0  0  0  0
   -1.7130   -4.0845    4.7633 H   0  0  0  0  0  0  0  0  0  0  0  0
  1  2  2  0  0  0  0
  1  4  1  0  0  0  0
  1 19  1  0  0  0  0
  3  1  2  0  0  0  0
  5  4  2  0  0  0  0
  5  6  1  0  0  0  0
  7  6  1  0  0  0  0
  8  7  2  0  0  0  0
  9  8  1  0  0  0  0
  9  5  1  0  0  0  0
 10  8  1  0  0  0  0
 11 18  1  0  0  0  0
 11 10  2  0  0  0  0
 12 11  1  0  0  0  0
 13 12  2  0  0  0  0
 13 14  1  0  0  0  0
 14 15  2  0  0  0  0
 15 10  1  0  0  0  0
 15 16  1  0  0  0  0
 16 28  1  0  0  0  0
 17 13  1  0  0  0  0
 17 33  1  0  0  0  0
 18 35  1  0  0  0  0
 19 24  1  0  0  0  0
 20 19  2  0  0  0  0
 20 21  1  0  0  0  0
 21 22  2  0  0  0  0
 22 23  1  0  0  0  0
 22 25  1  0  0  0  0
 23 39  1  0  0  0  0
 24 40  1  0  0  0  0
 24 23  2  0  0  0  0
 25 43  1  0  0  0  0
 26 12  1  0  0  0  0
 27 14  1  0  0  0  0
 29 16  1  0  0  0  0
 30 16  1  0  0  0  0
 31 17  1  0  0  0  0
 32 17  1  0  0  0  0
 34 18  1  0  0  0  0
 36 18  1  0  0  0  0
 37 20  1  0  0  0  0
 38 21  1  0  0  0  0
 41 25  1  0  0  0  0
 42 25  1  0  0  0  0
M  END
$$$$
