43
rmsd10.gzmat
S          0.00000        0.00000        0.00000
O          1.44300        0.00000        0.00000
O         -0.74170        0.00000       -1.23300
N         -0.48980        1.42540        0.87760
C         -0.10760        2.61790        0.78430
O         -0.59380        3.66070        1.56920
N          0.10210        4.80930        1.19870
C          0.94790        4.50890        0.24380
O          0.85910        3.15240       -0.06740
C          1.91360        5.27540       -0.50500
C          1.61830        6.59390       -0.89860
C          2.55280        7.31550       -1.64010
C          3.77370        6.73850       -1.99250
C          4.06920        5.43430       -1.59100
C          3.15070        4.69550       -0.84680
C          3.50420        3.31320       -0.42920
C          4.76090        7.50010       -2.80780
C          0.32320        7.23040       -0.53640
C         -0.58320       -1.26880        1.04850
C         -1.92560       -1.64600        1.01110
C         -2.38380       -2.67080        1.83520
C         -1.50110       -3.32420        2.69940
C         -0.15650       -2.94010        2.73610
C          0.30040       -1.91410        1.91460
C         -1.97900       -4.43790        3.56500
H          2.32790        8.33350       -1.94850
H          5.02400        4.99000       -1.86380
H          2.93730        2.55560       -1.00600
H          3.27780        3.11810        0.63000
H          4.56690        3.07710       -0.57480
H          5.78890        7.36600       -2.44080
H          4.56300        8.58040       -2.81980
H          4.74610        7.15780       -3.85550
H          0.23050        7.35160        0.55840
H         -0.53990        6.62320       -0.85280
H          0.19340        8.22540       -0.98090
H         -2.63140       -1.14920        0.33500
H         -3.43160       -2.96070        1.80650
H          0.53330       -3.44420        3.40880
H          1.35890       -1.62870        1.95440
H         -1.73260       -5.41430        3.11750
H         -3.06700       -4.42300        3.71790
H         -1.51600       -4.41730        4.56220
