43
rmsd34.gzmat
S          0.00000        0.00000        0.00000
O          1.43930        0.00000        0.00000
O         -0.74110        0.00000       -1.23780
N         -0.50320        1.42480        0.87070
C         -0.55120        2.62950        0.52030
O         -0.99520        3.66630        1.33610
N         -0.93390        4.83470        0.58030
C         -0.47270        4.55090       -0.61440
O         -0.20710        3.18570       -0.71210
C         -0.20470        5.34920       -1.78520
C         -0.33490        4.78550       -3.06970
C         -0.05620        5.56530       -4.19210
C          0.34690        6.89350       -4.05250
C          0.46730        7.45300       -2.77890
C          0.19380        6.69290       -1.64350
C          0.32960        7.32020       -0.30150
C          0.66490        7.71150       -5.25620
C         -0.76040        3.37490       -3.26840
C         -0.59740       -1.26400        1.04570
C          0.17210       -1.69710        2.12580
C         -0.29950       -2.71200        2.95360
C         -1.54400       -3.29930        2.70490
C         -2.31310       -2.85970        1.62360
C         -1.84150       -1.84400        0.79690
C         -2.05150       -4.37880        3.59660
H         -0.15100        5.13140       -5.18540
H          0.77850        8.48940       -2.67300
H          0.98700        6.73730        0.36400
H         -0.64780        7.38350        0.21170
H          0.73620        8.33890       -0.34060
H          0.37340        8.76440       -5.13440
H          0.16470        7.34300       -6.16270
H          1.74850        7.69740       -5.45780
H         -1.63130        3.09800       -2.65330
H          0.04490        2.66680       -2.99260
H         -1.02860        3.14600       -4.30910
H          1.15210       -1.25120        2.33350
H          0.30160       -3.04730        3.79540
H         -3.28210       -3.31230        1.42630
H         -2.45660       -1.51620       -0.05020
H         -2.81680       -5.00310        3.11470
H         -2.51000       -3.95390        4.50400
H         -1.25140       -5.05600        3.92860
