rmsd29.gzmat
 OpenBabel08211713393D

 43 45  0  0  0  0  0  0  0  0999 V2000
    0.0000    0.0000    0.0000 S   0  0  0  0  0  0  0  0  0  0  0  0
    1.4426    0.0000    0.0000 O   0  0  0  0  0  0  0  0  0  0  0  0
   -0.7412    0.0000   -1.2335 O   0  0  0  0  0  0  0  0  0  0  0  0
   -0.4850    1.4202    0.8878 N   0  0  0  0  0  0  0  0  0  0  0  0
   -0.0777    2.6063    0.8390 C   0  0  0  0  0  0  0  0  0  0  0  0
   -0.5527    3.6305    1.6538 O   0  0  0  0  0  0  0  0  0  0  0  0
    0.1755    4.7745    1.3372 N   0  0  0  0  0  0  0  0  0  0  0  0
    1.0298    4.4900    0.3839 C   0  0  0  0  0  0  0  0  0  0  0  0
    0.9127    3.1492    0.0204 O   0  0  0  0  0  0  0  0  0  0  0  0
    2.0240    5.2670   -0.3146 C   0  0  0  0  0  0  0  0  0  0  0  0
    3.2218    4.6588   -0.7396 C   0  0  0  0  0  0  0  0  0  0  0  0
    4.1715    5.4198   -1.4191 C   0  0  0  0  0  0  0  0  0  0  0  0
    3.9468    6.7735   -1.6777 C   0  0  0  0  0  0  0  0  0  0  0  0
    2.7628    7.3753   -1.2500 C   0  0  0  0  0  0  0  0  0  0  0  0
    1.7979    6.6327   -0.5703 C   0  0  0  0  0  0  0  0  0  0  0  0
    0.5460    7.3018   -0.1248 C   0  0  0  0  0  0  0  0  0  0  0  0
    4.9799    7.5652   -2.4025 C   0  0  0  0  0  0  0  0  0  0  0  0
    3.5054    3.2233   -0.4784 C   0  0  0  0  0  0  0  0  0  0  0  0
   -0.5880   -1.2629    1.0526 C   0  0  0  0  0  0  0  0  0  0  0  0
   -1.8775   -1.7661    0.8862 C   0  0  0  0  0  0  0  0  0  0  0  0
   -2.3463   -2.7721    1.7278 C   0  0  0  0  0  0  0  0  0  0  0  0
   -1.5276   -3.2776    2.7409 C   0  0  0  0  0  0  0  0  0  0  0  0
   -0.2335   -2.7715    2.9023 C   0  0  0  0  0  0  0  0  0  0  0  0
    0.2350   -1.7680    2.0603 C   0  0  0  0  0  0  0  0  0  0  0  0
   -2.0166   -4.3541    3.6461 C   0  0  0  0  0  0  0  0  0  0  0  0
    5.0970    4.9551   -1.7524 H   0  0  0  0  0  0  0  0  0  0  0  0
    2.5906    8.4307   -1.4471 H   0  0  0  0  0  0  0  0  0  0  0  0
    0.4753    7.3227    0.9784 H   0  0  0  0  0  0  0  0  0  0  0  0
   -0.3540    6.7743   -0.4805 H   0  0  0  0  0  0  0  0  0  0  0  0
    0.4662    8.3412   -0.4684 H   0  0  0  0  0  0  0  0  0  0  0  0
    4.6390    8.5750   -2.6671 H   0  0  0  0  0  0  0  0  0  0  0  0
    5.2838    7.0731   -3.3389 H   0  0  0  0  0  0  0  0  0  0  0  0
    5.8888    7.6811   -1.7917 H   0  0  0  0  0  0  0  0  0  0  0  0
    2.8790    2.5610   -1.1080 H   0  0  0  0  0  0  0  0  0  0  0  0
    3.3000    2.9296    0.5629 H   0  0  0  0  0  0  0  0  0  0  0  0
    4.5480    2.9446   -0.6835 H   0  0  0  0  0  0  0  0  0  0  0  0
   -2.5327   -1.3831    0.0944 H   0  0  0  0  0  0  0  0  0  0  0  0
   -3.3524   -3.1621    1.5951 H   0  0  0  0  0  0  0  0  0  0  0  0
    0.4063   -3.1618    3.6898 H   0  0  0  0  0  0  0  0  0  0  0  0
    1.2538   -1.3877    2.1982 H   0  0  0  0  0  0  0  0  0  0  0  0
   -1.4465   -5.2850    3.5016 H   0  0  0  0  0  0  0  0  0  0  0  0
   -3.0755   -4.6003    3.4885 H   0  0  0  0  0  0  0  0  0  0  0  0
   -1.9082   -4.0746    4.7049 H   0  0  0  0  0  0  0  0  0  0  0  0
  1  2  2  0  0  0  0
  1  4  1  0  0  0  0
  1 19  1  0  0  0  0
  3  1  2  0  0  0  0
  5  4  2  0  0  0  0
  5  6  1  0  0  0  0
  7  6  1  0  0  0  0
  8  7  2  0  0  0  0
  9  8  1  0  0  0  0
  9  5  1  0  0  0  0
 10  8  1  0  0  0  0
 11 18  1  0  0  0  0
 11 10  2  0  0  0  0
 12 11  1  0  0  0  0
 13 12  2  0  0  0  0
 13 14  1  0  0  0  0
 14 15  2  0  0  0  0
 15 10  1  0  0  0  0
 15 16  1  0  0  0  0
 16 28  1  0  0  0  0
 17 33  1  0  0  0  0
 17 13  1  0  0  0  0
 18 35  1  0  0  0  0
 19 24  1  0  0  0  0
 20 19  2  0  0  0  0
 20 21  1  0  0  0  0
 21 22  2  0  0  0  0
 22 23  1  0  0  0  0
 22 25  1  0  0  0  0
 23 39  1  0  0  0  0
 24 40  1  0  0  0  0
 24 23  2  0  0  0  0
 25 43  1  0  0  0  0
 26 12  1  0  0  0  0
 27 14  1  0  0  0  0
 29 16  1  0  0  0  0
 30 16  1  0  0  0  0
 31 17  1  0  0  0  0
 32 17  1  0  0  0  0
 34 18  1  0  0  0  0
 36 18  1  0  0  0  0
 37 20  1  0  0  0  0
 38 21  1  0  0  0  0
 41 25  1  0  0  0  0
 42 25  1  0  0  0  0
M  END
$$$$
