43

S          0.57450        0.34820        0.89620
O          1.85860        0.51990        1.58440
O          0.52680        0.28440       -0.56870
N         -0.49780        1.55940        1.42640
C         -0.19770        2.75010        1.11100
O         -0.90540        3.84310        1.42800
N         -0.25030        4.98210        0.89870
C          0.80340        4.51940        0.29960
O          0.88010        3.15970        0.40150
C          1.85010        5.23230       -0.42390
C          2.93510        4.51660       -1.01940
C          3.90700        5.25510       -1.69940
C          3.86050        6.64860       -1.81800
C          2.78890        7.32110       -1.22700
C          1.77950        6.65000       -0.53120
C          0.66690        7.46660        0.06940
C          4.94200        7.38910       -2.55810
C          3.11800        3.01580       -0.97370
C         -0.23980       -1.08830        1.55660
C         -1.19150       -1.74900        0.77870
C         -1.82670       -2.87170        1.30610
C         -1.51970       -3.34300        2.59370
C         -0.55320       -2.65680        3.34640
C          0.09320       -1.53130        2.83630
C         -2.19120       -4.57660        3.13850
H          4.73850        4.71330       -2.15730
H          2.73060        8.40920       -1.30730
H          0.60040        7.32490        1.15850
H         -0.31570        7.16840       -0.32570
H          0.82390        8.53360       -0.13990
H          4.73280        8.46680       -2.61300
H          5.05000        7.00720       -3.58630
H          5.91830        7.25650       -2.06290
H          2.27730        2.47070       -1.42590
H          3.19600        2.62800        0.05210
H          4.03440        2.74340       -1.51430
H         -1.41780       -1.38370       -0.22390
H         -2.57550       -3.39580        0.70630
H         -0.30150       -3.01160        4.34910
H          0.85190       -0.99940        3.41200
H         -1.68020       -5.48810        2.78280
H         -3.23950       -4.64260        2.80980
H         -2.17120       -4.59590        4.23800
