43

S         -0.74980        0.39270       -0.00330
O          0.62440        0.34130       -0.51420
O         -1.87410        0.56230       -0.93020
N         -0.84240        1.59640        1.19700
C         -0.67330        2.79060        0.80640
O         -0.70600        3.87900        1.58750
N         -0.47360        5.02430        0.78680
C         -0.31560        4.56940       -0.41790
O         -0.42880        3.20910       -0.45770
C         -0.04760        5.29090       -1.65690
C          0.09510        4.58340       -2.88970
C          0.34930        5.33050       -4.04430
C          0.46980        6.72340       -4.03840
C          0.32200        7.38910       -2.81850
C          0.06710        6.71040       -1.62490
C         -0.07630        7.51900       -0.36340
C          0.77800        7.47750       -5.30420
C         -0.00920        3.08310       -3.05130
C         -1.04290       -1.05160        0.99200
C          0.04200       -1.70540        1.57920
C         -0.19770       -2.83440        2.35900
C         -1.50250       -3.31950        2.55480
C         -2.56880       -2.64130        1.94430
C         -2.34910       -1.50850        1.16000
C         -1.73930       -4.55550        3.38310
H          0.45630        4.79470       -4.99060
H          0.40600        8.47840       -2.79000
H          0.66390        7.22370        0.39510
H         -1.05800        7.36560        0.10900
H          0.04830        8.58840       -0.58210
H          0.42630        8.51830       -5.25120
H          0.31780        6.99790       -6.18110
H          1.86710        7.50620       -5.48260
H         -0.98520        2.68790       -2.73510
H          0.73200        2.53800       -2.44960
H          0.14310        2.81830       -4.10620
H          1.05270       -1.32970        1.41430
H          0.64410       -3.35370        2.82460
H         -3.58890       -3.00770        2.08360
H         -3.17240       -0.98260        0.67470
H         -2.80220       -4.67540        3.63750
H         -1.16150       -4.52550        4.32010
H         -1.42210       -5.45990        2.83640
