rmsd34.gzmat
 OpenBabel08211713393D

 43 45  0  0  0  0  0  0  0  0999 V2000
    0.0000    0.0000    0.0000 S   0  0  0  0  0  0  0  0  0  0  0  0
    1.4393    0.0000    0.0000 O   0  0  0  0  0  0  0  0  0  0  0  0
   -0.7411    0.0000   -1.2378 O   0  0  0  0  0  0  0  0  0  0  0  0
   -0.5032    1.4248    0.8707 N   0  0  0  0  0  0  0  0  0  0  0  0
   -0.5512    2.6295    0.5203 C   0  0  0  0  0  0  0  0  0  0  0  0
   -0.9952    3.6663    1.3361 O   0  0  0  0  0  0  0  0  0  0  0  0
   -0.9339    4.8347    0.5803 N   0  0  0  0  0  0  0  0  0  0  0  0
   -0.4727    4.5509   -0.6144 C   0  0  0  0  0  0  0  0  0  0  0  0
   -0.2071    3.1857   -0.7121 O   0  0  0  0  0  0  0  0  0  0  0  0
   -0.2047    5.3492   -1.7852 C   0  0  0  0  0  0  0  0  0  0  0  0
   -0.3349    4.7855   -3.0697 C   0  0  0  0  0  0  0  0  0  0  0  0
   -0.0562    5.5653   -4.1921 C   0  0  0  0  0  0  0  0  0  0  0  0
    0.3469    6.8935   -4.0525 C   0  0  0  0  0  0  0  0  0  0  0  0
    0.4673    7.4530   -2.7789 C   0  0  0  0  0  0  0  0  0  0  0  0
    0.1938    6.6929   -1.6435 C   0  0  0  0  0  0  0  0  0  0  0  0
    0.3296    7.3202   -0.3015 C   0  0  0  0  0  0  0  0  0  0  0  0
    0.6649    7.7115   -5.2562 C   0  0  0  0  0  0  0  0  0  0  0  0
   -0.7604    3.3749   -3.2684 C   0  0  0  0  0  0  0  0  0  0  0  0
   -0.5974   -1.2640    1.0457 C   0  0  0  0  0  0  0  0  0  0  0  0
    0.1721   -1.6971    2.1258 C   0  0  0  0  0  0  0  0  0  0  0  0
   -0.2995   -2.7120    2.9536 C   0  0  0  0  0  0  0  0  0  0  0  0
   -1.5440   -3.2993    2.7049 C   0  0  0  0  0  0  0  0  0  0  0  0
   -2.3131   -2.8597    1.6236 C   0  0  0  0  0  0  0  0  0  0  0  0
   -1.8415   -1.8440    0.7969 C   0  0  0  0  0  0  0  0  0  0  0  0
   -2.0515   -4.3788    3.5966 C   0  0  0  0  0  0  0  0  0  0  0  0
   -0.1510    5.1314   -5.1854 H   0  0  0  0  0  0  0  0  0  0  0  0
    0.7785    8.4894   -2.6730 H   0  0  0  0  0  0  0  0  0  0  0  0
    0.9870    6.7373    0.3640 H   0  0  0  0  0  0  0  0  0  0  0  0
   -0.6478    7.3835    0.2117 H   0  0  0  0  0  0  0  0  0  0  0  0
    0.7362    8.3389   -0.3406 H   0  0  0  0  0  0  0  0  0  0  0  0
    0.3734    8.7644   -5.1344 H   0  0  0  0  0  0  0  0  0  0  0  0
    0.1647    7.3430   -6.1627 H   0  0  0  0  0  0  0  0  0  0  0  0
    1.7485    7.6974   -5.4578 H   0  0  0  0  0  0  0  0  0  0  0  0
   -1.6313    3.0980   -2.6533 H   0  0  0  0  0  0  0  0  0  0  0  0
    0.0449    2.6668   -2.9926 H   0  0  0  0  0  0  0  0  0  0  0  0
   -1.0286    3.1460   -4.3091 H   0  0  0  0  0  0  0  0  0  0  0  0
    1.1521   -1.2512    2.3335 H   0  0  0  0  0  0  0  0  0  0  0  0
    0.3016   -3.0473    3.7954 H   0  0  0  0  0  0  0  0  0  0  0  0
   -3.2821   -3.3123    1.4263 H   0  0  0  0  0  0  0  0  0  0  0  0
   -2.4566   -1.5162   -0.0502 H   0  0  0  0  0  0  0  0  0  0  0  0
   -2.8168   -5.0031    3.1147 H   0  0  0  0  0  0  0  0  0  0  0  0
   -2.5100   -3.9539    4.5040 H   0  0  0  0  0  0  0  0  0  0  0  0
   -1.2514   -5.0560    3.9286 H   0  0  0  0  0  0  0  0  0  0  0  0
  1  2  2  0  0  0  0
  1  4  1  0  0  0  0
  1 19  1  0  0  0  0
  3  1  2  0  0  0  0
  5  4  2  0  0  0  0
  5  6  1  0  0  0  0
  7  6  1  0  0  0  0
  8  7  2  0  0  0  0
  9  8  1  0  0  0  0
  9  5  1  0  0  0  0
 10 15  1  0  0  0  0
 10  8  1  0  0  0  0
 11 10  2  0  0  0  0
 12 13  2  0  0  0  0
 12 11  1  0  0  0  0
 13 14  1  0  0  0  0
 14 27  1  0  0  0  0
 14 15  2  0  0  0  0
 15 16  1  0  0  0  0
 16 29  1  0  0  0  0
 16 28  1  0  0  0  0
 17 31  1  0  0  0  0
 17 13  1  0  0  0  0
 18 11  1  0  0  0  0
 18 35  1  0  0  0  0
 18 34  1  0  0  0  0
 19 20  1  0  0  0  0
 20 37  1  0  0  0  0
 20 21  2  0  0  0  0
 21 38  1  0  0  0  0
 22 21  1  0  0  0  0
 22 25  1  0  0  0  0
 23 22  2  0  0  0  0
 24 19  2  0  0  0  0
 24 23  1  0  0  0  0
 25 43  1  0  0  0  0
 25 42  1  0  0  0  0
 26 12  1  0  0  0  0
 30 16  1  0  0  0  0
 32 17  1  0  0  0  0
 33 17  1  0  0  0  0
 36 18  1  0  0  0  0
 39 23  1  0  0  0  0
 40 24  1  0  0  0  0
 41 25  1  0  0  0  0
M  END
$$$$
