rmsd100.gzmat
 OpenBabel08211713393D

 43 45  0  0  0  0  0  0  0  0999 V2000
    0.0000    0.0000    0.0000 S   0  0  0  0  0  0  0  0  0  0  0  0
    1.4392    0.0000    0.0000 O   0  0  0  0  0  0  0  0  0  0  0  0
   -0.7414    0.0000   -1.2374 O   0  0  0  0  0  0  0  0  0  0  0  0
   -0.5014    1.4228    0.8747 N   0  0  0  0  0  0  0  0  0  0  0  0
   -0.5358    2.6311    0.5369 C   0  0  0  0  0  0  0  0  0  0  0  0
   -0.9797    3.6608    1.3633 O   0  0  0  0  0  0  0  0  0  0  0  0
   -0.8976    4.8396    0.6263 N   0  0  0  0  0  0  0  0  0  0  0  0
   -0.4260    4.5682   -0.5655 C   0  0  0  0  0  0  0  0  0  0  0  0
   -0.1739    3.2016   -0.6834 O   0  0  0  0  0  0  0  0  0  0  0  0
   -0.1398    5.3747   -1.7270 C   0  0  0  0  0  0  0  0  0  0  0  0
   -0.4423    4.8813   -3.0102 C   0  0  0  0  0  0  0  0  0  0  0  0
   -0.1516    5.6614   -4.1291 C   0  0  0  0  0  0  0  0  0  0  0  0
    0.4352    6.9191   -3.9838 C   0  0  0  0  0  0  0  0  0  0  0  0
    0.7327    7.4062   -2.7090 C   0  0  0  0  0  0  0  0  0  0  0  0
    0.4472    6.6453   -1.5773 C   0  0  0  0  0  0  0  0  0  0  0  0
    0.7682    7.1873   -0.2293 C   0  0  0  0  0  0  0  0  0  0  0  0
    0.7596    7.7387   -5.1848 C   0  0  0  0  0  0  0  0  0  0  0  0
   -1.0671    3.5454   -3.1998 C   0  0  0  0  0  0  0  0  0  0  0  0
   -0.6013   -1.2617    1.0471 C   0  0  0  0  0  0  0  0  0  0  0  0
   -1.8187   -1.8797    0.7591 C   0  0  0  0  0  0  0  0  0  0  0  0
   -2.2968   -2.8929    1.5842 C   0  0  0  0  0  0  0  0  0  0  0  0
   -1.5609   -3.2933    2.7047 C   0  0  0  0  0  0  0  0  0  0  0  0
   -0.3439   -2.6692    2.9910 C   0  0  0  0  0  0  0  0  0  0  0  0
    0.1346   -1.6558    2.1641 C   0  0  0  0  0  0  0  0  0  0  0  0
   -2.0815   -4.3768    3.5843 C   0  0  0  0  0  0  0  0  0  0  0  0
   -0.3818    5.2846   -5.1233 H   0  0  0  0  0  0  0  0  0  0  0  0
    1.1916    8.3858   -2.6002 H   0  0  0  0  0  0  0  0  0  0  0  0
    1.4372    6.5180    0.3343 H   0  0  0  0  0  0  0  0  0  0  0  0
   -0.1443    7.3053    0.3834 H   0  0  0  0  0  0  0  0  0  0  0  0
    1.2550    8.1703   -0.2646 H   0  0  0  0  0  0  0  0  0  0  0  0
    0.6124    8.8136   -5.0080 H   0  0  0  0  0  0  0  0  0  0  0  0
    0.1490    7.4716   -6.0585 H   0  0  0  0  0  0  0  0  0  0  0  0
    1.8140    7.6013   -5.4746 H   0  0  0  0  0  0  0  0  0  0  0  0
   -1.9052    3.3657   -2.5095 H   0  0  0  0  0  0  0  0  0  0  0  0
   -0.3404    2.7297   -3.0169 H   0  0  0  0  0  0  0  0  0  0  0  0
   -1.4553    3.3907   -4.2157 H   0  0  0  0  0  0  0  0  0  0  0  0
   -2.4069   -1.5812   -0.1175 H   0  0  0  0  0  0  0  0  0  0  0  0
   -3.2449   -3.3738    1.3571 H   0  0  0  0  0  0  0  0  0  0  0  0
    0.2325   -2.9739    3.8610 H   0  0  0  0  0  0  0  0  0  0  0  0
    1.0938   -1.1819    2.4029 H   0  0  0  0  0  0  0  0  0  0  0  0
   -1.3445   -4.7208    4.3228 H   0  0  0  0  0  0  0  0  0  0  0  0
   -2.3888   -5.2608    3.0059 H   0  0  0  0  0  0  0  0  0  0  0  0
   -2.9657   -4.0402    4.1482 H   0  0  0  0  0  0  0  0  0  0  0  0
  1  2  2  0  0  0  0
  1  4  1  0  0  0  0
  1 19  1  0  0  0  0
  3  1  2  0  0  0  0
  5  4  2  0  0  0  0
  5  6  1  0  0  0  0
  7  6  1  0  0  0  0
  8  7  2  0  0  0  0
  9  8  1  0  0  0  0
  9  5  1  0  0  0  0
 10 15  1  0  0  0  0
 10  8  1  0  0  0  0
 11 10  2  0  0  0  0
 12 13  2  0  0  0  0
 12 11  1  0  0  0  0
 13 14  1  0  0  0  0
 14 27  1  0  0  0  0
 14 15  2  0  0  0  0
 15 16  1  0  0  0  0
 16 28  1  0  0  0  0
 16 29  1  0  0  0  0
 17 31  1  0  0  0  0
 17 13  1  0  0  0  0
 18 35  1  0  0  0  0
 18 11  1  0  0  0  0
 18 34  1  0  0  0  0
 19 24  1  0  0  0  0
 20 19  2  0  0  0  0
 20 21  1  0  0  0  0
 21 22  2  0  0  0  0
 22 23  1  0  0  0  0
 22 25  1  0  0  0  0
 23 39  1  0  0  0  0
 24 40  1  0  0  0  0
 24 23  2  0  0  0  0
 25 43  1  0  0  0  0
 25 41  1  0  0  0  0
 26 12  1  0  0  0  0
 30 16  1  0  0  0  0
 32 17  1  0  0  0  0
 33 17  1  0  0  0  0
 36 18  1  0  0  0  0
 37 20  1  0  0  0  0
 38 21  1  0  0  0  0
 42 25  1  0  0  0  0
M  END
$$$$
