rmsd101.gzmat
 OpenBabel08211713393D

 43 45  0  0  0  0  0  0  0  0999 V2000
    0.0000    0.0000    0.0000 S   0  0  0  0  0  0  0  0  0  0  0  0
    1.4397    0.0000    0.0000 O   0  0  0  0  0  0  0  0  0  0  0  0
   -0.7417    0.0000   -1.2369 O   0  0  0  0  0  0  0  0  0  0  0  0
   -0.5088    1.4212    0.8720 N   0  0  0  0  0  0  0  0  0  0  0  0
   -0.5214    2.6332    0.5463 C   0  0  0  0  0  0  0  0  0  0  0  0
   -0.9866    3.6580    1.3659 O   0  0  0  0  0  0  0  0  0  0  0  0
   -0.8701    4.8428    0.6435 N   0  0  0  0  0  0  0  0  0  0  0  0
   -0.3579    4.5797   -0.5344 C   0  0  0  0  0  0  0  0  0  0  0  0
   -0.1120    3.2125   -0.6551 O   0  0  0  0  0  0  0  0  0  0  0  0
   -0.0237    5.4008   -1.6724 C   0  0  0  0  0  0  0  0  0  0  0  0
   -0.1648    4.8881   -2.9766 C   0  0  0  0  0  0  0  0  0  0  0  0
    0.1688    5.6895   -4.0682 C   0  0  0  0  0  0  0  0  0  0  0  0
    0.6390    6.9890   -3.8768 C   0  0  0  0  0  0  0  0  0  0  0  0
    0.7765    7.4962   -2.5831 C   0  0  0  0  0  0  0  0  0  0  0  0
    0.4466    6.7142   -1.4783 C   0  0  0  0  0  0  0  0  0  0  0  0
    0.5962    7.2849   -0.1124 C   0  0  0  0  0  0  0  0  0  0  0  0
    1.0086    7.8338   -5.0465 C   0  0  0  0  0  0  0  0  0  0  0  0
   -0.6633    3.5094   -3.2239 C   0  0  0  0  0  0  0  0  0  0  0  0
   -0.5945   -1.2640    1.0471 C   0  0  0  0  0  0  0  0  0  0  0  0
   -1.8986   -1.7366    0.8977 C   0  0  0  0  0  0  0  0  0  0  0  0
   -2.3669   -2.7573    1.7196 C   0  0  0  0  0  0  0  0  0  0  0  0
   -1.5328   -3.3129    2.6950 C   0  0  0  0  0  0  0  0  0  0  0  0
   -0.2296   -2.8305    2.8462 C   0  0  0  0  0  0  0  0  0  0  0  0
    0.2376   -1.8073    2.0257 C   0  0  0  0  0  0  0  0  0  0  0  0
   -2.0388   -4.4047    3.5724 C   0  0  0  0  0  0  0  0  0  0  0  0
    0.0635    5.2973   -5.0777 H   0  0  0  0  0  0  0  0  0  0  0  0
    1.1442    8.5093   -2.4382 H   0  0  0  0  0  0  0  0  0  0  0  0
    1.2494    6.6674    0.5251 H   0  0  0  0  0  0  0  0  0  0  0  0
   -0.3782    7.3403    0.4074 H   0  0  0  0  0  0  0  0  0  0  0  0
    1.0158    8.2993   -0.1125 H   0  0  0  0  0  0  0  0  0  0  0  0
    0.7850    8.8970   -4.8795 H   0  0  0  0  0  0  0  0  0  0  0  0
    0.4861    7.5361   -5.9662 H   0  0  0  0  0  0  0  0  0  0  0  0
    2.0889    7.7611   -5.2516 H   0  0  0  0  0  0  0  0  0  0  0  0
   -1.5512    3.2624   -2.6212 H   0  0  0  0  0  0  0  0  0  0  0  0
    0.1019    2.7514   -2.9672 H   0  0  0  0  0  0  0  0  0  0  0  0
   -0.9364    3.3301   -4.2730 H   0  0  0  0  0  0  0  0  0  0  0  0
   -2.5650   -1.3203    0.1334 H   0  0  0  0  0  0  0  0  0  0  0  0
   -3.3839   -3.1228    1.6022 H   0  0  0  0  0  0  0  0  0  0  0  0
    0.4224   -3.2525    3.6068 H   0  0  0  0  0  0  0  0  0  0  0  0
    1.2641   -1.4429    2.1572 H   0  0  0  0  0  0  0  0  0  0  0  0
   -1.2294   -4.9980    4.0201 H   0  0  0  0  0  0  0  0  0  0  0  0
   -2.6873   -5.1089    3.0312 H   0  0  0  0  0  0  0  0  0  0  0  0
   -2.6355   -3.9961    4.4036 H   0  0  0  0  0  0  0  0  0  0  0  0
  1  2  2  0  0  0  0
  1  4  1  0  0  0  0
  1 19  1  0  0  0  0
  3  1  2  0  0  0  0
  5  4  2  0  0  0  0
  5  6  1  0  0  0  0
  7  6  1  0  0  0  0
  8  7  2  0  0  0  0
  9  8  1  0  0  0  0
  9  5  1  0  0  0  0
 10 15  1  0  0  0  0
 10  8  1  0  0  0  0
 11 10  2  0  0  0  0
 12 13  2  0  0  0  0
 12 11  1  0  0  0  0
 13 14  1  0  0  0  0
 14 27  1  0  0  0  0
 14 15  2  0  0  0  0
 15 16  1  0  0  0  0
 16 29  1  0  0  0  0
 16 28  1  0  0  0  0
 17 31  1  0  0  0  0
 17 13  1  0  0  0  0
 18 11  1  0  0  0  0
 18 35  1  0  0  0  0
 18 34  1  0  0  0  0
 19 24  1  0  0  0  0
 20 19  2  0  0  0  0
 20 21  1  0  0  0  0
 21 22  2  0  0  0  0
 22 23  1  0  0  0  0
 22 25  1  0  0  0  0
 23 39  1  0  0  0  0
 24 40  1  0  0  0  0
 24 23  2  0  0  0  0
 25 41  1  0  0  0  0
 25 43  1  0  0  0  0
 26 12  1  0  0  0  0
 30 16  1  0  0  0  0
 32 17  1  0  0  0  0
 33 17  1  0  0  0  0
 36 18  1  0  0  0  0
 37 20  1  0  0  0  0
 38 21  1  0  0  0  0
 42 25  1  0  0  0  0
M  END
$$$$
