rmsd85.gzmat
 OpenBabel08211713363D

 32 34  0  0  1  0  0  0  0  0999 V2000
    0.0000    0.0000    0.0000 C   0  0  0  0  0  0  0  0  0  0  0  0
    1.3980    0.0000    0.0000 C   0  0  0  0  0  0  0  0  0  0  0  0
    2.1549    0.0000    1.1691 C   0  0  0  0  0  0  0  0  0  0  0  0
    1.4781    0.0101    2.3867 C   0  0  0  0  0  0  0  0  0  0  0  0
    0.0825    0.0137    2.4181 C   0  0  0  0  0  0  0  0  0  0  0  0
   -0.6523    0.0061    1.2353 C   0  0  0  0  0  0  0  0  0  0  0  0
    2.0303   -0.0106   -1.1635 F   0  0  0  0  0  0  0  0  0  0  0  0
   -0.7856    0.0312   -1.2751 C   0  0  0  0  0  0  0  0  0  0  0  0
   -0.4545   -1.1183   -2.1194 N   0  0  0  0  0  0  0  0  0  0  0  0
    0.1487   -1.0706   -3.3498 C   0  0  0  0  0  0  0  0  0  0  0  0
    0.3851   -2.4318   -3.7347 C   0  0  0  0  0  0  0  0  0  0  0  0
    1.0095   -2.7035   -4.9828 C   0  0  2  0  0  0  0  0  0  0  0  0
    1.3468   -1.5841   -5.7402 N   0  0  0  0  0  0  0  0  0  0  0  0
    1.8160   -1.7006   -6.6398 H   0  0  0  0  0  0  0  0  0  0  0  0
    1.0632   -0.2747   -5.2783 C   0  0  0  0  0  0  0  0  0  0  0  0
    0.4848    0.0031   -4.1426 N   0  0  0  0  0  0  0  0  0  0  0  0
    1.2510   -3.9557   -5.3976 N   0  0  0  0  0  0  0  0  0  0  0  0
    1.8740   -4.2858   -6.6761 C   0  0  0  0  0  0  0  0  0  0  0  0
   -0.0659   -3.2776   -2.7304 N   0  0  0  0  0  0  0  0  0  0  0  0
   -0.5552   -2.4894   -1.7697 C   0  0  0  0  0  0  0  0  0  0  0  0
    3.2455   -0.0018    1.1344 H   0  0  0  0  0  0  0  0  0  0  0  0
    2.0446    0.0176    3.3217 H   0  0  0  0  0  0  0  0  0  0  0  0
   -0.4371    0.0258    3.3784 H   0  0  0  0  0  0  0  0  0  0  0  0
   -1.7430    0.0129    1.2789 H   0  0  0  0  0  0  0  0  0  0  0  0
   -0.5746    0.9811   -1.8423 H   0  0  0  0  0  0  0  0  0  0  0  0
   -1.8905    0.0272   -1.0849 H   0  0  0  0  0  0  0  0  0  0  0  0
    1.3687    0.5477   -5.9596 H   0  0  0  0  0  0  0  0  0  0  0  0
    0.9817   -4.7329   -4.7768 H   0  0  0  0  0  0  0  0  0  0  0  0
    2.9159   -3.9148   -6.7380 H   0  0  0  0  0  0  0  0  0  0  0  0
    1.2903   -3.9006   -7.5346 H   0  0  0  0  0  0  0  0  0  0  0  0
    1.9210   -5.3909   -6.7944 H   0  0  0  0  0  0  0  0  0  0  0  0
   -0.9862   -2.8194   -0.8285 H   0  0  0  0  0  0  0  0  0  0  0  0
  1  6  1  0  0  0  0
  2  1  2  0  0  0  0
  2  3  1  0  0  0  0
  3  4  2  0  0  0  0
  4  5  1  0  0  0  0
  4 22  1  0  0  0  0
  5 23  1  0  0  0  0
  6 24  1  0  0  0  0
  6  5  2  0  0  0  0
  7  2  1  0  0  0  0
  8 26  1  0  0  0  0
  8  1  1  0  0  0  0
  9 20  1  0  0  0  0
  9  8  1  0  0  0  0
 10  9  1  0  0  0  0
 11 10  1  0  0  0  0
 11 19  2  0  0  0  0
 12 17  1  6  0  0  0
 12 11  1  0  0  0  0
 13 15  1  0  0  0  0
 13 12  1  0  0  0  0
 14 13  1  0  0  0  0
 15 16  2  0  0  0  0
 16 10  2  0  0  0  0
 17 28  1  0  0  0  0
 18 17  1  0  0  0  0
 19 20  2  0  0  0  0
 20 32  1  0  0  0  0
 21  3  1  0  0  0  0
 25  8  1  0  0  0  0
 27 15  1  0  0  0  0
 29 18  1  0  0  0  0
 30 18  1  0  0  0  0
 31 18  1  0  0  0  0
M  RAD  1  12   2
M  END
$$$$
