rmsd39.gzmat
 OpenBabel08211713363D

 32 34  0  0  1  0  0  0  0  0999 V2000
    0.0000    0.0000    0.0000 C   0  0  0  0  0  0  0  0  0  0  0  0
    1.3982    0.0000    0.0000 C   0  0  0  0  0  0  0  0  0  0  0  0
    2.1546    0.0000    1.1692 C   0  0  0  0  0  0  0  0  0  0  0  0
    1.4774   -0.0064    2.3864 C   0  0  0  0  0  0  0  0  0  0  0  0
    0.0818   -0.0103    2.4174 C   0  0  0  0  0  0  0  0  0  0  0  0
   -0.6531   -0.0073    1.2349 C   0  0  0  0  0  0  0  0  0  0  0  0
    2.0302    0.0122   -1.1635 F   0  0  0  0  0  0  0  0  0  0  0  0
   -0.7837   -0.0165   -1.2763 C   0  0  0  0  0  0  0  0  0  0  0  0
   -0.4876    1.1754   -2.0740 N   0  0  0  0  0  0  0  0  0  0  0  0
    0.1344    1.2005   -3.2956 C   0  0  0  0  0  0  0  0  0  0  0  0
    0.3303    2.5840   -3.6177 C   0  0  0  0  0  0  0  0  0  0  0  0
    0.9666    2.9324   -4.8407 C   0  0  1  0  0  0  0  0  0  0  0  0
    1.3571    1.8598   -5.6387 N   0  0  0  0  0  0  0  0  0  0  0  0
    1.8424    2.0308   -6.5208 H   0  0  0  0  0  0  0  0  0  0  0  0
    1.1058    0.5225   -5.2411 C   0  0  0  0  0  0  0  0  0  0  0  0
    0.5175    0.1753   -4.1299 N   0  0  0  0  0  0  0  0  0  0  0  0
    1.1648    4.2110   -5.1922 N   0  0  0  0  0  0  0  0  0  0  0  0
    1.8134    4.6307   -6.4303 C   0  0  0  0  0  0  0  0  0  0  0  0
   -0.1632    3.3704   -2.5857 N   0  0  0  0  0  0  0  0  0  0  0  0
   -0.6387    2.5257   -1.6673 C   0  0  0  0  0  0  0  0  0  0  0  0
    3.2454   -0.0002    1.1365 H   0  0  0  0  0  0  0  0  0  0  0  0
    2.0434   -0.0103    3.3220 H   0  0  0  0  0  0  0  0  0  0  0  0
   -0.4374   -0.0189    3.3777 H   0  0  0  0  0  0  0  0  0  0  0  0
   -1.7437   -0.0175    1.2779 H   0  0  0  0  0  0  0  0  0  0  0  0
   -1.8883   -0.0549   -1.0885 H   0  0  0  0  0  0  0  0  0  0  0  0
   -0.5427   -0.9374   -1.8775 H   0  0  0  0  0  0  0  0  0  0  0  0
    1.4473   -0.2589   -5.9528 H   0  0  0  0  0  0  0  0  0  0  0  0
    0.8491    4.9454   -4.5413 H   0  0  0  0  0  0  0  0  0  0  0  0
    1.2829    4.2547   -7.3265 H   0  0  0  0  0  0  0  0  0  0  0  0
    2.8758    4.3188   -6.4670 H   0  0  0  0  0  0  0  0  0  0  0  0
    1.8026    5.7416   -6.4978 H   0  0  0  0  0  0  0  0  0  0  0  0
   -1.0922    2.7998   -0.7190 H   0  0  0  0  0  0  0  0  0  0  0  0
  1  6  1  0  0  0  0
  2  1  2  0  0  0  0
  2  3  1  0  0  0  0
  3  4  2  0  0  0  0
  4  5  1  0  0  0  0
  4 22  1  0  0  0  0
  5 23  1  0  0  0  0
  6 24  1  0  0  0  0
  6  5  2  0  0  0  0
  7  2  1  0  0  0  0
  8 25  1  0  0  0  0
  8  1  1  0  0  0  0
  9 20  1  0  0  0  0
  9  8  1  0  0  0  0
 10  9  1  0  0  0  0
 11 10  1  0  0  0  0
 11 19  2  0  0  0  0
 12 17  1  6  0  0  0
 12 11  1  0  0  0  0
 13 15  1  0  0  0  0
 13 12  1  0  0  0  0
 14 13  1  0  0  0  0
 15 16  2  0  0  0  0
 16 10  2  0  0  0  0
 17 28  1  0  0  0  0
 18 17  1  0  0  0  0
 19 20  2  0  0  0  0
 20 32  1  0  0  0  0
 21  3  1  0  0  0  0
 26  8  1  0  0  0  0
 27 15  1  0  0  0  0
 29 18  1  0  0  0  0
 30 18  1  0  0  0  0
 31 18  1  0  0  0  0
M  RAD  1  12   2
M  END
$$$$
