rmsd67.gzmat
 OpenBabel08211713363D

 32 34  0  0  1  0  0  0  0  0999 V2000
    0.0000    0.0000    0.0000 C   0  0  0  0  0  0  0  0  0  0  0  0
    1.3982    0.0000    0.0000 C   0  0  0  0  0  0  0  0  0  0  0  0
    2.1547    0.0000    1.1694 C   0  0  0  0  0  0  0  0  0  0  0  0
    1.4775    0.0054    2.3867 C   0  0  0  0  0  0  0  0  0  0  0  0
    0.0818    0.0072    2.4179 C   0  0  0  0  0  0  0  0  0  0  0  0
   -0.6527    0.0045    1.2351 C   0  0  0  0  0  0  0  0  0  0  0  0
    2.0300   -0.0114   -1.1635 F   0  0  0  0  0  0  0  0  0  0  0  0
   -0.7848    0.0225   -1.2754 C   0  0  0  0  0  0  0  0  0  0  0  0
   -0.5068   -1.1756   -2.0704 N   0  0  0  0  0  0  0  0  0  0  0  0
    0.0789   -1.2072   -3.3096 C   0  0  0  0  0  0  0  0  0  0  0  0
    0.2693   -2.5922   -3.6290 C   0  0  0  0  0  0  0  0  0  0  0  0
    0.8798   -2.9447   -4.8640 C   0  0  2  0  0  0  0  0  0  0  0  0
    1.2428   -1.8746   -5.6786 N   0  0  0  0  0  0  0  0  0  0  0  0
    1.7061   -2.0488   -6.5720 H   0  0  0  0  0  0  0  0  0  0  0  0
    0.9937   -0.5362   -5.2842 C   0  0  0  0  0  0  0  0  0  0  0  0
    0.4351   -0.1849   -4.1591 N   0  0  0  0  0  0  0  0  0  0  0  0
    1.0842   -4.2232   -5.2131 N   0  0  0  0  0  0  0  0  0  0  0  0
    1.7319   -4.6411   -6.4528 C   0  0  0  0  0  0  0  0  0  0  0  0
   -0.1957   -3.3733   -2.5798 N   0  0  0  0  0  0  0  0  0  0  0  0
   -0.6471   -2.5240   -1.6532 C   0  0  0  0  0  0  0  0  0  0  0  0
    3.2454    0.0020    1.1361 H   0  0  0  0  0  0  0  0  0  0  0  0
    2.0442    0.0105    3.3216 H   0  0  0  0  0  0  0  0  0  0  0  0
   -0.4370    0.0144    3.3779 H   0  0  0  0  0  0  0  0  0  0  0  0
   -1.7432    0.0136    1.2770 H   0  0  0  0  0  0  0  0  0  0  0  0
   -0.5318    0.9376   -1.8806 H   0  0  0  0  0  0  0  0  0  0  0  0
   -1.8886    0.0770   -1.0868 H   0  0  0  0  0  0  0  0  0  0  0  0
    1.3084    0.2423   -6.0116 H   0  0  0  0  0  0  0  0  0  0  0  0
    0.7903   -4.9578   -4.5531 H   0  0  0  0  0  0  0  0  0  0  0  0
    2.8016   -4.3514   -6.4759 H   0  0  0  0  0  0  0  0  0  0  0  0
    1.2203   -4.2427   -7.3495 H   0  0  0  0  0  0  0  0  0  0  0  0
    1.6968   -5.7502   -6.5367 H   0  0  0  0  0  0  0  0  0  0  0  0
   -1.0749   -2.7944   -0.6918 H   0  0  0  0  0  0  0  0  0  0  0  0
  1  6  1  0  0  0  0
  2  1  2  0  0  0  0
  2  3  1  0  0  0  0
  3  4  2  0  0  0  0
  4  5  1  0  0  0  0
  4 22  1  0  0  0  0
  5 23  1  0  0  0  0
  6 24  1  0  0  0  0
  6  5  2  0  0  0  0
  7  2  1  0  0  0  0
  8 26  1  0  0  0  0
  8  1  1  0  0  0  0
  9 20  1  0  0  0  0
  9  8  1  0  0  0  0
 10  9  1  0  0  0  0
 11 10  1  0  0  0  0
 11 19  2  0  0  0  0
 12 17  1  6  0  0  0
 12 11  1  0  0  0  0
 13 15  1  0  0  0  0
 13 12  1  0  0  0  0
 14 13  1  0  0  0  0
 15 16  2  0  0  0  0
 16 10  2  0  0  0  0
 17 28  1  0  0  0  0
 18 17  1  0  0  0  0
 19 20  2  0  0  0  0
 20 32  1  0  0  0  0
 21  3  1  0  0  0  0
 25  8  1  0  0  0  0
 27 15  1  0  0  0  0
 29 18  1  0  0  0  0
 30 18  1  0  0  0  0
 31 18  1  0  0  0  0
M  RAD  1  12   2
M  END
$$$$
