rmsd12.gzmat
 OpenBabel08211713363D

 32 34  0  0  1  0  0  0  0  0999 V2000
    0.0000    0.0000    0.0000 C   0  0  0  0  0  0  0  0  0  0  0  0
    1.3983    0.0000    0.0000 C   0  0  0  0  0  0  0  0  0  0  0  0
    2.1546    0.0000    1.1695 C   0  0  0  0  0  0  0  0  0  0  0  0
    1.4769   -0.0015    2.3865 C   0  0  0  0  0  0  0  0  0  0  0  0
    0.0809   -0.0025    2.4177 C   0  0  0  0  0  0  0  0  0  0  0  0
   -0.6538   -0.0046    1.2350 C   0  0  0  0  0  0  0  0  0  0  0  0
    2.0297    0.0130   -1.1637 F   0  0  0  0  0  0  0  0  0  0  0  0
   -0.7781   -0.0103   -1.2797 C   0  0  0  0  0  0  0  0  0  0  0  0
   -0.5501    1.2349   -2.0173 N   0  0  0  0  0  0  0  0  0  0  0  0
    0.0422    1.3545   -3.2477 C   0  0  0  0  0  0  0  0  0  0  0  0
    0.1741    2.7610   -3.4946 C   0  0  0  0  0  0  0  0  0  0  0  0
    0.7689    3.2035   -4.7079 C   0  0  2  0  0  0  0  0  0  0  0  0
    1.1664    2.1951   -5.5822 N   0  0  0  0  0  0  0  0  0  0  0  0
    1.6079    2.4359   -6.4713 H   0  0  0  0  0  0  0  0  0  0  0  0
    0.9840    0.8281   -5.2540 C   0  0  0  0  0  0  0  0  0  0  0  0
    0.4463    0.3947   -4.1474 N   0  0  0  0  0  0  0  0  0  0  0  0
    0.9362    4.5062   -4.9771 N   0  0  0  0  0  0  0  0  0  0  0  0
    1.5335    5.0191   -6.2062 C   0  0  0  0  0  0  0  0  0  0  0  0
   -0.3300    3.4672   -2.4112 N   0  0  0  0  0  0  0  0  0  0  0  0
   -0.7518    2.5531   -1.5339 C   0  0  0  0  0  0  0  0  0  0  0  0
    3.2456   -0.0044    1.1358 H   0  0  0  0  0  0  0  0  0  0  0  0
    2.0425   -0.0034    3.3223 H   0  0  0  0  0  0  0  0  0  0  0  0
   -0.4382   -0.0045    3.3783 H   0  0  0  0  0  0  0  0  0  0  0  0
   -1.7445   -0.0165    1.2781 H   0  0  0  0  0  0  0  0  0  0  0  0
   -1.8787   -0.1241   -1.1012 H   0  0  0  0  0  0  0  0  0  0  0  0
   -0.4804   -0.8846   -1.9230 H   0  0  0  0  0  0  0  0  0  0  0  0
    1.3353    0.1031   -6.0187 H   0  0  0  0  0  0  0  0  0  0  0  0
    0.6127    5.1898   -4.2766 H   0  0  0  0  0  0  0  0  0  0  0  0
    0.9164    4.7819   -7.0950 H   0  0  0  0  0  0  0  0  0  0  0  0
    2.5641    4.6448   -6.3578 H   0  0  0  0  0  0  0  0  0  0  0  0
    1.6034    6.1281   -6.1521 H   0  0  0  0  0  0  0  0  0  0  0  0
   -1.2008    2.7552   -0.5653 H   0  0  0  0  0  0  0  0  0  0  0  0
  1  6  1  0  0  0  0
  2  1  2  0  0  0  0
  2  3  1  0  0  0  0
  3  4  2  0  0  0  0
  4  5  1  0  0  0  0
  4 22  1  0  0  0  0
  5 23  1  0  0  0  0
  6 24  1  0  0  0  0
  6  5  2  0  0  0  0
  7  2  1  0  0  0  0
  8 25  1  0  0  0  0
  8  1  1  0  0  0  0
  9 20  1  0  0  0  0
  9  8  1  0  0  0  0
 10  9  1  0  0  0  0
 11 10  1  0  0  0  0
 11 19  2  0  0  0  0
 12 17  1  1  0  0  0
 12 11  1  0  0  0  0
 13 15  1  0  0  0  0
 13 12  1  0  0  0  0
 14 13  1  0  0  0  0
 15 16  2  0  0  0  0
 16 10  2  0  0  0  0
 17 28  1  0  0  0  0
 18 31  1  0  0  0  0
 18 17  1  0  0  0  0
 19 20  2  0  0  0  0
 20 32  1  0  0  0  0
 21  3  1  0  0  0  0
 26  8  1  0  0  0  0
 27 15  1  0  0  0  0
 29 18  1  0  0  0  0
 30 18  1  0  0  0  0
M  RAD  1  12   2
M  END
$$$$
