32
rmsd39.gzmat
C          0.00000        0.00000        0.00000
C          1.39820        0.00000        0.00000
C          2.15460        0.00000        1.16920
C          1.47740       -0.00640        2.38640
C          0.08180       -0.01030        2.41740
C         -0.65310       -0.00730        1.23490
F          2.03020        0.01220       -1.16350
C         -0.78370       -0.01650       -1.27630
N         -0.48760        1.17540       -2.07400
C          0.13440        1.20050       -3.29560
C          0.33030        2.58400       -3.61770
C          0.96660        2.93240       -4.84070
N          1.35710        1.85980       -5.63870
H          1.84240        2.03080       -6.52080
C          1.10580        0.52250       -5.24110
N          0.51750        0.17530       -4.12990
N          1.16480        4.21100       -5.19220
C          1.81340        4.63070       -6.43030
N         -0.16320        3.37040       -2.58570
C         -0.63870        2.52570       -1.66730
H          3.24540       -0.00020        1.13650
H          2.04340       -0.01030        3.32200
H         -0.43740       -0.01890        3.37770
H         -1.74370       -0.01750        1.27790
H         -1.88830       -0.05490       -1.08850
H         -0.54270       -0.93740       -1.87750
H          1.44730       -0.25890       -5.95280
H          0.84910        4.94540       -4.54130
H          1.28290        4.25470       -7.32650
H          2.87580        4.31880       -6.46700
H          1.80260        5.74160       -6.49780
H         -1.09220        2.79980       -0.71900
