rmsd123.gzmat
 OpenBabel08211713363D

 32 34  0  0  1  0  0  0  0  0999 V2000
    0.0000    0.0000    0.0000 C   0  0  0  0  0  0  0  0  0  0  0  0
    1.3980    0.0000    0.0000 C   0  0  0  0  0  0  0  0  0  0  0  0
    2.1543    0.0000    1.1695 C   0  0  0  0  0  0  0  0  0  0  0  0
    1.4766    0.0079    2.3865 C   0  0  0  0  0  0  0  0  0  0  0  0
    0.0809    0.0118    2.4175 C   0  0  0  0  0  0  0  0  0  0  0  0
   -0.6532    0.0076    1.2344 C   0  0  0  0  0  0  0  0  0  0  0  0
    2.0295   -0.0112   -1.1641 F   0  0  0  0  0  0  0  0  0  0  0  0
   -0.7852    0.0243   -1.2751 C   0  0  0  0  0  0  0  0  0  0  0  0
   -0.4812   -1.1525   -2.0918 N   0  0  0  0  0  0  0  0  0  0  0  0
    0.0691   -1.1447   -3.3474 C   0  0  0  0  0  0  0  0  0  0  0  0
    0.2972   -2.5173   -3.6938 C   0  0  0  0  0  0  0  0  0  0  0  0
    0.8679   -2.8308   -4.9575 C   0  0  1  0  0  0  0  0  0  0  0  0
    1.1607   -1.7385   -5.7706 N   0  0  0  0  0  0  0  0  0  0  0  0
    1.5826   -1.8856   -6.6890 H   0  0  0  0  0  0  0  0  0  0  0  0
    0.8926   -0.4145   -5.3418 C   0  0  0  0  0  0  0  0  0  0  0  0
    0.3655   -0.0986   -4.1912 N   0  0  0  0  0  0  0  0  0  0  0  0
    1.1044   -4.0967   -5.3310 N   0  0  0  0  0  0  0  0  0  0  0  0
    1.6695   -4.4757   -6.6222 C   0  0  0  0  0  0  0  0  0  0  0  0
   -0.1061   -3.3299   -2.6431 N   0  0  0  0  0  0  0  0  0  0  0  0
   -0.5605   -2.5109   -1.6912 C   0  0  0  0  0  0  0  0  0  0  0  0
    3.2452   -0.0005    1.1352 H   0  0  0  0  0  0  0  0  0  0  0  0
    2.0429    0.0125    3.3219 H   0  0  0  0  0  0  0  0  0  0  0  0
   -0.4402    0.0217    3.3772 H   0  0  0  0  0  0  0  0  0  0  0  0
   -1.7440    0.0186    1.2761 H   0  0  0  0  0  0  0  0  0  0  0  0
   -0.5527    0.9548   -1.8654 H   0  0  0  0  0  0  0  0  0  0  0  0
   -1.8897    0.0497   -1.0840 H   0  0  0  0  0  0  0  0  0  0  0  0
    1.1620    0.3850   -6.0642 H   0  0  0  0  0  0  0  0  0  0  0  0
    0.8612   -4.8496   -4.6707 H   0  0  0  0  0  0  0  0  0  0  0  0
    2.6692   -4.0292   -6.7878 H   0  0  0  0  0  0  0  0  0  0  0  0
    0.9977   -4.2068   -7.4613 H   0  0  0  0  0  0  0  0  0  0  0  0
    1.8048   -5.5796   -6.6603 H   0  0  0  0  0  0  0  0  0  0  0  0
   -0.9512   -2.8104   -0.7228 H   0  0  0  0  0  0  0  0  0  0  0  0
  1  6  1  0  0  0  0
  2  1  2  0  0  0  0
  2  3  1  0  0  0  0
  3  4  2  0  0  0  0
  4  5  1  0  0  0  0
  4 22  1  0  0  0  0
  5 23  1  0  0  0  0
  6 24  1  0  0  0  0
  6  5  2  0  0  0  0
  7  2  1  0  0  0  0
  8 26  1  0  0  0  0
  8  1  1  0  0  0  0
  9 20  1  0  0  0  0
  9  8  1  0  0  0  0
 10  9  1  0  0  0  0
 11 10  1  0  0  0  0
 11 19  2  0  0  0  0
 12 17  1  1  0  0  0
 12 11  1  0  0  0  0
 13 15  1  0  0  0  0
 13 12  1  0  0  0  0
 14 13  1  0  0  0  0
 15 16  2  0  0  0  0
 16 10  2  0  0  0  0
 17 28  1  0  0  0  0
 18 17  1  0  0  0  0
 19 20  2  0  0  0  0
 20 32  1  0  0  0  0
 21  3  1  0  0  0  0
 25  8  1  0  0  0  0
 27 15  1  0  0  0  0
 29 18  1  0  0  0  0
 30 18  1  0  0  0  0
 31 18  1  0  0  0  0
M  RAD  1  12   2
M  END
$$$$
