rmsd155.gzmat
 OpenBabel08211713363D

 32 34  0  0  1  0  0  0  0  0999 V2000
    0.0000    0.0000    0.0000 C   0  0  0  0  0  0  0  0  0  0  0  0
    1.3982    0.0000    0.0000 C   0  0  0  0  0  0  0  0  0  0  0  0
    2.1556    0.0000    1.1686 C   0  0  0  0  0  0  0  0  0  0  0  0
    1.4792   -0.0041    2.3864 C   0  0  0  0  0  0  0  0  0  0  0  0
    0.0836   -0.0059    2.4178 C   0  0  0  0  0  0  0  0  0  0  0  0
   -0.6521   -0.0037    1.2355 C   0  0  0  0  0  0  0  0  0  0  0  0
    2.0302    0.0189   -1.1634 F   0  0  0  0  0  0  0  0  0  0  0  0
   -0.7814   -0.0098   -1.2780 C   0  0  0  0  0  0  0  0  0  0  0  0
   -0.4980    1.2011   -2.0517 N   0  0  0  0  0  0  0  0  0  0  0  0
    0.1160    1.2556   -3.2764 C   0  0  0  0  0  0  0  0  0  0  0  0
    0.3314    2.6454   -3.5558 C   0  0  0  0  0  0  0  0  0  0  0  0
    0.9769    3.0208   -4.7656 C   0  0  2  0  0  0  0  0  0  0  0  0
    1.3312    1.9687   -5.6070 N   0  0  0  0  0  0  0  0  0  0  0  0
    1.8012    2.1608   -6.4931 H   0  0  0  0  0  0  0  0  0  0  0  0
    1.0607    0.6236   -5.2508 C   0  0  0  0  0  0  0  0  0  0  0  0
    0.4783    0.2506   -4.1448 N   0  0  0  0  0  0  0  0  0  0  0  0
    1.2280    4.3040   -5.0625 N   0  0  0  0  0  0  0  0  0  0  0  0
    1.9118    4.7441   -6.2748 C   0  0  0  0  0  0  0  0  0  0  0  0
   -0.1466    3.4066   -2.4976 N   0  0  0  0  0  0  0  0  0  0  0  0
   -0.6303    2.5407   -1.6038 C   0  0  0  0  0  0  0  0  0  0  0  0
    3.2464    0.0000    1.1332 H   0  0  0  0  0  0  0  0  0  0  0  0
    2.0458   -0.0077    3.3215 H   0  0  0  0  0  0  0  0  0  0  0  0
   -0.4360   -0.0144    3.3779 H   0  0  0  0  0  0  0  0  0  0  0  0
   -1.7427   -0.0128    1.2789 H   0  0  0  0  0  0  0  0  0  0  0  0
   -1.8858   -0.0679   -1.0954 H   0  0  0  0  0  0  0  0  0  0  0  0
   -0.5240   -0.9155   -1.8953 H   0  0  0  0  0  0  0  0  0  0  0  0
    1.3822   -0.1399   -5.9911 H   0  0  0  0  0  0  0  0  0  0  0  0
    0.9270    5.0243   -4.3895 H   0  0  0  0  0  0  0  0  0  0  0  0
    1.3272    4.5124   -7.1872 H   0  0  0  0  0  0  0  0  0  0  0  0
    2.9262    4.3085   -6.3620 H   0  0  0  0  0  0  0  0  0  0  0  0
    2.0419    5.8490   -6.2495 H   0  0  0  0  0  0  0  0  0  0  0  0
   -1.0777    2.7921   -0.6463 H   0  0  0  0  0  0  0  0  0  0  0  0
  1  6  1  0  0  0  0
  2  1  2  0  0  0  0
  2  3  1  0  0  0  0
  3  4  2  0  0  0  0
  4  5  1  0  0  0  0
  4 22  1  0  0  0  0
  5 23  1  0  0  0  0
  6 24  1  0  0  0  0
  6  5  2  0  0  0  0
  7  2  1  0  0  0  0
  8 25  1  0  0  0  0
  8  1  1  0  0  0  0
  9 20  1  0  0  0  0
  9  8  1  0  0  0  0
 10  9  1  0  0  0  0
 11 10  1  0  0  0  0
 11 19  2  0  0  0  0
 12 17  1  1  0  0  0
 12 11  1  0  0  0  0
 13 15  1  0  0  0  0
 13 12  1  0  0  0  0
 14 13  1  0  0  0  0
 15 16  2  0  0  0  0
 16 10  2  0  0  0  0
 17 28  1  0  0  0  0
 18 31  1  0  0  0  0
 18 17  1  0  0  0  0
 19 20  2  0  0  0  0
 20 32  1  0  0  0  0
 21  3  1  0  0  0  0
 26  8  1  0  0  0  0
 27 15  1  0  0  0  0
 29 18  1  0  0  0  0
 30 18  1  0  0  0  0
M  RAD  1  12   2
M  END
$$$$
