rmsd24.gzmat
 OpenBabel08211713423D

 56 58  0  0  1  0  0  0  0  0999 V2000
    0.0000    0.0000    0.0000 C   0  0  0  0  0  0  0  0  0  0  0  0
    1.4966    0.0000    0.0000 C   0  0  0  0  0  0  0  0  0  0  0  0
    2.1909    0.0000    1.2113 C   0  0  0  0  0  0  0  0  0  0  0  0
    3.5819    0.0252    1.2226 C   0  0  0  0  0  0  0  0  0  0  0  0
    4.2805    0.0523    0.0167 C   0  0  0  0  0  0  0  0  0  0  0  0
    3.5956    0.0446   -1.1977 C   0  0  0  0  0  0  0  0  0  0  0  0
    2.2039    0.0156   -1.2057 C   0  0  0  0  0  0  0  0  0  0  0  0
    5.7660    0.1105    0.0308 C   0  0  0  0  0  0  0  0  0  0  0  0
    6.5083    1.1417    0.2720 N   0  0  0  0  0  0  0  0  0  0  0  0
    6.4041   -1.1104   -0.1961 N   0  0  0  0  0  0  0  0  0  0  0  0
   -0.5359    1.4012    0.3525 C   0  0  1  0  0  0  0  0  0  0  0  0
   -0.0129    1.7616    1.2739 H   0  0  0  0  0  0  0  0  0  0  0  0
   -0.2994    2.3902   -0.8003 C   0  0  0  0  0  0  0  0  0  0  0  0
   -0.2846    3.8471   -0.3293 C   0  0  0  0  0  0  0  0  0  0  0  0
   -1.6371    4.3075    0.2271 C   0  0  0  0  0  0  0  0  0  0  0  0
   -1.9431    3.6817    1.5943 C   0  0  0  0  0  0  0  0  0  0  0  0
   -2.7118    2.3639    1.4741 C   0  0  2  0  0  0  0  0  0  0  0  0
   -3.7062    2.5802    0.9980 H   0  0  0  0  0  0  0  0  0  0  0  0
   -2.9844    1.7338    2.8576 C   0  0  0  0  0  0  0  0  0  0  0  0
   -1.7282    1.2671    3.5271 C   0  0  0  0  0  0  0  0  0  0  0  0
   -0.9798    2.1469    4.3131 C   0  0  0  0  0  0  0  0  0  0  0  0
    0.2140    1.7248    4.8904 C   0  0  0  0  0  0  0  0  0  0  0  0
    0.6484    0.4136    4.6979 C   0  0  0  0  0  0  0  0  0  0  0  0
   -0.1058   -0.4787    3.9354 C   0  0  0  0  0  0  0  0  0  0  0  0
   -1.2940   -0.0497    3.3519 C   0  0  0  0  0  0  0  0  0  0  0  0
    1.9351   -0.0308    5.2931 C   0  0  0  0  0  0  0  0  0  0  0  0
    2.9206   -0.3610    4.5346 N   0  0  0  0  0  0  0  0  0  0  0  0
    1.9690   -0.0013    6.6945 N   0  0  0  0  0  0  0  0  0  0  0  0
   -2.0258    1.3169    0.6094 C   0  0  0  0  0  0  0  0  0  0  0  0
   -2.6884    0.4187    0.1480 O   0  0  0  0  0  0  0  0  0  0  0  0
   -0.4175   -0.3293   -0.9734 H   0  0  0  0  0  0  0  0  0  0  0  0
   -0.3864   -0.7426    0.7313 H   0  0  0  0  0  0  0  0  0  0  0  0
    1.6546   -0.0229    2.1630 H   0  0  0  0  0  0  0  0  0  0  0  0
    4.1137    0.0159    2.1777 H   0  0  0  0  0  0  0  0  0  0  0  0
    4.1457    0.0673   -2.1364 H   0  0  0  0  0  0  0  0  0  0  0  0
    1.6684    0.0042   -2.1523 H   0  0  0  0  0  0  0  0  0  0  0  0
    6.0894    2.0147    0.5329 H   0  0  0  0  0  0  0  0  0  0  0  0
    5.9093   -1.8269   -0.6803 H   0  0  0  0  0  0  0  0  0  0  0  0
    7.4007   -1.1022   -0.3091 H   0  0  0  0  0  0  0  0  0  0  0  0
   -1.0596    2.2461   -1.5916 H   0  0  0  0  0  0  0  0  0  0  0  0
    0.6747    2.1606   -1.2825 H   0  0  0  0  0  0  0  0  0  0  0  0
    0.5089    3.9891    0.4302 H   0  0  0  0  0  0  0  0  0  0  0  0
    0.0033    4.4990   -1.1785 H   0  0  0  0  0  0  0  0  0  0  0  0
   -1.6326    5.4112    0.3236 H   0  0  0  0  0  0  0  0  0  0  0  0
   -2.4432    4.0801   -0.4952 H   0  0  0  0  0  0  0  0  0  0  0  0
   -1.0011    3.5335    2.1591 H   0  0  0  0  0  0  0  0  0  0  0  0
   -2.5395    4.3914    2.2010 H   0  0  0  0  0  0  0  0  0  0  0  0
   -3.6962    0.8874    2.7306 H   0  0  0  0  0  0  0  0  0  0  0  0
   -3.5207    2.4667    3.4942 H   0  0  0  0  0  0  0  0  0  0  0  0
   -1.3256    3.1665    4.4717 H   0  0  0  0  0  0  0  0  0  0  0  0
    0.8130    2.4170    5.4817 H   0  0  0  0  0  0  0  0  0  0  0  0
    0.2442   -1.5016    3.7875 H   0  0  0  0  0  0  0  0  0  0  0  0
   -1.8833   -0.7400    2.7468 H   0  0  0  0  0  0  0  0  0  0  0  0
    3.8018   -0.6591    4.9090 H   0  0  0  0  0  0  0  0  0  0  0  0
    1.1298    0.1237    7.2171 H   0  0  0  0  0  0  0  0  0  0  0  0
    2.7324   -0.4074    7.1893 H   0  0  0  0  0  0  0  0  0  0  0  0
  1  2  1  0  0  0  0
  1 11  1  0  0  0  0
  1 32  1  0  0  0  0
  2  3  2  0  0  0  0
  3  4  1  0  0  0  0
  3 33  1  0  0  0  0
  4 34  1  0  0  0  0
  5  8  1  0  0  0  0
  5  4  2  0  0  0  0
  6  5  1  0  0  0  0
  7  6  2  0  0  0  0
  7  2  1  0  0  0  0
  8  9  1  0  0  0  0
  9 37  1  0  0  0  0
 10  8  2  0  0  0  0
 11 29  1  0  0  0  0
 11 12  1  1  0  0  0
 13 14  1  0  0  0  0
 13 11  1  0  0  0  0
 14 15  1  0  0  0  0
 14 42  1  0  0  0  0
 15 44  1  0  0  0  0
 15 16  1  0  0  0  0
 16 46  1  0  0  0  0
 16 47  1  0  0  0  0
 17 18  1  6  0  0  0
 17 16  1  0  0  0  0
 17 19  1  0  0  0  0
 19 49  1  0  0  0  0
 19 20  1  0  0  0  0
 20 21  1  0  0  0  0
 21 50  1  0  0  0  0
 21 22  2  0  0  0  0
 22 51  1  0  0  0  0
 23 22  1  0  0  0  0
 23 26  1  0  0  0  0
 24 23  2  0  0  0  0
 25 20  2  0  0  0  0
 25 24  1  0  0  0  0
 26 28  2  0  0  0  0
 27 54  1  0  0  0  0
 27 26  1  0  0  0  0
 28 56  1  0  0  0  0
 28 55  1  0  0  0  0
 29 17  1  0  0  0  0
 30 29  2  0  0  0  0
 31  1  1  0  0  0  0
 35  6  1  0  0  0  0
 36  7  1  0  0  0  0
 38 10  1  0  0  0  0
 39 10  1  0  0  0  0
 40 13  1  0  0  0  0
 41 13  1  0  0  0  0
 43 14  1  0  0  0  0
 45 15  1  0  0  0  0
 48 19  1  0  0  0  0
 52 24  1  0  0  0  0
 53 25  1  0  0  0  0
M  RAD  2   9   2  27   2
M  END
$$$$
