rmsd80.gzmat
 OpenBabel08211713423D

 56 58  0  0  1  0  0  0  0  0999 V2000
    0.0000    0.0000    0.0000 C   0  0  0  0  0  0  0  0  0  0  0  0
    1.4962    0.0000    0.0000 C   0  0  0  0  0  0  0  0  0  0  0  0
    2.1852    0.0000    1.2148 C   0  0  0  0  0  0  0  0  0  0  0  0
    3.5753    0.0094    1.2347 C   0  0  0  0  0  0  0  0  0  0  0  0
    4.2834    0.0198    0.0327 C   0  0  0  0  0  0  0  0  0  0  0  0
    3.6023    0.0253   -1.1843 C   0  0  0  0  0  0  0  0  0  0  0  0
    2.2098    0.0131   -1.2006 C   0  0  0  0  0  0  0  0  0  0  0  0
    5.7694    0.0504    0.0688 C   0  0  0  0  0  0  0  0  0  0  0  0
    6.5194    0.9426    0.6309 N   0  0  0  0  0  0  0  0  0  0  0  0
    6.4042   -1.0405   -0.5281 N   0  0  0  0  0  0  0  0  0  0  0  0
   -0.5348    1.3818    0.4201 C   0  0  1  0  0  0  0  0  0  0  0  0
    0.0032    1.7080    1.3462 H   0  0  0  0  0  0  0  0  0  0  0  0
   -0.3246    2.4203   -0.6937 C   0  0  0  0  0  0  0  0  0  0  0  0
   -0.3036    3.8542   -0.1566 C   0  0  0  0  0  0  0  0  0  0  0  0
   -1.6401    4.2779    0.4644 C   0  0  0  0  0  0  0  0  0  0  0  0
   -1.9014    3.5864    1.8095 C   0  0  0  0  0  0  0  0  0  0  0  0
   -2.6765    2.2761    1.6474 C   0  0  2  0  0  0  0  0  0  0  0  0
   -3.6865    2.5185    1.2198 H   0  0  0  0  0  0  0  0  0  0  0  0
   -2.8989    1.5732    3.0038 C   0  0  0  0  0  0  0  0  0  0  0  0
   -1.6477    0.9447    3.5365 C   0  0  0  0  0  0  0  0  0  0  0  0
   -0.7317    1.7013    4.2703 C   0  0  0  0  0  0  0  0  0  0  0  0
    0.4450    1.1192    4.7328 C   0  0  0  0  0  0  0  0  0  0  0  0
    0.6916   -0.2312    4.4862 C   0  0  0  0  0  0  0  0  0  0  0  0
   -0.2245   -0.9973    3.7633 C   0  0  0  0  0  0  0  0  0  0  0  0
   -1.3912   -0.4076    3.2881 C   0  0  0  0  0  0  0  0  0  0  0  0
    1.9507   -0.8443    4.9817 C   0  0  0  0  0  0  0  0  0  0  0  0
    3.0905   -0.3796    4.6050 N   0  0  0  0  0  0  0  0  0  0  0  0
    1.7687   -1.9542    5.8203 N   0  0  0  0  0  0  0  0  0  0  0  0
   -2.0197    1.2829    0.7009 C   0  0  0  0  0  0  0  0  0  0  0  0
   -2.6968    0.4222    0.1931 O   0  0  0  0  0  0  0  0  0  0  0  0
   -0.4192   -0.2852   -0.9863 H   0  0  0  0  0  0  0  0  0  0  0  0
   -0.3837   -0.7770    0.6974 H   0  0  0  0  0  0  0  0  0  0  0  0
    1.6387   -0.0053    2.1595 H   0  0  0  0  0  0  0  0  0  0  0  0
    4.1000    0.0048    2.1947 H   0  0  0  0  0  0  0  0  0  0  0  0
    4.1543    0.0486   -2.1216 H   0  0  0  0  0  0  0  0  0  0  0  0
    1.6799    0.0103   -2.1504 H   0  0  0  0  0  0  0  0  0  0  0  0
    6.1044    1.6860    1.1615 H   0  0  0  0  0  0  0  0  0  0  0  0
    5.9154   -1.5681   -1.2165 H   0  0  0  0  0  0  0  0  0  0  0  0
    7.4029   -1.0074   -0.6165 H   0  0  0  0  0  0  0  0  0  0  0  0
   -1.1021    2.3090   -1.4734 H   0  0  0  0  0  0  0  0  0  0  0  0
    0.6386    2.2142   -1.2070 H   0  0  0  0  0  0  0  0  0  0  0  0
    0.5129    3.9673    0.5836 H   0  0  0  0  0  0  0  0  0  0  0  0
   -0.0479    4.5471   -0.9831 H   0  0  0  0  0  0  0  0  0  0  0  0
   -1.6387    5.3759    0.6121 H   0  0  0  0  0  0  0  0  0  0  0  0
   -2.4671    4.0786   -0.2424 H   0  0  0  0  0  0  0  0  0  0  0  0
   -0.9423    3.4105    2.3358 H   0  0  0  0  0  0  0  0  0  0  0  0
   -2.4772    4.2657    2.4689 H   0  0  0  0  0  0  0  0  0  0  0  0
   -3.6955    0.8059    2.8805 H   0  0  0  0  0  0  0  0  0  0  0  0
   -3.3127    2.3004    3.7320 H   0  0  0  0  0  0  0  0  0  0  0  0
   -0.9327    2.7500    4.4799 H   0  0  0  0  0  0  0  0  0  0  0  0
    1.1797    1.7165    5.2749 H   0  0  0  0  0  0  0  0  0  0  0  0
   -0.0187   -2.0491    3.5602 H   0  0  0  0  0  0  0  0  0  0  0  0
   -2.1035   -0.9987    2.7109 H   0  0  0  0  0  0  0  0  0  0  0  0
    3.9551   -0.7762    4.9238 H   0  0  0  0  0  0  0  0  0  0  0  0
    0.8679   -2.1572    6.1960 H   0  0  0  0  0  0  0  0  0  0  0  0
    2.5411   -2.3363    6.3210 H   0  0  0  0  0  0  0  0  0  0  0  0
  1  2  1  0  0  0  0
  1 11  1  0  0  0  0
  1 32  1  0  0  0  0
  2  3  2  0  0  0  0
  3  4  1  0  0  0  0
  3 33  1  0  0  0  0
  4 34  1  0  0  0  0
  5  8  1  0  0  0  0
  5  4  2  0  0  0  0
  6  5  1  0  0  0  0
  7  6  2  0  0  0  0
  7  2  1  0  0  0  0
  8  9  1  0  0  0  0
  9 37  1  0  0  0  0
 10  8  2  0  0  0  0
 11 29  1  0  0  0  0
 11 12  1  1  0  0  0
 13 14  1  0  0  0  0
 13 11  1  0  0  0  0
 14 15  1  0  0  0  0
 14 42  1  0  0  0  0
 15 44  1  0  0  0  0
 15 16  1  0  0  0  0
 16 46  1  0  0  0  0
 16 47  1  0  0  0  0
 17 18  1  6  0  0  0
 17 16  1  0  0  0  0
 17 19  1  0  0  0  0
 19 20  1  0  0  0  0
 19 49  1  0  0  0  0
 20 21  1  0  0  0  0
 21 50  1  0  0  0  0
 21 22  2  0  0  0  0
 22 51  1  0  0  0  0
 23 22  1  0  0  0  0
 23 26  1  0  0  0  0
 24 23  2  0  0  0  0
 25 20  2  0  0  0  0
 25 24  1  0  0  0  0
 26 28  2  0  0  0  0
 27 54  1  0  0  0  0
 27 26  1  0  0  0  0
 28 55  1  0  0  0  0
 28 56  1  0  0  0  0
 29 17  1  0  0  0  0
 30 29  2  0  0  0  0
 31  1  1  0  0  0  0
 35  6  1  0  0  0  0
 36  7  1  0  0  0  0
 38 10  1  0  0  0  0
 39 10  1  0  0  0  0
 40 13  1  0  0  0  0
 41 13  1  0  0  0  0
 43 14  1  0  0  0  0
 45 15  1  0  0  0  0
 48 19  1  0  0  0  0
 52 24  1  0  0  0  0
 53 25  1  0  0  0  0
M  RAD  2   9   2  27   2
M  END
$$$$
