56
rmsd74.gzmat
C          0.00000        0.00000        0.00000
C          1.49650        0.00000        0.00000
C          2.18950        0.00000        1.21240
C          3.58010        0.01860        1.22710
C          4.28050        0.03860        0.02200
C          3.59750        0.03550       -1.19320
C          2.20540        0.01460       -1.20380
C          5.76650        0.08880        0.03720
N          6.51410        1.13370        0.18170
N          6.39760       -1.15180       -0.06910
C         -0.53710        1.34860        0.51260
H         -0.03280        1.58910        1.48270
C         -0.27300        2.47450       -0.49990
C         -0.25900        3.85630        0.16050
C         -1.61050        4.24070        0.77510
C         -1.92570        3.43700        2.04460
C         -2.70930        2.15680        1.74140
H         -3.70420        2.44940        1.31010
C         -2.97680        1.33400        3.02050
C         -1.75380        0.61400        3.50060
C         -0.82500        1.25950        4.31940
C          0.33470        0.59960        4.71600
C          0.55430       -0.71830        4.31370
C         -0.38030       -1.37690        3.51290
C         -1.53190       -0.71020        3.10840
C          1.81140       -1.40150        4.71280
N          2.94840       -0.85290        4.45960
N          1.63830       -2.65910        5.31020
C         -2.03290        1.24860        0.72500
O         -2.70250        0.45700        0.10640
H         -0.41910       -0.21510       -1.00430
H         -0.38290       -0.82280        0.64280
H          1.64740       -0.01580        2.16020
H          4.11180        0.01280        2.18230
H          4.14940        0.05460       -2.13100
H          1.67190        0.00870       -2.15160
H          6.10070        2.03070        0.35570
H          5.90130       -1.90880       -0.48480
H          7.39500       -1.15970       -0.17500
H         -1.02020        2.44080       -1.31540
H          0.70750        2.29900       -0.99170
H          0.53470        3.89640        0.93230
H          0.02810        4.61490       -0.59510
H         -1.60140        5.32120        1.01940
H         -2.41680        4.11670        0.02850
H         -0.98790        3.20240        2.58560
H         -2.51650        4.06370        2.74180
H         -3.79620        0.61030        2.81340
H         -3.37710        2.00050        3.81140
H         -1.00170        2.28250        4.64570
H          1.08160        1.11210        5.32480
H         -0.20010       -2.40310        3.19050
H         -2.25820       -1.21610        2.47090
H          3.81650       -1.29120        4.70280
H          0.73850       -2.94240        5.63230
H          2.41270       -3.12350        5.73190
