rmsd74.gzmat
 OpenBabel08211713423D

 56 58  0  0  1  0  0  0  0  0999 V2000
    0.0000    0.0000    0.0000 C   0  0  0  0  0  0  0  0  0  0  0  0
    1.4965    0.0000    0.0000 C   0  0  0  0  0  0  0  0  0  0  0  0
    2.1895    0.0000    1.2124 C   0  0  0  0  0  0  0  0  0  0  0  0
    3.5801    0.0186    1.2271 C   0  0  0  0  0  0  0  0  0  0  0  0
    4.2805    0.0386    0.0220 C   0  0  0  0  0  0  0  0  0  0  0  0
    3.5975    0.0355   -1.1932 C   0  0  0  0  0  0  0  0  0  0  0  0
    2.2054    0.0146   -1.2038 C   0  0  0  0  0  0  0  0  0  0  0  0
    5.7665    0.0888    0.0372 C   0  0  0  0  0  0  0  0  0  0  0  0
    6.5141    1.1337    0.1817 N   0  0  0  0  0  0  0  0  0  0  0  0
    6.3976   -1.1518   -0.0691 N   0  0  0  0  0  0  0  0  0  0  0  0
   -0.5371    1.3486    0.5126 C   0  0  1  0  0  0  0  0  0  0  0  0
   -0.0328    1.5891    1.4827 H   0  0  0  0  0  0  0  0  0  0  0  0
   -0.2730    2.4745   -0.4999 C   0  0  0  0  0  0  0  0  0  0  0  0
   -0.2590    3.8563    0.1605 C   0  0  0  0  0  0  0  0  0  0  0  0
   -1.6105    4.2407    0.7751 C   0  0  0  0  0  0  0  0  0  0  0  0
   -1.9257    3.4370    2.0446 C   0  0  0  0  0  0  0  0  0  0  0  0
   -2.7093    2.1568    1.7414 C   0  0  2  0  0  0  0  0  0  0  0  0
   -3.7042    2.4494    1.3101 H   0  0  0  0  0  0  0  0  0  0  0  0
   -2.9768    1.3340    3.0205 C   0  0  0  0  0  0  0  0  0  0  0  0
   -1.7538    0.6140    3.5006 C   0  0  0  0  0  0  0  0  0  0  0  0
   -0.8250    1.2595    4.3194 C   0  0  0  0  0  0  0  0  0  0  0  0
    0.3347    0.5996    4.7160 C   0  0  0  0  0  0  0  0  0  0  0  0
    0.5543   -0.7183    4.3137 C   0  0  0  0  0  0  0  0  0  0  0  0
   -0.3803   -1.3769    3.5129 C   0  0  0  0  0  0  0  0  0  0  0  0
   -1.5319   -0.7102    3.1084 C   0  0  0  0  0  0  0  0  0  0  0  0
    1.8114   -1.4015    4.7128 C   0  0  0  0  0  0  0  0  0  0  0  0
    2.9484   -0.8529    4.4596 N   0  0  0  0  0  0  0  0  0  0  0  0
    1.6383   -2.6591    5.3102 N   0  0  0  0  0  0  0  0  0  0  0  0
   -2.0329    1.2486    0.7250 C   0  0  0  0  0  0  0  0  0  0  0  0
   -2.7025    0.4570    0.1064 O   0  0  0  0  0  0  0  0  0  0  0  0
   -0.4191   -0.2151   -1.0043 H   0  0  0  0  0  0  0  0  0  0  0  0
   -0.3829   -0.8228    0.6428 H   0  0  0  0  0  0  0  0  0  0  0  0
    1.6474   -0.0158    2.1602 H   0  0  0  0  0  0  0  0  0  0  0  0
    4.1118    0.0128    2.1823 H   0  0  0  0  0  0  0  0  0  0  0  0
    4.1494    0.0546   -2.1310 H   0  0  0  0  0  0  0  0  0  0  0  0
    1.6719    0.0087   -2.1516 H   0  0  0  0  0  0  0  0  0  0  0  0
    6.1007    2.0307    0.3557 H   0  0  0  0  0  0  0  0  0  0  0  0
    5.9013   -1.9088   -0.4848 H   0  0  0  0  0  0  0  0  0  0  0  0
    7.3950   -1.1597   -0.1750 H   0  0  0  0  0  0  0  0  0  0  0  0
   -1.0202    2.4408   -1.3154 H   0  0  0  0  0  0  0  0  0  0  0  0
    0.7075    2.2990   -0.9917 H   0  0  0  0  0  0  0  0  0  0  0  0
    0.5347    3.8964    0.9323 H   0  0  0  0  0  0  0  0  0  0  0  0
    0.0281    4.6149   -0.5951 H   0  0  0  0  0  0  0  0  0  0  0  0
   -1.6014    5.3212    1.0194 H   0  0  0  0  0  0  0  0  0  0  0  0
   -2.4168    4.1167    0.0285 H   0  0  0  0  0  0  0  0  0  0  0  0
   -0.9879    3.2024    2.5856 H   0  0  0  0  0  0  0  0  0  0  0  0
   -2.5165    4.0637    2.7418 H   0  0  0  0  0  0  0  0  0  0  0  0
   -3.7962    0.6103    2.8134 H   0  0  0  0  0  0  0  0  0  0  0  0
   -3.3771    2.0005    3.8114 H   0  0  0  0  0  0  0  0  0  0  0  0
   -1.0017    2.2825    4.6457 H   0  0  0  0  0  0  0  0  0  0  0  0
    1.0816    1.1121    5.3248 H   0  0  0  0  0  0  0  0  0  0  0  0
   -0.2001   -2.4031    3.1905 H   0  0  0  0  0  0  0  0  0  0  0  0
   -2.2582   -1.2161    2.4709 H   0  0  0  0  0  0  0  0  0  0  0  0
    3.8165   -1.2912    4.7028 H   0  0  0  0  0  0  0  0  0  0  0  0
    0.7385   -2.9424    5.6323 H   0  0  0  0  0  0  0  0  0  0  0  0
    2.4127   -3.1235    5.7319 H   0  0  0  0  0  0  0  0  0  0  0  0
  1  2  1  0  0  0  0
  1 11  1  0  0  0  0
  1 32  1  0  0  0  0
  2  3  2  0  0  0  0
  3  4  1  0  0  0  0
  3 33  1  0  0  0  0
  4 34  1  0  0  0  0
  5  8  1  0  0  0  0
  5  4  2  0  0  0  0
  6  5  1  0  0  0  0
  7  6  2  0  0  0  0
  7  2  1  0  0  0  0
  8  9  1  0  0  0  0
  9 37  1  0  0  0  0
 10  8  2  0  0  0  0
 11 29  1  0  0  0  0
 11 12  1  1  0  0  0
 13 14  1  0  0  0  0
 13 11  1  0  0  0  0
 14 15  1  0  0  0  0
 14 42  1  0  0  0  0
 15 44  1  0  0  0  0
 15 16  1  0  0  0  0
 16 46  1  0  0  0  0
 16 47  1  0  0  0  0
 17 18  1  6  0  0  0
 17 16  1  0  0  0  0
 17 19  1  0  0  0  0
 19 20  1  0  0  0  0
 19 49  1  0  0  0  0
 20 21  1  0  0  0  0
 21 50  1  0  0  0  0
 21 22  2  0  0  0  0
 22 51  1  0  0  0  0
 23 26  1  0  0  0  0
 23 22  1  0  0  0  0
 24 23  2  0  0  0  0
 25 20  2  0  0  0  0
 25 24  1  0  0  0  0
 26 28  2  0  0  0  0
 27 54  1  0  0  0  0
 27 26  1  0  0  0  0
 28 55  1  0  0  0  0
 28 56  1  0  0  0  0
 29 17  1  0  0  0  0
 30 29  2  0  0  0  0
 31  1  1  0  0  0  0
 35  6  1  0  0  0  0
 36  7  1  0  0  0  0
 38 10  1  0  0  0  0
 39 10  1  0  0  0  0
 40 13  1  0  0  0  0
 41 13  1  0  0  0  0
 43 14  1  0  0  0  0
 45 15  1  0  0  0  0
 48 19  1  0  0  0  0
 52 24  1  0  0  0  0
 53 25  1  0  0  0  0
M  RAD  2   9   2  27   2
M  END
$$$$
