56
rmsd153.gzmat
C          0.00000        0.00000        0.00000
C          1.49660        0.00000        0.00000
C          2.19850        0.00000        1.20750
C          3.58880       -0.02570        1.21300
C          4.28460       -0.06290        0.00480
C          3.59090       -0.05550       -1.20560
C          2.19950       -0.02170       -1.20770
C          5.76970       -0.10680       -0.00380
N          6.57880        0.69300       -0.61920
N          6.33540       -1.11160        0.78730
C         -0.56540        1.20110        0.77640
H         -0.05900        1.25850        1.77320
C         -0.33990        2.51410        0.01100
C         -0.37260        3.73630        0.93400
C         -1.72800        3.93140        1.62510
C         -1.98350        2.88210        2.71640
C         -2.73170        1.65970        2.17740
H         -3.75100        1.99200        1.84330
C         -2.92270        0.57820        3.26270
C         -1.65050       -0.14930        3.57340
C         -0.74500        0.36680        4.50290
C          0.46290       -0.28410        4.73780
C          0.75600       -1.46840        4.06070
C         -0.15690       -2.00450        3.15080
C         -1.35770       -1.34520        2.91020
C          2.06460       -2.13380        4.28660
N          3.15560       -1.46110        4.16460
N          1.99230       -3.50710        4.56880
C         -2.05500        1.01530        0.97650
O         -2.71560        0.35730        0.21020
H         -0.41730       -0.00810       -1.02860
H         -0.36840       -0.94670        0.45580
H          1.66560        0.00720        2.16040
H          4.12670       -0.02390        2.16630
H          4.13610       -0.08280       -2.14840
H          1.66010       -0.01780       -2.15250
H          6.22420        1.48860       -1.11540
H          5.78470       -1.91480        0.99900
H          7.32520       -1.25620        0.71350
H         -1.08560        2.61930       -0.80010
H          0.64610        2.47090       -0.49870
H          0.43190        3.65750        1.69100
H         -0.13040        4.64220        0.34290
H         -1.76140        4.94270        2.07560
H         -2.54160        3.91810        0.87580
H         -1.02480        2.57940        3.18140
H         -2.57490        3.33450        3.53600
H         -3.70350       -0.13610        2.91930
H         -3.34260        1.04470        4.17680
H         -0.97710        1.28280        5.04290
H          1.18950        0.13550        5.43600
H          0.07850       -2.92500        2.61510
H         -2.06740       -1.75500        2.19050
H          4.05730       -1.88110        4.28490
H          1.11840       -3.92150        4.81270
H          2.80040       -3.99260        4.89230
