56
rmsd24.gzmat
C          0.00000        0.00000        0.00000
C          1.49660        0.00000        0.00000
C          2.19090        0.00000        1.21130
C          3.58190        0.02520        1.22260
C          4.28050        0.05230        0.01670
C          3.59560        0.04460       -1.19770
C          2.20390        0.01560       -1.20570
C          5.76600        0.11050        0.03080
N          6.50830        1.14170        0.27200
N          6.40410       -1.11040       -0.19610
C         -0.53590        1.40120        0.35250
H         -0.01290        1.76160        1.27390
C         -0.29940        2.39020       -0.80030
C         -0.28460        3.84710       -0.32930
C         -1.63710        4.30750        0.22710
C         -1.94310        3.68170        1.59430
C         -2.71180        2.36390        1.47410
H         -3.70620        2.58020        0.99800
C         -2.98440        1.73380        2.85760
C         -1.72820        1.26710        3.52710
C         -0.97980        2.14690        4.31310
C          0.21400        1.72480        4.89040
C          0.64840        0.41360        4.69790
C         -0.10580       -0.47870        3.93540
C         -1.29400       -0.04970        3.35190
C          1.93510       -0.03080        5.29310
N          2.92060       -0.36100        4.53460
N          1.96900       -0.00130        6.69450
C         -2.02580        1.31690        0.60940
O         -2.68840        0.41870        0.14800
H         -0.41750       -0.32930       -0.97340
H         -0.38640       -0.74260        0.73130
H          1.65460       -0.02290        2.16300
H          4.11370        0.01590        2.17770
H          4.14570        0.06730       -2.13640
H          1.66840        0.00420       -2.15230
H          6.08940        2.01470        0.53290
H          5.90930       -1.82690       -0.68030
H          7.40070       -1.10220       -0.30910
H         -1.05960        2.24610       -1.59160
H          0.67470        2.16060       -1.28250
H          0.50890        3.98910        0.43020
H          0.00330        4.49900       -1.17850
H         -1.63260        5.41120        0.32360
H         -2.44320        4.08010       -0.49520
H         -1.00110        3.53350        2.15910
H         -2.53950        4.39140        2.20100
H         -3.69620        0.88740        2.73060
H         -3.52070        2.46670        3.49420
H         -1.32560        3.16650        4.47170
H          0.81300        2.41700        5.48170
H          0.24420       -1.50160        3.78750
H         -1.88330       -0.74000        2.74680
H          3.80180       -0.65910        4.90900
H          1.12980        0.12370        7.21710
H          2.73240       -0.40740        7.18930
