rmsd153.gzmat
 OpenBabel08211713423D

 56 58  0  0  1  0  0  0  0  0999 V2000
    0.0000    0.0000    0.0000 C   0  0  0  0  0  0  0  0  0  0  0  0
    1.4966    0.0000    0.0000 C   0  0  0  0  0  0  0  0  0  0  0  0
    2.1985    0.0000    1.2075 C   0  0  0  0  0  0  0  0  0  0  0  0
    3.5888   -0.0257    1.2130 C   0  0  0  0  0  0  0  0  0  0  0  0
    4.2846   -0.0629    0.0048 C   0  0  0  0  0  0  0  0  0  0  0  0
    3.5909   -0.0555   -1.2056 C   0  0  0  0  0  0  0  0  0  0  0  0
    2.1995   -0.0217   -1.2077 C   0  0  0  0  0  0  0  0  0  0  0  0
    5.7697   -0.1068   -0.0038 C   0  0  0  0  0  0  0  0  0  0  0  0
    6.5788    0.6930   -0.6192 N   0  0  0  0  0  0  0  0  0  0  0  0
    6.3354   -1.1116    0.7873 N   0  0  0  0  0  0  0  0  0  0  0  0
   -0.5654    1.2011    0.7764 C   0  0  1  0  0  0  0  0  0  0  0  0
   -0.0590    1.2585    1.7732 H   0  0  0  0  0  0  0  0  0  0  0  0
   -0.3399    2.5141    0.0110 C   0  0  0  0  0  0  0  0  0  0  0  0
   -0.3726    3.7363    0.9340 C   0  0  0  0  0  0  0  0  0  0  0  0
   -1.7280    3.9314    1.6251 C   0  0  0  0  0  0  0  0  0  0  0  0
   -1.9835    2.8821    2.7164 C   0  0  0  0  0  0  0  0  0  0  0  0
   -2.7317    1.6597    2.1774 C   0  0  2  0  0  0  0  0  0  0  0  0
   -3.7510    1.9920    1.8433 H   0  0  0  0  0  0  0  0  0  0  0  0
   -2.9227    0.5782    3.2627 C   0  0  0  0  0  0  0  0  0  0  0  0
   -1.6505   -0.1493    3.5734 C   0  0  0  0  0  0  0  0  0  0  0  0
   -0.7450    0.3668    4.5029 C   0  0  0  0  0  0  0  0  0  0  0  0
    0.4629   -0.2841    4.7378 C   0  0  0  0  0  0  0  0  0  0  0  0
    0.7560   -1.4684    4.0607 C   0  0  0  0  0  0  0  0  0  0  0  0
   -0.1569   -2.0045    3.1508 C   0  0  0  0  0  0  0  0  0  0  0  0
   -1.3577   -1.3452    2.9102 C   0  0  0  0  0  0  0  0  0  0  0  0
    2.0646   -2.1338    4.2866 C   0  0  0  0  0  0  0  0  0  0  0  0
    3.1556   -1.4611    4.1646 N   0  0  0  0  0  0  0  0  0  0  0  0
    1.9923   -3.5071    4.5688 N   0  0  0  0  0  0  0  0  0  0  0  0
   -2.0550    1.0153    0.9765 C   0  0  0  0  0  0  0  0  0  0  0  0
   -2.7156    0.3573    0.2102 O   0  0  0  0  0  0  0  0  0  0  0  0
   -0.4173   -0.0081   -1.0286 H   0  0  0  0  0  0  0  0  0  0  0  0
   -0.3684   -0.9467    0.4558 H   0  0  0  0  0  0  0  0  0  0  0  0
    1.6656    0.0072    2.1604 H   0  0  0  0  0  0  0  0  0  0  0  0
    4.1267   -0.0239    2.1663 H   0  0  0  0  0  0  0  0  0  0  0  0
    4.1361   -0.0828   -2.1484 H   0  0  0  0  0  0  0  0  0  0  0  0
    1.6601   -0.0178   -2.1525 H   0  0  0  0  0  0  0  0  0  0  0  0
    6.2242    1.4886   -1.1154 H   0  0  0  0  0  0  0  0  0  0  0  0
    5.7847   -1.9148    0.9990 H   0  0  0  0  0  0  0  0  0  0  0  0
    7.3252   -1.2562    0.7135 H   0  0  0  0  0  0  0  0  0  0  0  0
   -1.0856    2.6193   -0.8001 H   0  0  0  0  0  0  0  0  0  0  0  0
    0.6461    2.4709   -0.4987 H   0  0  0  0  0  0  0  0  0  0  0  0
    0.4319    3.6575    1.6910 H   0  0  0  0  0  0  0  0  0  0  0  0
   -0.1304    4.6422    0.3429 H   0  0  0  0  0  0  0  0  0  0  0  0
   -1.7614    4.9427    2.0756 H   0  0  0  0  0  0  0  0  0  0  0  0
   -2.5416    3.9181    0.8758 H   0  0  0  0  0  0  0  0  0  0  0  0
   -1.0248    2.5794    3.1814 H   0  0  0  0  0  0  0  0  0  0  0  0
   -2.5749    3.3345    3.5360 H   0  0  0  0  0  0  0  0  0  0  0  0
   -3.7035   -0.1361    2.9193 H   0  0  0  0  0  0  0  0  0  0  0  0
   -3.3426    1.0447    4.1768 H   0  0  0  0  0  0  0  0  0  0  0  0
   -0.9771    1.2828    5.0429 H   0  0  0  0  0  0  0  0  0  0  0  0
    1.1895    0.1355    5.4360 H   0  0  0  0  0  0  0  0  0  0  0  0
    0.0785   -2.9250    2.6151 H   0  0  0  0  0  0  0  0  0  0  0  0
   -2.0674   -1.7550    2.1905 H   0  0  0  0  0  0  0  0  0  0  0  0
    4.0573   -1.8811    4.2849 H   0  0  0  0  0  0  0  0  0  0  0  0
    1.1184   -3.9215    4.8127 H   0  0  0  0  0  0  0  0  0  0  0  0
    2.8004   -3.9926    4.8923 H   0  0  0  0  0  0  0  0  0  0  0  0
  1  2  1  0  0  0  0
  1 32  1  0  0  0  0
  1 11  1  0  0  0  0
  2  3  2  0  0  0  0
  3  4  1  0  0  0  0
  3 33  1  0  0  0  0
  4 34  1  0  0  0  0
  5  4  2  0  0  0  0
  6  5  1  0  0  0  0
  7  6  2  0  0  0  0
  7  2  1  0  0  0  0
  8  5  1  0  0  0  0
  8 10  2  0  0  0  0
  9  8  1  0  0  0  0
 10 38  1  0  0  0  0
 11 29  1  0  0  0  0
 11 12  1  1  0  0  0
 13 11  1  0  0  0  0
 13 14  1  0  0  0  0
 14 15  1  0  0  0  0
 14 42  1  0  0  0  0
 15 44  1  0  0  0  0
 15 16  1  0  0  0  0
 16 46  1  0  0  0  0
 16 47  1  0  0  0  0
 17 18  1  6  0  0  0
 17 16  1  0  0  0  0
 17 19  1  0  0  0  0
 19 20  1  0  0  0  0
 19 49  1  0  0  0  0
 20 21  2  0  0  0  0
 21 22  1  0  0  0  0
 21 50  1  0  0  0  0
 22 51  1  0  0  0  0
 23 26  1  0  0  0  0
 23 22  2  0  0  0  0
 24 23  1  0  0  0  0
 25 24  2  0  0  0  0
 25 20  1  0  0  0  0
 26 28  2  0  0  0  0
 27 54  1  0  0  0  0
 27 26  1  0  0  0  0
 28 55  1  0  0  0  0
 28 56  1  0  0  0  0
 29 17  1  0  0  0  0
 30 29  2  0  0  0  0
 31  1  1  0  0  0  0
 35  6  1  0  0  0  0
 36  7  1  0  0  0  0
 37  9  1  0  0  0  0
 39 10  1  0  0  0  0
 40 13  1  0  0  0  0
 41 13  1  0  0  0  0
 43 14  1  0  0  0  0
 45 15  1  0  0  0  0
 48 19  1  0  0  0  0
 52 24  1  0  0  0  0
 53 25  1  0  0  0  0
M  RAD  2   9   2  27   2
M  END
$$$$
