rmsd27.gzmat
 OpenBabel08211713423D

 56 58  0  0  1  0  0  0  0  0999 V2000
    0.0000    0.0000    0.0000 C   0  0  0  0  0  0  0  0  0  0  0  0
    1.4967    0.0000    0.0000 C   0  0  0  0  0  0  0  0  0  0  0  0
    2.1906    0.0000    1.2116 C   0  0  0  0  0  0  0  0  0  0  0  0
    3.5814    0.0386    1.2223 C   0  0  0  0  0  0  0  0  0  0  0  0
    4.2800    0.0828    0.0164 C   0  0  0  0  0  0  0  0  0  0  0  0
    3.5941    0.0697   -1.1979 C   0  0  0  0  0  0  0  0  0  0  0  0
    2.2033    0.0228   -1.2059 C   0  0  0  0  0  0  0  0  0  0  0  0
    5.7634    0.1648    0.0144 C   0  0  0  0  0  0  0  0  0  0  0  0
    6.4948    1.1466   -0.4022 N   0  0  0  0  0  0  0  0  0  0  0  0
    6.4177   -0.9358    0.5772 N   0  0  0  0  0  0  0  0  0  0  0  0
   -0.5285    1.3964    0.3807 C   0  0  1  0  0  0  0  0  0  0  0  0
    0.0016    1.7368    1.3058 H   0  0  0  0  0  0  0  0  0  0  0  0
   -0.2930    2.4055   -0.7547 C   0  0  0  0  0  0  0  0  0  0  0  0
   -0.2523    3.8517   -0.2530 C   0  0  0  0  0  0  0  0  0  0  0  0
   -1.5885    4.3191    0.3360 C   0  0  0  0  0  0  0  0  0  0  0  0
   -1.8915    3.6558    1.6865 C   0  0  0  0  0  0  0  0  0  0  0  0
   -2.6888    2.3587    1.5286 C   0  0  2  0  0  0  0  0  0  0  0  0
   -3.6738    2.6088    1.0501 H   0  0  0  0  0  0  0  0  0  0  0  0
   -2.9848    1.7013    2.8941 C   0  0  0  0  0  0  0  0  0  0  0  0
   -1.7450    1.1743    3.5488 C   0  0  0  0  0  0  0  0  0  0  0  0
   -0.9725    2.0002    4.3689 C   0  0  0  0  0  0  0  0  0  0  0  0
    0.2037    1.5182    4.9356 C   0  0  0  0  0  0  0  0  0  0  0  0
    0.5987    0.2028    4.6929 C   0  0  0  0  0  0  0  0  0  0  0  0
   -0.1775   -0.6347    3.8913 C   0  0  0  0  0  0  0  0  0  0  0  0
   -1.3507   -0.1479    3.3236 C   0  0  0  0  0  0  0  0  0  0  0  0
    1.8693   -0.3040    5.2727 C   0  0  0  0  0  0  0  0  0  0  0  0
    2.8397   -0.6462    4.5006 N   0  0  0  0  0  0  0  0  0  0  0  0
    1.9072   -0.3139    6.6744 N   0  0  0  0  0  0  0  0  0  0  0  0
   -2.0171    1.3179    0.6446 C   0  0  0  0  0  0  0  0  0  0  0  0
   -2.6890    0.4318    0.1738 O   0  0  0  0  0  0  0  0  0  0  0  0
   -0.4183   -0.3084   -0.9798 H   0  0  0  0  0  0  0  0  0  0  0  0
   -0.3874   -0.7556    0.7171 H   0  0  0  0  0  0  0  0  0  0  0  0
    1.6540   -0.0357    2.1630 H   0  0  0  0  0  0  0  0  0  0  0  0
    4.1158    0.0305    2.1761 H   0  0  0  0  0  0  0  0  0  0  0  0
    4.1453    0.0947   -2.1367 H   0  0  0  0  0  0  0  0  0  0  0  0
    1.6684    0.0032   -2.1528 H   0  0  0  0  0  0  0  0  0  0  0  0
    6.0684    1.9983   -0.7150 H   0  0  0  0  0  0  0  0  0  0  0  0
    5.9525   -1.8185    0.5639 H   0  0  0  0  0  0  0  0  0  0  0  0
    7.4179   -0.9673    0.4923 H   0  0  0  0  0  0  0  0  0  0  0  0
   -1.0644    2.2876   -1.5394 H   0  0  0  0  0  0  0  0  0  0  0  0
    0.6718    2.1721   -1.2538 H   0  0  0  0  0  0  0  0  0  0  0  0
    0.5547    3.9672    0.4969 H   0  0  0  0  0  0  0  0  0  0  0  0
    0.0304    4.5171   -1.0933 H   0  0  0  0  0  0  0  0  0  0  0  0
   -1.5614    5.4188    0.4661 H   0  0  0  0  0  0  0  0  0  0  0  0
   -2.4079    4.1298   -0.3822 H   0  0  0  0  0  0  0  0  0  0  0  0
   -0.9475    3.4692    2.2360 H   0  0  0  0  0  0  0  0  0  0  0  0
   -2.4663    4.3565    2.3234 H   0  0  0  0  0  0  0  0  0  0  0  0
   -3.7222    0.8808    2.7427 H   0  0  0  0  0  0  0  0  0  0  0  0
   -3.4981    2.4324    3.5509 H   0  0  0  0  0  0  0  0  0  0  0  0
   -1.2849    3.0244    4.5621 H   0  0  0  0  0  0  0  0  0  0  0  0
    0.8200    2.1674    5.5572 H   0  0  0  0  0  0  0  0  0  0  0  0
    0.1438   -1.6601    3.7012 H   0  0  0  0  0  0  0  0  0  0  0  0
   -1.9594   -0.7958    2.6912 H   0  0  0  0  0  0  0  0  0  0  0  0
    3.7140   -0.9806    4.8592 H   0  0  0  0  0  0  0  0  0  0  0  0
    1.0727   -0.1788    7.2019 H   0  0  0  0  0  0  0  0  0  0  0  0
    2.6582   -0.7572    7.1564 H   0  0  0  0  0  0  0  0  0  0  0  0
  1  2  1  0  0  0  0
  1 11  1  0  0  0  0
  1 32  1  0  0  0  0
  2  3  2  0  0  0  0
  3  4  1  0  0  0  0
  3 33  1  0  0  0  0
  4 34  1  0  0  0  0
  5  4  2  0  0  0  0
  6  5  1  0  0  0  0
  7  6  2  0  0  0  0
  7  2  1  0  0  0  0
  8  5  1  0  0  0  0
  8 10  2  0  0  0  0
  9  8  1  0  0  0  0
 11 29  1  0  0  0  0
 11 12  1  1  0  0  0
 13 14  1  0  0  0  0
 13 11  1  0  0  0  0
 14 15  1  0  0  0  0
 14 42  1  0  0  0  0
 15 44  1  0  0  0  0
 15 16  1  0  0  0  0
 16 46  1  0  0  0  0
 16 47  1  0  0  0  0
 17 18  1  6  0  0  0
 17 16  1  0  0  0  0
 17 19  1  0  0  0  0
 19 20  1  0  0  0  0
 19 49  1  0  0  0  0
 20 21  1  0  0  0  0
 21 50  1  0  0  0  0
 21 22  2  0  0  0  0
 22 51  1  0  0  0  0
 23 22  1  0  0  0  0
 23 26  1  0  0  0  0
 24 23  2  0  0  0  0
 25 20  2  0  0  0  0
 25 24  1  0  0  0  0
 26 28  2  0  0  0  0
 27 54  1  0  0  0  0
 27 26  1  0  0  0  0
 28 56  1  0  0  0  0
 28 55  1  0  0  0  0
 29 17  1  0  0  0  0
 30 29  2  0  0  0  0
 31  1  1  0  0  0  0
 35  6  1  0  0  0  0
 36  7  1  0  0  0  0
 37  9  1  0  0  0  0
 38 10  1  0  0  0  0
 39 10  1  0  0  0  0
 40 13  1  0  0  0  0
 41 13  1  0  0  0  0
 43 14  1  0  0  0  0
 45 15  1  0  0  0  0
 48 19  1  0  0  0  0
 52 24  1  0  0  0  0
 53 25  1  0  0  0  0
M  RAD  2   9   2  27   2
M  END
$$$$
