
     RDKit          3D

 56 58  0  0  0  0  0  0  0  0999 V2000
   -0.0534    0.0258   -0.0652 C   0  0  0  0  0  0  0  0  0  0  0  0
    1.4547   -0.0120   -0.0355 C   0  0  0  0  0  0  0  0  0  0  0  0
    2.1332   -0.0094    1.1933 C   0  0  0  0  0  0  0  0  0  0  0  0
    3.5244   -0.0299    1.2541 C   0  0  0  0  0  0  0  0  0  0  0  0
    4.2886   -0.0426    0.0751 C   0  0  0  0  0  0  0  0  0  0  0  0
    3.6163   -0.0464   -1.1561 C   0  0  0  0  0  0  0  0  0  0  0  0
    2.2218   -0.0318   -1.2093 C   0  0  0  0  0  0  0  0  0  0  0  0
    5.7847   -0.0426    0.1155 C   0  0  0  0  0  0  0  0  0  0  0  0
    6.5572    0.5134   -0.7453 N   0  0  0  0  0  0  0  0  0  0  0  0
    6.3333   -0.6732    1.2160 N   0  0  0  0  0  0  0  0  0  0  0  0
   -0.6122    1.3537    0.4774 C   0  0  1  0  0  0  0  0  0  0  0  0
   -0.1116    1.5786    1.4329 H   0  0  0  0  0  0  0  0  0  0  0  0
   -0.3376    2.5245   -0.4964 C   0  0  0  0  0  0  0  0  0  0  0  0
   -0.3536    3.9172    0.1327 C   0  0  0  0  0  0  0  0  0  0  0  0
   -1.6515    4.3201    0.8399 C   0  0  0  0  0  0  0  0  0  0  0  0
   -1.9854    3.4805    2.0823 C   0  0  0  0  0  0  0  0  0  0  0  0
   -2.7318    2.1721    1.8003 C   0  0  2  0  0  0  0  0  0  0  0  0
   -3.7277    2.4222    1.3987 H   0  0  0  0  0  0  0  0  0  0  0  0
   -2.9785    1.3294    3.0880 C   0  0  0  0  0  0  0  0  0  0  0  0
   -1.7718    0.5512    3.5584 C   0  0  0  0  0  0  0  0  0  0  0  0
   -0.7561    1.1465    4.3262 C   0  0  0  0  0  0  0  0  0  0  0  0
    0.3998    0.4444    4.6606 C   0  0  0  0  0  0  0  0  0  0  0  0
    0.5612   -0.8911    4.2630 C   0  0  0  0  0  0  0  0  0  0  0  0
   -0.4622   -1.5036    3.5259 C   0  0  0  0  0  0  0  0  0  0  0  0
   -1.6067   -0.7875    3.1730 C   0  0  0  0  0  0  0  0  0  0  0  0
    1.8379   -1.6006    4.5776 C   0  0  0  0  0  0  0  0  0  0  0  0
    2.9240   -0.9192    4.6451 N   0  0  0  0  0  0  0  0  0  0  0  0
    1.7242   -2.9708    4.7113 N   0  0  0  0  0  0  0  0  0  0  0  0
   -2.1054    1.2513    0.7473 C   0  0  0  0  0  0  0  0  0  0  0  0
   -2.8011    0.4412    0.1699 O   0  0  0  0  0  0  0  0  0  0  0  0
   -0.4301   -0.1371   -1.0857 H   0  0  0  0  0  0  0  0  0  0  0  0
   -0.4540   -0.7954    0.5480 H   0  0  0  0  0  0  0  0  0  0  0  0
    1.5693    0.0084    2.1255 H   0  0  0  0  0  0  0  0  0  0  0  0
    4.0071   -0.0207    2.2331 H   0  0  0  0  0  0  0  0  0  0  0  0
    4.1949   -0.0806   -2.0824 H   0  0  0  0  0  0  0  0  0  0  0  0
    1.7179   -0.0467   -2.1796 H   0  0  0  0  0  0  0  0  0  0  0  0
    6.0055    1.0316   -1.4314 H   0  0  0  0  0  0  0  0  0  0  0  0
    5.8288   -1.4620    1.6021 H   0  0  0  0  0  0  0  0  0  0  0  0
    7.3421   -0.7756    1.1762 H   0  0  0  0  0  0  0  0  0  0  0  0
   -1.0628    2.4687   -1.3277 H   0  0  0  0  0  0  0  0  0  0  0  0
    0.6556    2.3582   -0.9429 H   0  0  0  0  0  0  0  0  0  0  0  0
    0.4770    3.9851    0.8586 H   0  0  0  0  0  0  0  0  0  0  0  0
   -0.1298    4.6569   -0.6544 H   0  0  0  0  0  0  0  0  0  0  0  0
   -1.5622    5.3763    1.1427 H   0  0  0  0  0  0  0  0  0  0  0  0
   -2.4968    4.2802    0.1283 H   0  0  0  0  0  0  0  0  0  0  0  0
   -1.0567    3.2836    2.6421 H   0  0  0  0  0  0  0  0  0  0  0  0
   -2.6233    4.0711    2.7608 H   0  0  0  0  0  0  0  0  0  0  0  0
   -3.7957    0.6258    2.8745 H   0  0  0  0  0  0  0  0  0  0  0  0
   -3.3277    2.0109    3.8806 H   0  0  0  0  0  0  0  0  0  0  0  0
   -0.8717    2.1792    4.6635 H   0  0  0  0  0  0  0  0  0  0  0  0
    1.2034    0.9171    5.2267 H   0  0  0  0  0  0  0  0  0  0  0  0
   -0.3431   -2.5328    3.1813 H   0  0  0  0  0  0  0  0  0  0  0  0
   -2.3774   -1.2664    2.5650 H   0  0  0  0  0  0  0  0  0  0  0  0
    3.7239   -1.5121    4.8902 H   0  0  0  0  0  0  0  0  0  0  0  0
    0.8332   -3.3499    5.0087 H   0  0  0  0  0  0  0  0  0  0  0  0
    2.5378   -3.4809    5.0350 H   0  0  0  0  0  0  0  0  0  0  0  0
  1  2  1  0
  1 11  1  0
  1 31  1  0
  1 32  1  0
  2  3  2  0
  2  7  1  0
  3  4  1  0
  3 33  1  0
  4  5  2  0
  4 34  1  0
  5  6  1  0
  5  8  1  0
  6  7  2  0
  6 35  1  0
  7 36  1  0
  8  9  2  0
  8 10  1  0
  9 37  1  0
 10 38  1  0
 10 39  1  0
 11 12  1  1
 11 13  1  0
 11 29  1  0
 13 14  1  0
 13 40  1  0
 13 41  1  0
 14 15  1  0
 14 42  1  0
 14 43  1  0
 15 16  1  0
 15 44  1  0
 15 45  1  0
 16 17  1  0
 16 46  1  0
 16 47  1  0
 17 18  1  6
 17 19  1  0
 17 29  1  0
 19 20  1  0
 19 48  1  0
 19 49  1  0
 20 21  2  0
 20 25  1  0
 21 22  1  0
 21 50  1  0
 22 23  2  0
 22 51  1  0
 23 24  1  0
 23 26  1  0
 24 25  2  0
 24 52  1  0
 25 53  1  0
 26 27  2  0
 26 28  1  0
 27 54  1  0
 28 55  1  0
 28 56  1  0
 29 30  2  0
M  END

