56
rmsd27.gzmat
C          0.00000        0.00000        0.00000
C          1.49670        0.00000        0.00000
C          2.19060        0.00000        1.21160
C          3.58140        0.03860        1.22230
C          4.28000        0.08280        0.01640
C          3.59410        0.06970       -1.19790
C          2.20330        0.02280       -1.20590
C          5.76340        0.16480        0.01440
N          6.49480        1.14660       -0.40220
N          6.41770       -0.93580        0.57720
C         -0.52850        1.39640        0.38070
H          0.00160        1.73680        1.30580
C         -0.29300        2.40550       -0.75470
C         -0.25230        3.85170       -0.25300
C         -1.58850        4.31910        0.33600
C         -1.89150        3.65580        1.68650
C         -2.68880        2.35870        1.52860
H         -3.67380        2.60880        1.05010
C         -2.98480        1.70130        2.89410
C         -1.74500        1.17430        3.54880
C         -0.97250        2.00020        4.36890
C          0.20370        1.51820        4.93560
C          0.59870        0.20280        4.69290
C         -0.17750       -0.63470        3.89130
C         -1.35070       -0.14790        3.32360
C          1.86930       -0.30400        5.27270
N          2.83970       -0.64620        4.50060
N          1.90720       -0.31390        6.67440
C         -2.01710        1.31790        0.64460
O         -2.68900        0.43180        0.17380
H         -0.41830       -0.30840       -0.97980
H         -0.38740       -0.75560        0.71710
H          1.65400       -0.03570        2.16300
H          4.11580        0.03050        2.17610
H          4.14530        0.09470       -2.13670
H          1.66840        0.00320       -2.15280
H          6.06840        1.99830       -0.71500
H          5.95250       -1.81850        0.56390
H          7.41790       -0.96730        0.49230
H         -1.06440        2.28760       -1.53940
H          0.67180        2.17210       -1.25380
H          0.55470        3.96720        0.49690
H          0.03040        4.51710       -1.09330
H         -1.56140        5.41880        0.46610
H         -2.40790        4.12980       -0.38220
H         -0.94750        3.46920        2.23600
H         -2.46630        4.35650        2.32340
H         -3.72220        0.88080        2.74270
H         -3.49810        2.43240        3.55090
H         -1.28490        3.02440        4.56210
H          0.82000        2.16740        5.55720
H          0.14380       -1.66010        3.70120
H         -1.95940       -0.79580        2.69120
H          3.71400       -0.98060        4.85920
H          1.07270       -0.17880        7.20190
H          2.65820       -0.75720        7.15640
