
     RDKit          3D

 56 58  0  0  0  0  0  0  0  0999 V2000
    0.0002    0.0216   -0.1209 C   0  0  0  0  0  0  0  0  0  0  0  0
    1.5070   -0.0294   -0.0930 C   0  0  0  0  0  0  0  0  0  0  0  0
    2.1837   -0.2414    1.1180 C   0  0  0  0  0  0  0  0  0  0  0  0
    3.5753   -0.2753    1.1700 C   0  0  0  0  0  0  0  0  0  0  0  0
    4.3408   -0.0834    0.0085 C   0  0  0  0  0  0  0  0  0  0  0  0
    3.6696    0.1231   -1.2061 C   0  0  0  0  0  0  0  0  0  0  0  0
    2.2756    0.1449   -1.2548 C   0  0  0  0  0  0  0  0  0  0  0  0
    5.8364   -0.0951    0.0502 C   0  0  0  0  0  0  0  0  0  0  0  0
    6.6115    0.6082   -0.6925 N   0  0  0  0  0  0  0  0  0  0  0  0
    6.3819   -0.9191    1.0177 N   0  0  0  0  0  0  0  0  0  0  0  0
   -0.5659    1.3800    0.3416 C   0  0  1  0  0  0  0  0  0  0  0  0
   -0.0794    1.6631    1.2905 H   0  0  0  0  0  0  0  0  0  0  0  0
   -0.2893    2.4920   -0.6988 C   0  0  0  0  0  0  0  0  0  0  0  0
   -0.3469    3.9269   -0.1763 C   0  0  0  0  0  0  0  0  0  0  0  0
   -1.6781    4.3651    0.4403 C   0  0  0  0  0  0  0  0  0  0  0  0
   -2.0508    3.6185    1.7288 C   0  0  0  0  0  0  0  0  0  0  0  0
   -2.7572    2.2758    1.5215 C   0  0  2  0  0  0  0  0  0  0  0  0
   -3.7313    2.4667    1.0409 H   0  0  0  0  0  0  0  0  0  0  0  0
   -3.0731    1.5508    2.8632 C   0  0  0  0  0  0  0  0  0  0  0  0
   -1.8465    1.0167    3.5620 C   0  0  0  0  0  0  0  0  0  0  0  0
   -1.0918    1.8192    4.4296 C   0  0  0  0  0  0  0  0  0  0  0  0
    0.1059    1.3582    4.9786 C   0  0  0  0  0  0  0  0  0  0  0  0
    0.5804    0.0740    4.6752 C   0  0  0  0  0  0  0  0  0  0  0  0
   -0.1894   -0.7477    3.8381 C   0  0  0  0  0  0  0  0  0  0  0  0
   -1.3845   -0.2833    3.2954 C   0  0  0  0  0  0  0  0  0  0  0  0
    1.8959   -0.4198    5.1829 C   0  0  0  0  0  0  0  0  0  0  0  0
    2.5706   -1.2365    4.4570 N   0  0  0  0  0  0  0  0  0  0  0  0
    2.2924    0.1138    6.3936 N   0  0  0  0  0  0  0  0  0  0  0  0
   -2.0643    1.2708    0.5925 C   0  0  0  0  0  0  0  0  0  0  0  0
   -2.7239    0.3852    0.0883 O   0  0  0  0  0  0  0  0  0  0  0  0
   -0.3799   -0.1938   -1.1307 H   0  0  0  0  0  0  0  0  0  0  0  0
   -0.4049   -0.7636    0.5331 H   0  0  0  0  0  0  0  0  0  0  0  0
    1.6279   -0.3962    2.0429 H   0  0  0  0  0  0  0  0  0  0  0  0
    4.0610   -0.4433    2.1323 H   0  0  0  0  0  0  0  0  0  0  0  0
    4.2481    0.2418   -2.1253 H   0  0  0  0  0  0  0  0  0  0  0  0
    1.7725    0.2824   -2.2158 H   0  0  0  0  0  0  0  0  0  0  0  0
    6.0607    1.2433   -1.2733 H   0  0  0  0  0  0  0  0  0  0  0  0
    5.8778   -1.7697    1.2393 H   0  0  0  0  0  0  0  0  0  0  0  0
    7.3901   -1.0172    0.9535 H   0  0  0  0  0  0  0  0  0  0  0  0
   -0.9898    2.3636   -1.5435 H   0  0  0  0  0  0  0  0  0  0  0  0
    0.7183    2.3187   -1.1067 H   0  0  0  0  0  0  0  0  0  0  0  0
    0.4505    4.0608    0.5772 H   0  0  0  0  0  0  0  0  0  0  0  0
   -0.0955    4.6069   -1.0078 H   0  0  0  0  0  0  0  0  0  0  0  0
   -1.6147    5.4429    0.6631 H   0  0  0  0  0  0  0  0  0  0  0  0
   -2.4910    4.2567   -0.3012 H   0  0  0  0  0  0  0  0  0  0  0  0
   -1.1440    3.4863    2.3409 H   0  0  0  0  0  0  0  0  0  0  0  0
   -2.7287    4.2464    2.3311 H   0  0  0  0  0  0  0  0  0  0  0  0
   -3.7611    0.7228    2.6391 H   0  0  0  0  0  0  0  0  0  0  0  0
   -3.6063    2.2596    3.5168 H   0  0  0  0  0  0  0  0  0  0  0  0
   -1.4381    2.8276    4.6684 H   0  0  0  0  0  0  0  0  0  0  0  0
    0.6960    2.0187    5.6174 H   0  0  0  0  0  0  0  0  0  0  0  0
    0.1776   -1.7501    3.6133 H   0  0  0  0  0  0  0  0  0  0  0  0
   -1.9679   -0.9313    2.6371 H   0  0  0  0  0  0  0  0  0  0  0  0
    3.4407   -1.5189    4.9200 H   0  0  0  0  0  0  0  0  0  0  0  0
    1.5742    0.4191    7.0394 H   0  0  0  0  0  0  0  0  0  0  0  0
    3.1248   -0.2695    6.8264 H   0  0  0  0  0  0  0  0  0  0  0  0
  1  2  1  0
  1 11  1  0
  1 31  1  0
  1 32  1  0
  2  3  2  0
  2  7  1  0
  3  4  1  0
  3 33  1  0
  4  5  2  0
  4 34  1  0
  5  6  1  0
  5  8  1  0
  6  7  2  0
  6 35  1  0
  7 36  1  0
  8  9  2  0
  8 10  1  0
  9 37  1  0
 10 38  1  0
 10 39  1  0
 11 12  1  1
 11 13  1  0
 11 29  1  0
 13 14  1  0
 13 40  1  0
 13 41  1  0
 14 15  1  0
 14 42  1  0
 14 43  1  0
 15 16  1  0
 15 44  1  0
 15 45  1  0
 16 17  1  0
 16 46  1  0
 16 47  1  0
 17 18  1  6
 17 19  1  0
 17 29  1  0
 19 20  1  0
 19 48  1  0
 19 49  1  0
 20 21  2  0
 20 25  1  0
 21 22  1  0
 21 50  1  0
 22 23  2  0
 22 51  1  0
 23 24  1  0
 23 26  1  0
 24 25  2  0
 24 52  1  0
 25 53  1  0
 26 27  2  0
 26 28  1  0
 27 54  1  0
 28 55  1  0
 28 56  1  0
 29 30  2  0
M  END

