56
rmsd44.gzmat
C          0.00000        0.00000        0.00000
C          1.49630        0.00000        0.00000
C          2.19400        0.00000        1.20990
C          3.58440       -0.03500        1.21940
C          4.28040       -0.07030        0.01200
C          3.59290       -0.05410       -1.20080
C          2.20110       -0.01750       -1.20600
C          5.76680       -0.11160        0.02350
N          6.57830        0.86800        0.25310
N          6.31980       -1.37670       -0.18920
C         -0.55910        1.28910        0.62650
H         -0.05970        1.45550        1.61430
C         -0.31500        2.50130       -0.28580
C         -0.34260        3.82380        0.48640
C         -1.70690        4.11810        1.12280
C         -1.99880        3.21000        2.32570
C         -2.74790        1.93730        1.92170
H         -3.75460        2.23530        1.52270
C         -2.98050        1.00000        3.12710
C         -1.72490        0.30540        3.55780
C         -0.84050        0.92650        4.44230
C          0.35500        0.30320        4.78800
C          0.65480       -0.95780        4.27100
C         -0.23720       -1.59580        3.40740
C         -1.42440       -0.96350        3.05290
C          1.94840       -1.59870        4.62040
N          3.05100       -0.95550        4.44920
N          1.85110       -2.92040        5.08040
C         -2.05300        1.13980        0.82840
O         -2.70550        0.38900        0.14430
H         -0.41710       -0.13140       -1.01990
H         -0.37300       -0.88210        0.56710
H          1.65630        0.01840        2.16050
H          4.11870       -0.04500        2.17350
H          4.14140       -0.06720       -2.14100
H          1.66430       -0.00860       -2.15200
H          6.22260        1.77120        0.50440
H          5.78090       -2.05860       -0.67660
H          7.31530       -1.43550       -0.30070
H         -1.05410        2.51680       -1.10930
H          0.67430        2.39030       -0.77890
H          0.44680        3.82290        1.26340
H         -0.07500        4.64990       -0.20270
H         -1.73200        5.17630        1.44940
H         -2.50720        4.02710        0.36500
H         -1.05400        2.95830        2.84680
H         -2.60420        3.76330        3.07030
H         -3.76170        0.25600        2.85410
H         -3.41830        1.57940        3.96540
H         -1.08120        1.90200        4.86020
H          1.06730        0.80160        5.44800
H          0.00390       -2.57710        2.99670
H         -2.11650       -1.45350        2.36660
H          3.94210       -1.36390        4.66070
H          0.96730       -3.29710        5.34690
H          2.64840       -3.37460        5.46980
