56
rmsd33.gzmat
C          0.00000        0.00000        0.00000
C          1.49650        0.00000        0.00000
C          2.19080        0.00000        1.21130
C          3.58190        0.00040        1.22230
C          4.28400        0.00000        0.01690
C          3.59610        0.00100       -1.19700
C          2.20430        0.00000       -1.20500
C          5.76980        0.00830        0.01200
N          6.55110        0.86120       -0.56750
N          6.37130       -1.00620        0.76390
C         -0.54590        1.38760        0.38560
H         -0.03070        1.72870        1.31820
C         -0.31310        2.40830       -0.73970
C         -0.31710        3.85190       -0.22860
C         -1.67470        4.27970        0.34190
C         -1.97270        3.61230        1.69160
C         -2.73290        2.29360        1.53020
H         -3.72880        2.51860        1.06110
C         -2.99970        1.61640        2.89170
C         -1.74860        1.08180        3.51860
C         -0.94910        1.90590        4.31430
C          0.23080        1.41470        4.86550
C          0.60240        0.09040        4.63470
C         -0.19580       -0.74240        3.84940
C         -1.37130       -0.24550        3.29520
C          1.86460       -0.43660        5.21450
N          2.81030       -0.84610        4.44420
N          1.92610       -0.38970        6.61560
C         -2.03700        1.28380        0.63070
O         -2.69130        0.40030        0.13110
H         -0.41650       -0.30720       -0.98140
H         -0.38320       -0.76260        0.71340
H          1.65280       -0.01560        2.16230
H          4.11470       -0.00670        2.17700
H          4.14620       -0.00270       -2.13690
H          1.66930       -0.00580       -2.15210
H          6.17000        1.66520       -1.02920
H          5.85680       -1.84640        0.92220
H          7.36700       -1.10680        0.68630
H         -1.06800        2.27840       -1.53870
H          0.66550        2.19980       -1.22230
H          0.47450        3.98390        0.53500
H         -0.03740        4.53050       -1.05950
H         -1.68450        5.38020        0.46740
H         -2.47910        4.06130       -0.38480
H         -1.02920        3.45270        2.25000
H         -2.57240        4.29930        2.32040
H         -3.73990        0.79800        2.74460
H         -3.50120        2.33780        3.56850
H         -1.24590        2.93560        4.50370
H          0.86680        2.06420        5.46690
H          0.11080       -1.77300        3.66220
H         -1.99510       -0.89080        2.67490
H          3.67650       -1.19860        4.80450
H          1.10380       -0.20570        7.14860
H          2.65990       -0.85550        7.10300
