56
rmsd40.gzmat
C          0.00000        0.00000        0.00000
C          1.49670        0.00000        0.00000
C          2.19140        0.00000        1.21150
C          3.58210        0.01550        1.22370
C          4.28250        0.02710        0.01790
C          3.59640        0.01940       -1.19640
C          2.20450        0.00620       -1.20500
C          5.76790        0.06720        0.01760
N          6.52810        1.01790       -0.41910
N          6.38890       -1.03720        0.60970
C         -0.54250        1.34100        0.52740
H         -0.04090        1.57060        1.50110
C         -0.27950        2.47940       -0.47110
C         -0.27410        3.85460        0.20270
C         -1.63130        4.22660        0.81160
C         -1.94670        3.41020        2.07310
C         -2.72400        2.13010        1.75450
H         -3.71770        2.42320        1.32100
C         -2.99360        1.29460        3.02470
C         -1.78150        0.54070        3.48010
C         -0.82590        1.15670        4.29040
C          0.31530        0.46060        4.67890
C          0.48790       -0.86340        4.27610
C         -0.46690       -1.48910        3.47300
C         -1.59970       -0.78590        3.07690
C          1.71210       -1.59780        4.68670
N          2.87390       -1.13540        4.38310
N          1.47260       -2.80860        5.35500
C         -2.03890        1.23290        0.73450
O         -2.70270        0.44020        0.11160
H         -0.41800       -0.20390       -1.00740
H         -0.38120       -0.83130        0.63330
H          1.65160       -0.02040        2.16060
H          4.11590        0.01340        2.17830
H          4.14820        0.02140       -2.13540
H          1.66970       -0.00240       -2.15210
H          6.12700        1.87290       -0.75580
H          5.89740       -1.90500        0.62190
H          7.38800       -1.09930        0.53110
H         -1.02310        2.45140       -1.29010
H          0.70340        2.31360       -0.96090
H          0.51430        3.89040        0.97990
H          0.01510        4.62180       -0.54330
H         -1.63160        5.30530        1.06340
H         -2.43220        4.10210        0.05920
H         -1.00980        3.17330        2.61420
H         -2.54150        4.02780        2.77450
H         -3.83100        0.59180        2.81800
H         -3.36970        1.95760        3.83030
H         -0.96860        2.18430        4.61900
H          1.08010        0.94840        5.28520
H         -0.31770       -2.51900        3.14650
H         -2.34320       -1.26670        2.43980
H          3.71950       -1.61190        4.63240
H          0.56090       -3.01700        5.70180
H          2.22190       -3.29150        5.80000
