rmsd37.gzmat
 OpenBabel08211713423D

 56 58  0  0  1  0  0  0  0  0999 V2000
    0.0000    0.0000    0.0000 C   0  0  0  0  0  0  0  0  0  0  0  0
    1.4964    0.0000    0.0000 C   0  0  0  0  0  0  0  0  0  0  0  0
    2.1944    0.0000    1.2094 C   0  0  0  0  0  0  0  0  0  0  0  0
    3.5857    0.0094    1.2170 C   0  0  0  0  0  0  0  0  0  0  0  0
    4.2822    0.0159    0.0092 C   0  0  0  0  0  0  0  0  0  0  0  0
    3.5924    0.0095   -1.2031 C   0  0  0  0  0  0  0  0  0  0  0  0
    2.2009    0.0019   -1.2072 C   0  0  0  0  0  0  0  0  0  0  0  0
    5.7678    0.0511   -0.0010 C   0  0  0  0  0  0  0  0  0  0  0  0
    6.5262    1.0094   -0.4234 N   0  0  0  0  0  0  0  0  0  0  0  0
    6.3904   -1.0715    0.5545 N   0  0  0  0  0  0  0  0  0  0  0  0
   -0.5499    1.3288    0.5493 C   0  0  1  0  0  0  0  0  0  0  0  0
   -0.0753    1.5272    1.5431 H   0  0  0  0  0  0  0  0  0  0  0  0
   -0.2559    2.4967   -0.4057 C   0  0  0  0  0  0  0  0  0  0  0  0
   -0.2715    3.8504    0.3108 C   0  0  0  0  0  0  0  0  0  0  0  0
   -1.6467    4.2051    0.8902 C   0  0  0  0  0  0  0  0  0  0  0  0
   -1.9991    3.3522    2.1170 C   0  0  0  0  0  0  0  0  0  0  0  0
   -2.7657    2.0817    1.7390 C   0  0  2  0  0  0  0  0  0  0  0  0
   -3.7483    2.3873    1.2893 H   0  0  0  0  0  0  0  0  0  0  0  0
   -3.0664    1.2047    2.9742 C   0  0  0  0  0  0  0  0  0  0  0  0
   -1.8583    0.4543    3.4457 C   0  0  0  0  0  0  0  0  0  0  0  0
   -0.9357    1.0623    4.2999 C   0  0  0  0  0  0  0  0  0  0  0  0
    0.2123    0.3788    4.6897 C   0  0  0  0  0  0  0  0  0  0  0  0
    0.4241   -0.9268    4.2466 C   0  0  0  0  0  0  0  0  0  0  0  0
   -0.5036   -1.5490    3.4102 C   0  0  0  0  0  0  0  0  0  0  0  0
   -1.6432   -0.8576    3.0120 C   0  0  0  0  0  0  0  0  0  0  0  0
    1.6617   -1.6408    4.6532 C   0  0  0  0  0  0  0  0  0  0  0  0
    2.8141   -1.1380    4.3792 N   0  0  0  0  0  0  0  0  0  0  0  0
    1.4473   -2.8758    5.2848 N   0  0  0  0  0  0  0  0  0  0  0  0
   -2.0521    1.2180    0.7093 C   0  0  0  0  0  0  0  0  0  0  0  0
   -2.6981    0.4483    0.0404 O   0  0  0  0  0  0  0  0  0  0  0  0
   -0.4173   -0.1888   -1.0108 H   0  0  0  0  0  0  0  0  0  0  0  0
   -0.3796   -0.8428    0.6193 H   0  0  0  0  0  0  0  0  0  0  0  0
    1.6579   -0.0163    2.1609 H   0  0  0  0  0  0  0  0  0  0  0  0
    4.1224    0.0077    2.1694 H   0  0  0  0  0  0  0  0  0  0  0  0
    4.1415    0.0079   -2.1437 H   0  0  0  0  0  0  0  0  0  0  0  0
    1.6632   -0.0051   -2.1531 H   0  0  0  0  0  0  0  0  0  0  0  0
    6.1240    1.8732   -0.7353 H   0  0  0  0  0  0  0  0  0  0  0  0
    5.8909   -1.9352    0.5546 H   0  0  0  0  0  0  0  0  0  0  0  0
    7.3870   -1.1416    0.4518 H   0  0  0  0  0  0  0  0  0  0  0  0
   -0.9738    2.4954   -1.2479 H   0  0  0  0  0  0  0  0  0  0  0  0
    0.7420    2.3445   -0.8692 H   0  0  0  0  0  0  0  0  0  0  0  0
    0.4926    3.8614    1.1128 H   0  0  0  0  0  0  0  0  0  0  0  0
    0.0410    4.6408   -0.4010 H   0  0  0  0  0  0  0  0  0  0  0  0
   -1.6529    5.2755    1.1752 H   0  0  0  0  0  0  0  0  0  0  0  0
   -2.4250    4.1057    0.1108 H   0  0  0  0  0  0  0  0  0  0  0  0
   -1.0778    3.0999    2.6778 H   0  0  0  0  0  0  0  0  0  0  0  0
   -2.6136    3.9493    2.8187 H   0  0  0  0  0  0  0  0  0  0  0  0
   -3.8860    0.4973    2.7179 H   0  0  0  0  0  0  0  0  0  0  0  0
   -3.4789    1.8385    3.7855 H   0  0  0  0  0  0  0  0  0  0  0  0
   -1.1083    2.0746    4.6596 H   0  0  0  0  0  0  0  0  0  0  0  0
    0.9527    0.8632    5.3283 H   0  0  0  0  0  0  0  0  0  0  0  0
   -0.3289   -2.5661    3.0583 H   0  0  0  0  0  0  0  0  0  0  0  0
   -2.3638   -1.3368    2.3478 H   0  0  0  0  0  0  0  0  0  0  0  0
    3.6694   -1.5977    4.6271 H   0  0  0  0  0  0  0  0  0  0  0  0
    0.5366   -3.1200    5.6094 H   0  0  0  0  0  0  0  0  0  0  0  0
    2.2033   -3.3446    5.7346 H   0  0  0  0  0  0  0  0  0  0  0  0
  1  2  1  0  0  0  0
  1 11  1  0  0  0  0
  1 32  1  0  0  0  0
  2  3  2  0  0  0  0
  3  4  1  0  0  0  0
  3 33  1  0  0  0  0
  4 34  1  0  0  0  0
  5  4  2  0  0  0  0
  6  5  1  0  0  0  0
  7  6  2  0  0  0  0
  7  2  1  0  0  0  0
  8  5  1  0  0  0  0
  8 10  2  0  0  0  0
  9  8  1  0  0  0  0
 10 38  1  0  0  0  0
 11 29  1  0  0  0  0
 11 12  1  1  0  0  0
 13 14  1  0  0  0  0
 13 11  1  0  0  0  0
 14 15  1  0  0  0  0
 14 42  1  0  0  0  0
 15 44  1  0  0  0  0
 15 16  1  0  0  0  0
 16 46  1  0  0  0  0
 16 47  1  0  0  0  0
 17 18  1  6  0  0  0
 17 16  1  0  0  0  0
 17 19  1  0  0  0  0
 19 20  1  0  0  0  0
 19 49  1  0  0  0  0
 20 21  2  0  0  0  0
 21 50  1  0  0  0  0
 21 22  1  0  0  0  0
 22 51  1  0  0  0  0
 23 26  1  0  0  0  0
 23 22  2  0  0  0  0
 24 23  1  0  0  0  0
 25 24  2  0  0  0  0
 25 20  1  0  0  0  0
 26 28  2  0  0  0  0
 27 54  1  0  0  0  0
 27 26  1  0  0  0  0
 28 55  1  0  0  0  0
 28 56  1  0  0  0  0
 29 17  1  0  0  0  0
 30 29  2  0  0  0  0
 31  1  1  0  0  0  0
 35  6  1  0  0  0  0
 36  7  1  0  0  0  0
 37  9  1  0  0  0  0
 39 10  1  0  0  0  0
 40 13  1  0  0  0  0
 41 13  1  0  0  0  0
 43 14  1  0  0  0  0
 45 15  1  0  0  0  0
 48 19  1  0  0  0  0
 52 24  1  0  0  0  0
 53 25  1  0  0  0  0
M  RAD  2   9   2  27   2
M  END
$$$$
