rmsd78.gzmat
 OpenBabel08211713393D

 51 54  0  0  1  0  0  0  0  0999 V2000
    0.0000    0.0000    0.0000 Cl  0  0  0  0  0  0  0  0  0  0  0  0
    1.7123    0.0000    0.0000 C   0  0  0  0  0  0  0  0  0  0  0  0
    2.3762    0.0000    1.2186 C   0  0  0  0  0  0  0  0  0  0  0  0
    3.7703    0.0013    1.2130 C   0  0  0  0  0  0  0  0  0  0  0  0
    4.4667   -0.0008    0.0031 C   0  0  0  0  0  0  0  0  0  0  0  0
    3.7700    0.0027   -1.2099 C   0  0  0  0  0  0  0  0  0  0  0  0
    2.3785    0.0004   -1.2193 C   0  0  0  0  0  0  0  0  0  0  0  0
    5.9668    0.0021   -0.0077 C   0  0  0  0  0  0  0  0  0  0  0  0
    6.4875   -1.1938   -0.7560 C   0  0  0  0  0  0  0  0  0  0  0  0
    6.8925   -0.9555   -1.9835 N   0  0  0  0  0  0  0  0  0  0  0  0
    7.3596   -1.9486   -2.7508 N   0  0  0  0  0  0  0  0  0  0  0  0
    7.5254   -3.2782   -2.2930 C   0  0  0  0  0  0  0  0  0  0  0  0
    8.0189   -4.0928   -3.0448 O   0  0  0  0  0  0  0  0  0  0  0  0
    7.0571   -3.5515   -0.9313 C   0  0  0  0  0  0  0  0  0  0  0  0
    6.5267   -2.5127   -0.1512 C   0  0  0  0  0  0  0  0  0  0  0  0
    6.0669   -2.7962    1.1436 C   0  0  0  0  0  0  0  0  0  0  0  0
    6.1513   -4.0875    1.6394 C   0  0  0  0  0  0  0  0  0  0  0  0
    6.6950   -5.1189    0.8601 C   0  0  0  0  0  0  0  0  0  0  0  0
    7.1448   -4.8547   -0.4232 C   0  0  0  0  0  0  0  0  0  0  0  0
    7.8478   -1.5796   -4.1135 C   0  0  2  0  0  0  0  0  0  0  0  0
    7.7491   -2.5398   -4.7135 H   0  0  0  0  0  0  0  0  0  0  0  0
    9.3463   -1.2236   -4.0782 C   0  0  0  0  0  0  0  0  0  0  0  0
    9.7153    0.0054   -3.2375 C   0  0  0  0  0  0  0  0  0  0  0  0
    9.7271    1.2667   -4.0217 N   0  0  0  0  0  0  0  0  0  0  0  0
    9.7839    2.4192   -3.0931 C   0  0  0  0  0  0  0  0  0  0  0  0
    8.5943    1.3953   -4.9615 C   0  0  0  0  0  0  0  0  0  0  0  0
    7.2263    0.9256   -4.4345 C   0  0  0  0  0  0  0  0  0  0  0  0
    6.9444   -0.5350   -4.7936 C   0  0  0  0  0  0  0  0  0  0  0  0
    1.8293   -0.0021    2.1605 H   0  0  0  0  0  0  0  0  0  0  0  0
    4.3089    0.0068    2.1588 H   0  0  0  0  0  0  0  0  0  0  0  0
    4.3228    0.0023   -2.1517 H   0  0  0  0  0  0  0  0  0  0  0  0
    1.8324   -0.0025   -2.1624 H   0  0  0  0  0  0  0  0  0  0  0  0
    6.3934    0.0201    1.0180 H   0  0  0  0  0  0  0  0  0  0  0  0
    6.3305    0.9476   -0.4804 H   0  0  0  0  0  0  0  0  0  0  0  0
    5.6348   -2.0028    1.7514 H   0  0  0  0  0  0  0  0  0  0  0  0
    5.7904   -4.3093    2.6442 H   0  0  0  0  0  0  0  0  0  0  0  0
    6.7591   -6.1268    1.2673 H   0  0  0  0  0  0  0  0  0  0  0  0
    7.5666   -5.6459   -1.0502 H   0  0  0  0  0  0  0  0  0  0  0  0
    9.7077   -1.0864   -5.1178 H   0  0  0  0  0  0  0  0  0  0  0  0
    9.9057   -2.1022   -3.6906 H   0  0  0  0  0  0  0  0  0  0  0  0
    9.0564    0.0700   -2.3449 H   0  0  0  0  0  0  0  0  0  0  0  0
   10.7564   -0.1185   -2.8541 H   0  0  0  0  0  0  0  0  0  0  0  0
    9.9210    3.3434   -3.6770 H   0  0  0  0  0  0  0  0  0  0  0  0
   10.6674    2.3147   -2.4423 H   0  0  0  0  0  0  0  0  0  0  0  0
    8.8930    2.5348   -2.4580 H   0  0  0  0  0  0  0  0  0  0  0  0
    8.5289    2.4537   -5.2944 H   0  0  0  0  0  0  0  0  0  0  0  0
    8.8758    0.8180   -5.8721 H   0  0  0  0  0  0  0  0  0  0  0  0
    7.1693    1.0654   -3.3366 H   0  0  0  0  0  0  0  0  0  0  0  0
    6.4256    1.5629   -4.8539 H   0  0  0  0  0  0  0  0  0  0  0  0
    5.8852   -0.7672   -4.5518 H   0  0  0  0  0  0  0  0  0  0  0  0
    7.0352   -0.6660   -5.8913 H   0  0  0  0  0  0  0  0  0  0  0  0
  2  1  1  0  0  0  0
  2  3  2  0  0  0  0
  3 29  1  0  0  0  0
  4  3  1  0  0  0  0
  4 30  1  0  0  0  0
  5  4  2  0  0  0  0
  6  5  1  0  0  0  0
  7  6  2  0  0  0  0
  7  2  1  0  0  0  0
  8  5  1  0  0  0  0
  8 33  1  0  0  0  0
  9 15  1  0  0  0  0
  9  8  1  0  0  0  0
 10  9  2  0  0  0  0
 11 12  1  0  0  0  0
 11 10  1  0  0  0  0
 12 14  1  0  0  0  0
 13 12  2  0  0  0  0
 14 19  2  0  0  0  0
 14 15  1  0  0  0  0
 15 16  2  0  0  0  0
 16 17  1  0  0  0  0
 16 35  1  0  0  0  0
 17 36  1  0  0  0  0
 18 37  1  0  0  0  0
 18 17  2  0  0  0  0
 19 18  1  0  0  0  0
 20 21  1  6  0  0  0
 20 22  1  0  0  0  0
 20 11  1  0  0  0  0
 22 40  1  0  0  0  0
 22 23  1  0  0  0  0
 23 42  1  0  0  0  0
 23 41  1  0  0  0  0
 24 23  1  0  0  0  0
 24 25  1  0  0  0  0
 25 45  1  0  0  0  0
 25 44  1  0  0  0  0
 26 27  1  0  0  0  0
 26 24  1  0  0  0  0
 27 48  1  0  0  0  0
 28 50  1  0  0  0  0
 28 27  1  0  0  0  0
 28 20  1  0  0  0  0
 31  6  1  0  0  0  0
 32  7  1  0  0  0  0
 34  8  1  0  0  0  0
 38 19  1  0  0  0  0
 39 22  1  0  0  0  0
 43 25  1  0  0  0  0
 46 26  1  0  0  0  0
 47 26  1  0  0  0  0
 49 27  1  0  0  0  0
 51 28  1  0  0  0  0
M  END
$$$$
