rmsd146.gzmat
 OpenBabel08211713393D

 51 54  0  0  1  0  0  0  0  0999 V2000
    0.0000    0.0000    0.0000 Cl  0  0  0  0  0  0  0  0  0  0  0  0
    1.7127    0.0000    0.0000 C   0  0  0  0  0  0  0  0  0  0  0  0
    2.3778    0.0000    1.2179 C   0  0  0  0  0  0  0  0  0  0  0  0
    3.7723    0.0000    1.2116 C   0  0  0  0  0  0  0  0  0  0  0  0
    4.4670   -0.0053    0.0011 C   0  0  0  0  0  0  0  0  0  0  0  0
    3.7691   -0.0013   -1.2113 C   0  0  0  0  0  0  0  0  0  0  0  0
    2.3776    0.0002   -1.2201 C   0  0  0  0  0  0  0  0  0  0  0  0
    5.9675   -0.0100   -0.0162 C   0  0  0  0  0  0  0  0  0  0  0  0
    6.4702   -1.2423   -0.7168 C   0  0  0  0  0  0  0  0  0  0  0  0
    6.8368   -1.0662   -1.9669 N   0  0  0  0  0  0  0  0  0  0  0  0
    7.2655   -2.1005   -2.7010 N   0  0  0  0  0  0  0  0  0  0  0  0
    7.4402   -3.4076   -2.1856 C   0  0  0  0  0  0  0  0  0  0  0  0
    7.9005   -4.2605   -2.9160 O   0  0  0  0  0  0  0  0  0  0  0  0
    7.0194   -3.6103   -0.7967 C   0  0  0  0  0  0  0  0  0  0  0  0
    6.5229   -2.5309   -0.0504 C   0  0  0  0  0  0  0  0  0  0  0  0
    6.1062   -2.7485    1.2716 C   0  0  0  0  0  0  0  0  0  0  0  0
    6.2000   -4.0151    1.8261 C   0  0  0  0  0  0  0  0  0  0  0  0
    6.7116   -5.0867    1.0797 C   0  0  0  0  0  0  0  0  0  0  0  0
    7.1179   -4.8879   -0.2295 C   0  0  0  0  0  0  0  0  0  0  0  0
    7.7141   -1.8082   -4.0959 C   0  0  2  0  0  0  0  0  0  0  0  0
    7.4665   -2.7573   -4.6689 H   0  0  0  0  0  0  0  0  0  0  0  0
    9.2443   -1.6358   -4.1415 C   0  0  0  0  0  0  0  0  0  0  0  0
    9.7932   -0.4568   -3.3274 C   0  0  0  0  0  0  0  0  0  0  0  0
    9.9287    0.7847   -4.1305 N   0  0  0  0  0  0  0  0  0  0  0  0
   10.1831    1.9311   -3.2279 C   0  0  0  0  0  0  0  0  0  0  0  0
    8.7753    1.0473   -5.0159 C   0  0  0  0  0  0  0  0  0  0  0  0
    7.3872    0.7499   -4.4205 C   0  0  0  0  0  0  0  0  0  0  0  0
    6.9131   -0.6680   -4.7489 C   0  0  0  0  0  0  0  0  0  0  0  0
    1.8319   -0.0019    2.1605 H   0  0  0  0  0  0  0  0  0  0  0  0
    4.3118    0.0055    2.1571 H   0  0  0  0  0  0  0  0  0  0  0  0
    4.3215   -0.0056   -2.1533 H   0  0  0  0  0  0  0  0  0  0  0  0
    1.8306   -0.0014   -2.1623 H   0  0  0  0  0  0  0  0  0  0  0  0
    6.4002    0.0514    1.0044 H   0  0  0  0  0  0  0  0  0  0  0  0
    6.3341    0.9106   -0.5334 H   0  0  0  0  0  0  0  0  0  0  0  0
    5.7004   -1.9236    1.8546 H   0  0  0  0  0  0  0  0  0  0  0  0
    5.8712   -4.1859    2.8515 H   0  0  0  0  0  0  0  0  0  0  0  0
    6.7856   -6.0738    1.5335 H   0  0  0  0  0  0  0  0  0  0  0  0
    7.5129   -5.7109   -0.8328 H   0  0  0  0  0  0  0  0  0  0  0  0
    9.5650   -1.5443   -5.1991 H   0  0  0  0  0  0  0  0  0  0  0  0
    9.7152   -2.5743   -3.7763 H   0  0  0  0  0  0  0  0  0  0  0  0
    9.1792   -0.3052   -2.4135 H   0  0  0  0  0  0  0  0  0  0  0  0
   10.8247   -0.7047   -2.9804 H   0  0  0  0  0  0  0  0  0  0  0  0
   10.4346    2.8150   -3.8365 H   0  0  0  0  0  0  0  0  0  0  0  0
   11.0621    1.7120   -2.6005 H   0  0  0  0  0  0  0  0  0  0  0  0
    9.3392    2.1869   -2.5706 H   0  0  0  0  0  0  0  0  0  0  0  0
    8.8226    2.1037   -5.3564 H   0  0  0  0  0  0  0  0  0  0  0  0
    8.9392    0.4361   -5.9333 H   0  0  0  0  0  0  0  0  0  0  0  0
    7.3985    0.9032   -3.3234 H   0  0  0  0  0  0  0  0  0  0  0  0
    6.6511    1.4779   -4.8093 H   0  0  0  0  0  0  0  0  0  0  0  0
    5.8455   -0.7674   -4.4577 H   0  0  0  0  0  0  0  0  0  0  0  0
    6.9385   -0.8172   -5.8476 H   0  0  0  0  0  0  0  0  0  0  0  0
  2  1  1  0  0  0  0
  2  3  2  0  0  0  0
  3 29  1  0  0  0  0
  4  3  1  0  0  0  0
  4 30  1  0  0  0  0
  5  4  2  0  0  0  0
  6  5  1  0  0  0  0
  7  6  2  0  0  0  0
  7  2  1  0  0  0  0
  8  5  1  0  0  0  0
  8 33  1  0  0  0  0
  9 15  1  0  0  0  0
  9  8  1  0  0  0  0
 10  9  2  0  0  0  0
 11 12  1  0  0  0  0
 11 10  1  0  0  0  0
 12 14  1  0  0  0  0
 13 12  2  0  0  0  0
 14 19  2  0  0  0  0
 14 15  1  0  0  0  0
 15 16  2  0  0  0  0
 16 17  1  0  0  0  0
 16 35  1  0  0  0  0
 17 36  1  0  0  0  0
 18 37  1  0  0  0  0
 18 17  2  0  0  0  0
 19 18  1  0  0  0  0
 20 21  1  6  0  0  0
 20 11  1  0  0  0  0
 22 20  1  0  0  0  0
 22 40  1  0  0  0  0
 22 23  1  0  0  0  0
 23 42  1  0  0  0  0
 23 41  1  0  0  0  0
 24 23  1  0  0  0  0
 24 25  1  0  0  0  0
 25 44  1  0  0  0  0
 25 45  1  0  0  0  0
 26 27  1  0  0  0  0
 26 24  1  0  0  0  0
 27 48  1  0  0  0  0
 28 50  1  0  0  0  0
 28 27  1  0  0  0  0
 28 20  1  0  0  0  0
 31  6  1  0  0  0  0
 32  7  1  0  0  0  0
 34  8  1  0  0  0  0
 38 19  1  0  0  0  0
 39 22  1  0  0  0  0
 43 25  1  0  0  0  0
 46 26  1  0  0  0  0
 47 26  1  0  0  0  0
 49 27  1  0  0  0  0
 51 28  1  0  0  0  0
M  END
$$$$
