51
rmsd59.gzmat
Cl         0.00000        0.00000        0.00000
C          1.71240        0.00000        0.00000
C          2.37870        0.00000        1.21910
C          3.77060       -0.00240        1.20820
C          4.46680       -0.01520       -0.00460
C          3.76940       -0.00460       -1.21490
C          2.37550        0.00150       -1.21920
C          5.96660       -0.03390       -0.00270
C          6.48450       -1.11600        0.90310
N          7.09120       -0.69580        1.99050
N          7.60100       -1.57200        2.86500
C          7.47430       -2.97630        2.73100
O          7.94350       -3.68370        3.59820
C          6.79190       -3.44730        1.52280
C          6.29530       -2.52130        0.59330
C          5.64420       -2.98890       -0.55820
C          5.49300       -4.35130       -0.76080
C          5.98390       -5.27210        0.17630
C          6.63160       -4.82390        1.31580
C          8.16500       -1.01900        4.13410
H          9.04610       -1.69770        4.36110
C          7.15080       -1.18550        5.28400
C          5.81260       -0.46330        5.08170
N          5.79340        0.91260        5.63870
C          4.63000        1.64880        5.09370
C          7.04720        1.66400        5.42840
C          7.68320        1.53300        4.03290
C          8.71900        0.40720        3.97230
H          1.83260       -0.00050        2.16240
H          4.32280        0.00100        2.14900
H          4.30830        0.00000       -2.16080
H          1.82760        0.00650       -2.16060
H          6.34690        0.96640        0.32350
H          6.38530       -0.17320       -1.02330
H          5.25020       -2.27870       -1.28380
H          4.98550       -4.71520       -1.65480
H          5.85230       -6.33910        0.00340
H          7.02240       -5.52470        2.05960
H          7.62260       -0.85400        6.23050
H          6.95370       -2.27110        5.42580
H          5.52900       -0.48750        4.00730
H          5.01560       -1.01800        5.63390
H          4.54540        2.61720        5.61320
H          3.70890        1.08460        5.31290
H          4.67720        1.83960        4.01090
H          6.85660        2.73470        5.65800
H          7.76020        1.31800        6.21110
H          6.89820        1.36920        3.26810
H          8.16800        2.48690        3.75310
H          9.26210        0.47240        3.00500
H          9.48530        0.57030        4.75710
