51
rmsd56.gzmat
Cl         0.00000        0.00000        0.00000
C          1.71240        0.00000        0.00000
C          2.37620        0.00000        1.21910
C          3.76990       -0.01070        1.21400
C          4.46730       -0.02170        0.00360
C          3.77080       -0.00650       -1.20940
C          2.37880       -0.00080       -1.21920
C          5.96690       -0.04710        0.00310
C          6.48630       -1.08090       -0.95700
N          7.14930       -0.60810       -1.98870
N          7.61990       -1.43590       -2.93030
C          7.49880       -2.84550       -2.86620
O          7.99560       -3.50900       -3.75270
C          6.75320       -3.37450       -1.72110
C          6.24870       -2.49790       -0.74900
C          5.54790       -3.02270        0.34730
C          5.35400       -4.39060        0.45280
C          5.85610       -5.26140       -0.52520
C          6.55700       -4.75740       -1.60850
C          8.45880       -0.83460       -4.01080
H          8.25860       -1.49410       -4.91390
C          9.95420       -0.97680       -3.66670
C         10.40560       -0.23830       -2.40010
N         10.90290        1.13390       -2.67510
C         11.02880        1.87480       -1.39880
C         10.07660        1.88170       -3.64560
C          8.55350        1.71330       -3.49980
C          8.01160        0.58910       -4.38630
H          1.82870        0.00630        2.16050
H          4.30980       -0.00990        2.15970
H          4.32200       -0.00510       -2.15200
H          1.83310       -0.00020       -2.16310
H          6.38030       -0.24280        1.01670
H          6.34920        0.96850       -0.26960
H          5.14790       -2.35140        1.10640
H          4.80290       -4.79790        1.30110
H          5.69050       -6.33340       -0.42990
H          6.95760       -5.41800       -2.38330
H         10.55810       -0.64020       -4.53340
H         10.18790       -2.05800       -3.55430
H          9.59290       -0.24900       -1.64200
H         11.26760       -0.78560       -1.94930
H         11.52450        2.83960       -1.59300
H         11.68160        1.30870       -0.71440
H         10.07240        2.06820       -0.89040
H         10.34660        2.95790       -3.58500
H         10.40660        1.55340       -4.65790
H          8.28690        1.52400       -2.44090
H          8.04650        2.66000       -3.76360
H          6.90120        0.62930       -4.37730
H          8.31110        0.77610       -5.43790
