51
rmsd146.gzmat
Cl         0.00000        0.00000        0.00000
C          1.71270        0.00000        0.00000
C          2.37780        0.00000        1.21790
C          3.77230        0.00000        1.21160
C          4.46700       -0.00530        0.00110
C          3.76910       -0.00130       -1.21130
C          2.37760        0.00020       -1.22010
C          5.96750       -0.01000       -0.01620
C          6.47020       -1.24230       -0.71680
N          6.83680       -1.06620       -1.96690
N          7.26550       -2.10050       -2.70100
C          7.44020       -3.40760       -2.18560
O          7.90050       -4.26050       -2.91600
C          7.01940       -3.61030       -0.79670
C          6.52290       -2.53090       -0.05040
C          6.10620       -2.74850        1.27160
C          6.20000       -4.01510        1.82610
C          6.71160       -5.08670        1.07970
C          7.11790       -4.88790       -0.22950
C          7.71410       -1.80820       -4.09590
H          7.46650       -2.75730       -4.66890
C          9.24430       -1.63580       -4.14150
C          9.79320       -0.45680       -3.32740
N          9.92870        0.78470       -4.13050
C         10.18310        1.93110       -3.22790
C          8.77530        1.04730       -5.01590
C          7.38720        0.74990       -4.42050
C          6.91310       -0.66800       -4.74890
H          1.83190       -0.00190        2.16050
H          4.31180        0.00550        2.15710
H          4.32150       -0.00560       -2.15330
H          1.83060       -0.00140       -2.16230
H          6.40020        0.05140        1.00440
H          6.33410        0.91060       -0.53340
H          5.70040       -1.92360        1.85460
H          5.87120       -4.18590        2.85150
H          6.78560       -6.07380        1.53350
H          7.51290       -5.71090       -0.83280
H          9.56500       -1.54430       -5.19910
H          9.71520       -2.57430       -3.77630
H          9.17920       -0.30520       -2.41350
H         10.82470       -0.70470       -2.98040
H         10.43460        2.81500       -3.83650
H         11.06210        1.71200       -2.60050
H          9.33920        2.18690       -2.57060
H          8.82260        2.10370       -5.35640
H          8.93920        0.43610       -5.93330
H          7.39850        0.90320       -3.32340
H          6.65110        1.47790       -4.80930
H          5.84550       -0.76740       -4.45770
H          6.93850       -0.81720       -5.84760
