rmsd53.gzmat
 OpenBabel08211713393D

 51 54  0  0  1  0  0  0  0  0999 V2000
    0.0000    0.0000    0.0000 Cl  0  0  0  0  0  0  0  0  0  0  0  0
    1.7125    0.0000    0.0000 C   0  0  0  0  0  0  0  0  0  0  0  0
    2.3787    0.0000    1.2188 C   0  0  0  0  0  0  0  0  0  0  0  0
    3.7709   -0.0047    1.2093 C   0  0  0  0  0  0  0  0  0  0  0  0
    4.4679   -0.0240   -0.0027 C   0  0  0  0  0  0  0  0  0  0  0  0
    3.7698   -0.0120   -1.2134 C   0  0  0  0  0  0  0  0  0  0  0  0
    2.3769    0.0011   -1.2190 C   0  0  0  0  0  0  0  0  0  0  0  0
    5.9672   -0.0495   -0.0124 C   0  0  0  0  0  0  0  0  0  0  0  0
    6.5069   -0.9915    1.0267 C   0  0  0  0  0  0  0  0  0  0  0  0
    7.1885   -0.4261    1.9974 N   0  0  0  0  0  0  0  0  0  0  0  0
    7.7266   -1.1690    2.9729 N   0  0  0  0  0  0  0  0  0  0  0  0
    7.5563   -2.5721    3.0717 C   0  0  0  0  0  0  0  0  0  0  0  0
    8.0530   -3.1493    4.0166 O   0  0  0  0  0  0  0  0  0  0  0  0
    6.7945   -3.2054    1.9915 C   0  0  0  0  0  0  0  0  0  0  0  0
    6.2626   -2.4209    0.9572 C   0  0  0  0  0  0  0  0  0  0  0  0
    5.5232   -3.0408   -0.0614 C   0  0  0  0  0  0  0  0  0  0  0  0
    5.3212   -4.4113   -0.0322 C   0  0  0  0  0  0  0  0  0  0  0  0
    5.8541   -5.1903    1.0050 C   0  0  0  0  0  0  0  0  0  0  0  0
    6.5902   -4.5916    2.0145 C   0  0  0  0  0  0  0  0  0  0  0  0
    8.3533   -0.4384    4.1166 C   0  0  2  0  0  0  0  0  0  0  0  0
    9.1908   -1.1254    4.4560 H   0  0  0  0  0  0  0  0  0  0  0  0
    7.3544   -0.3218    5.2853 C   0  0  0  0  0  0  0  0  0  0  0  0
    6.0751    0.4660    4.9749 C   0  0  0  0  0  0  0  0  0  0  0  0
    6.1808    1.9110    5.2995 N   0  0  0  0  0  0  0  0  0  0  0  0
    5.0547    2.6380    4.6692 C   0  0  0  0  0  0  0  0  0  0  0  0
    7.4790    2.5127    4.9341 C   0  0  0  0  0  0  0  0  0  0  0  0
    8.0560    2.0871    3.5721 C   0  0  0  0  0  0  0  0  0  0  0  0
    9.0024    0.8897    3.6914 C   0  0  0  0  0  0  0  0  0  0  0  0
    1.8325   -0.0005    2.1625 H   0  0  0  0  0  0  0  0  0  0  0  0
    4.3189    0.0011    2.1524 H   0  0  0  0  0  0  0  0  0  0  0  0
    4.3103   -0.0117   -2.1586 H   0  0  0  0  0  0  0  0  0  0  0  0
    1.8296    0.0095   -2.1608 H   0  0  0  0  0  0  0  0  0  0  0  0
    6.3510    0.9872    0.1620 H   0  0  0  0  0  0  0  0  0  0  0  0
    6.3702   -0.3343   -1.0096 H   0  0  0  0  0  0  0  0  0  0  0  0
    5.1000   -2.4404   -0.8661 H   0  0  0  0  0  0  0  0  0  0  0  0
    4.7407   -4.8918   -0.8204 H   0  0  0  0  0  0  0  0  0  0  0  0
    5.6857   -6.2660    1.0126 H   0  0  0  0  0  0  0  0  0  0  0  0
    7.0156   -5.1809    2.8324 H   0  0  0  0  0  0  0  0  0  0  0  0
    7.8710    0.1262    6.1576 H   0  0  0  0  0  0  0  0  0  0  0  0
    7.0731   -1.3470    5.6113 H   0  0  0  0  0  0  0  0  0  0  0  0
    5.7700    0.2927    3.9204 H   0  0  0  0  0  0  0  0  0  0  0  0
    5.2470    0.0771    5.6151 H   0  0  0  0  0  0  0  0  0  0  0  0
    5.0686    3.6860    5.0096 H   0  0  0  0  0  0  0  0  0  0  0  0
    4.1050    2.1984    5.0156 H   0  0  0  0  0  0  0  0  0  0  0  0
    5.0662    2.6290    3.5692 H   0  0  0  0  0  0  0  0  0  0  0  0
    7.3778    3.6189    4.9727 H   0  0  0  0  0  0  0  0  0  0  0  0
    8.1886    2.2542    5.7531 H   0  0  0  0  0  0  0  0  0  0  0  0
    7.2357    1.8539    2.8643 H   0  0  0  0  0  0  0  0  0  0  0  0
    8.6012    2.9349    3.1175 H   0  0  0  0  0  0  0  0  0  0  0  0
    9.5146    0.7401    2.7167 H   0  0  0  0  0  0  0  0  0  0  0  0
    9.8053    1.1278    4.4184 H   0  0  0  0  0  0  0  0  0  0  0  0
  1  2  1  0  0  0  0
  2  3  2  0  0  0  0
  3 29  1  0  0  0  0
  4  3  1  0  0  0  0
  4 30  1  0  0  0  0
  5  4  2  0  0  0  0
  6  5  1  0  0  0  0
  7  6  2  0  0  0  0
  7  2  1  0  0  0  0
  8  5  1  0  0  0  0
  8 33  1  0  0  0  0
  8  9  1  0  0  0  0
  9 10  2  0  0  0  0
 10 11  1  0  0  0  0
 11 12  1  0  0  0  0
 11 20  1  0  0  0  0
 12 13  2  0  0  0  0
 14 19  1  0  0  0  0
 14 12  1  0  0  0  0
 15  9  1  0  0  0  0
 15 14  2  0  0  0  0
 16 17  2  0  0  0  0
 16 15  1  0  0  0  0
 17 18  1  0  0  0  0
 18 37  1  0  0  0  0
 18 19  2  0  0  0  0
 19 38  1  0  0  0  0
 20 21  1  1  0  0  0
 20 22  1  0  0  0  0
 22 40  1  0  0  0  0
 22 39  1  0  0  0  0
 23 22  1  0  0  0  0
 23 24  1  0  0  0  0
 23 42  1  0  0  0  0
 25 43  1  0  0  0  0
 25 44  1  0  0  0  0
 25 24  1  0  0  0  0
 26 46  1  0  0  0  0
 26 24  1  0  0  0  0
 26 47  1  0  0  0  0
 27 28  1  0  0  0  0
 27 26  1  0  0  0  0
 28 20  1  0  0  0  0
 28 51  1  0  0  0  0
 31  6  1  0  0  0  0
 32  7  1  0  0  0  0
 34  8  1  0  0  0  0
 35 16  1  0  0  0  0
 36 17  1  0  0  0  0
 41 23  1  0  0  0  0
 45 25  1  0  0  0  0
 48 27  1  0  0  0  0
 49 27  1  0  0  0  0
 50 28  1  0  0  0  0
M  END
$$$$
