51
rmsd53.gzmat
Cl         0.00000        0.00000        0.00000
C          1.71250        0.00000        0.00000
C          2.37870        0.00000        1.21880
C          3.77090       -0.00470        1.20930
C          4.46790       -0.02400       -0.00270
C          3.76980       -0.01200       -1.21340
C          2.37690        0.00110       -1.21900
C          5.96720       -0.04950       -0.01240
C          6.50690       -0.99150        1.02670
N          7.18850       -0.42610        1.99740
N          7.72660       -1.16900        2.97290
C          7.55630       -2.57210        3.07170
O          8.05300       -3.14930        4.01660
C          6.79450       -3.20540        1.99150
C          6.26260       -2.42090        0.95720
C          5.52320       -3.04080       -0.06140
C          5.32120       -4.41130       -0.03220
C          5.85410       -5.19030        1.00500
C          6.59020       -4.59160        2.01450
C          8.35330       -0.43840        4.11660
H          9.19080       -1.12540        4.45600
C          7.35440       -0.32180        5.28530
C          6.07510        0.46600        4.97490
N          6.18080        1.91100        5.29950
C          5.05470        2.63800        4.66920
C          7.47900        2.51270        4.93410
C          8.05600        2.08710        3.57210
C          9.00240        0.88970        3.69140
H          1.83250       -0.00050        2.16250
H          4.31890        0.00110        2.15240
H          4.31030       -0.01170       -2.15860
H          1.82960        0.00950       -2.16080
H          6.35100        0.98720        0.16200
H          6.37020       -0.33430       -1.00960
H          5.10000       -2.44040       -0.86610
H          4.74070       -4.89180       -0.82040
H          5.68570       -6.26600        1.01260
H          7.01560       -5.18090        2.83240
H          7.87100        0.12620        6.15760
H          7.07310       -1.34700        5.61130
H          5.77000        0.29270        3.92040
H          5.24700        0.07710        5.61510
H          5.06860        3.68600        5.00960
H          4.10500        2.19840        5.01560
H          5.06620        2.62900        3.56920
H          7.37780        3.61890        4.97270
H          8.18860        2.25420        5.75310
H          7.23570        1.85390        2.86430
H          8.60120        2.93490        3.11750
H          9.51460        0.74010        2.71670
H          9.80530        1.12780        4.41840
