51

Cl         0.01380        0.50430       -0.11160
C          1.75020        0.31470       -0.05290
C          2.38870        0.16880        1.17990
C          3.77620        0.01300        1.21440
C          4.53680        0.00290        0.03840
C          3.87080        0.15260       -1.18680
C          2.48620        0.30880       -1.24130
C          6.04560       -0.15330        0.07930
C          6.57420       -1.15350       -0.92000
N          7.21990       -0.66550       -1.93660
N          7.71420       -1.46830       -2.89240
C          7.62850       -2.86290       -2.89710
O          8.13990       -3.52920       -3.78700
C          6.88040       -3.42880       -1.76250
C          6.34600       -2.57820       -0.76980
C          5.62830       -3.14970        0.30310
C          5.45940       -4.52580        0.37320
C          5.99870       -5.36590       -0.61840
C          6.70580       -4.82010       -1.68090
C          8.44640       -0.82100       -4.00470
H          8.25800       -1.48690       -4.85720
C          9.96490       -0.87340       -3.74530
C         10.45370       -0.13040       -2.50320
N         10.70310        1.29500       -2.68240
C         10.86730        1.95720       -1.40900
C          9.85990        2.01270       -3.62850
C          8.34190        1.76940       -3.53840
C          7.87140        0.55820       -4.35140
H          1.80160        0.17450        2.09930
H          4.27490       -0.10230        2.18080
H          4.44750        0.14560       -2.11470
H          1.97250        0.42430       -2.19670
H          6.35650       -0.43380        1.09810
H          6.52530        0.81070       -0.14920
H          5.19320       -2.50960        1.07000
H          4.89970       -4.95930        1.20530
H          5.85780       -6.44700       -0.55080
H          7.13780       -5.43870       -2.46900
H         10.49640       -0.51280       -4.64060
H         10.22860       -1.93640       -3.64520
H          9.72500       -0.30940       -1.68180
H         11.39700       -0.59580       -2.16450
H         11.19270        2.99940       -1.55390
H         11.64460        1.44440       -0.81820
H          9.94250        1.97120       -0.78420
H         10.06840        3.08370       -3.48270
H         10.19010        1.78840       -4.65950
H          8.03720        1.66830       -2.48710
H          7.81900        2.65630       -3.93550
H          6.77190        0.48900       -4.32170
H          8.13720        0.74080       -5.40730
