rmsd70.gzmat
 OpenBabel08211713383D

 60 63  0  0  0  0  0  0  0  0999 V2000
    0.0000    0.0000    0.0000 Br  0  0  0  0  0  0  0  0  0  0  0  0
    1.9029    0.0000    0.0000 C   0  0  0  0  0  0  0  0  0  0  0  0
    2.5692    0.0000    1.2195 C   0  0  0  0  0  0  0  0  0  0  0  0
    3.9630    0.0034    1.2173 C   0  0  0  0  0  0  0  0  0  0  0  0
    4.6516   -0.0026    0.0051 C   0  0  0  0  0  0  0  0  0  0  0  0
    6.1391    0.0343   -0.0280 C   0  0  0  0  0  0  0  0  0  0  0  0
    6.7469    0.9172   -0.5990 O   0  0  0  0  0  0  0  0  0  0  0  0
    6.8462   -1.0219    0.5428 N   0  0  0  0  0  0  0  0  0  0  0  0
    6.2564   -1.9384    1.4715 C   0  0  0  0  0  0  0  0  0  0  0  0
    5.4586   -2.9455    1.0640 C   0  0  0  0  0  0  0  0  0  0  0  0
    5.0359   -3.1913   -0.3105 C   0  0  0  0  0  0  0  0  0  0  0  0
    3.6789   -3.4473   -0.5532 C   0  0  0  0  0  0  0  0  0  0  0  0
    3.2338   -3.6565   -1.8519 C   0  0  0  0  0  0  0  0  0  0  0  0
    1.9361   -3.8986   -2.1994 O   0  0  0  0  0  0  0  0  0  0  0  0
    0.9636   -3.7642   -1.1724 C   0  0  0  0  0  0  0  0  0  0  0  0
    4.1500   -3.6372   -2.9250 C   0  0  0  0  0  0  0  0  0  0  0  0
    3.8922   -3.8152   -4.2469 O   0  0  0  0  0  0  0  0  0  0  0  0
    2.5625   -4.1264   -4.6367 C   0  0  0  0  0  0  0  0  0  0  0  0
    5.5042   -3.4032   -2.6723 C   0  0  0  0  0  0  0  0  0  0  0  0
    5.9421   -3.1796   -1.3708 C   0  0  0  0  0  0  0  0  0  0  0  0
    6.6407   -1.7185    2.8779 C   0  0  0  0  0  0  0  0  0  0  0  0
    7.7699   -0.9543    3.1951 C   0  0  0  0  0  0  0  0  0  0  0  0
    8.5877   -0.2863    2.1342 C   0  0  0  0  0  0  0  0  0  0  0  0
    8.2964   -0.8662    0.7391 C   0  0  0  0  0  0  0  0  0  0  0  0
    8.1330   -0.7562    4.5307 C   0  0  0  0  0  0  0  0  0  0  0  0
    7.3667   -1.3002    5.5537 C   0  0  0  0  0  0  0  0  0  0  0  0
    7.6331   -1.1700    6.8822 O   0  0  0  0  0  0  0  0  0  0  0  0
    8.7506   -0.3674    7.2406 C   0  0  0  0  0  0  0  0  0  0  0  0
    6.2126   -2.0511    5.2415 C   0  0  0  0  0  0  0  0  0  0  0  0
    5.3705   -2.6735    6.1101 O   0  0  0  0  0  0  0  0  0  0  0  0
    5.4319   -2.2885    7.4769 C   0  0  0  0  0  0  0  0  0  0  0  0
    5.8602   -2.2519    3.9086 C   0  0  0  0  0  0  0  0  0  0  0  0
    3.9668    0.0108   -1.2100 C   0  0  0  0  0  0  0  0  0  0  0  0
    2.5723    0.0087   -1.2171 C   0  0  0  0  0  0  0  0  0  0  0  0
    2.0299    0.0000    2.1660 H   0  0  0  0  0  0  0  0  0  0  0  0
    4.5098    0.0071    2.1625 H   0  0  0  0  0  0  0  0  0  0  0  0
    5.0533   -3.6539    1.7937 H   0  0  0  0  0  0  0  0  0  0  0  0
    2.9848   -3.4653    0.2830 H   0  0  0  0  0  0  0  0  0  0  0  0
    0.0223   -3.8393   -1.7329 H   0  0  0  0  0  0  0  0  0  0  0  0
    1.0339   -2.7915   -0.6775 H   0  0  0  0  0  0  0  0  0  0  0  0
    1.0516   -4.5831   -0.4527 H   0  0  0  0  0  0  0  0  0  0  0  0
    2.6648   -4.2462   -5.7234 H   0  0  0  0  0  0  0  0  0  0  0  0
    1.8838   -3.2999   -4.4006 H   0  0  0  0  0  0  0  0  0  0  0  0
    2.2257   -5.0609   -4.1760 H   0  0  0  0  0  0  0  0  0  0  0  0
    6.2055   -3.3933   -3.5055 H   0  0  0  0  0  0  0  0  0  0  0  0
    6.9981   -2.9867   -1.1811 H   0  0  0  0  0  0  0  0  0  0  0  0
    8.3607    0.8045    2.1372 H   0  0  0  0  0  0  0  0  0  0  0  0
    9.6705   -0.3654    2.3514 H   0  0  0  0  0  0  0  0  0  0  0  0
    8.7131   -0.2082   -0.0586 H   0  0  0  0  0  0  0  0  0  0  0  0
    8.7712   -1.8671    0.6239 H   0  0  0  0  0  0  0  0  0  0  0  0
    9.0216   -0.1725    4.7560 H   0  0  0  0  0  0  0  0  0  0  0  0
    8.7229   -0.4115    8.3379 H   0  0  0  0  0  0  0  0  0  0  0  0
    8.6221    0.6631    6.8957 H   0  0  0  0  0  0  0  0  0  0  0  0
    9.6813   -0.8046    6.8659 H   0  0  0  0  0  0  0  0  0  0  0  0
    5.3723   -1.2027    7.5952 H   0  0  0  0  0  0  0  0  0  0  0  0
    6.3407   -2.6893    7.9405 H   0  0  0  0  0  0  0  0  0  0  0  0
    4.5388   -2.7729    7.8933 H   0  0  0  0  0  0  0  0  0  0  0  0
    4.9586   -2.8276    3.6910 H   0  0  0  0  0  0  0  0  0  0  0  0
    4.5224    0.0223   -2.1511 H   0  0  0  0  0  0  0  0  0  0  0  0
    2.0371    0.0145   -2.1666 H   0  0  0  0  0  0  0  0  0  0  0  0
  1  2  1  0  0  0  0
  2  3  2  0  0  0  0
  3 35  1  0  0  0  0
  4  3  1  0  0  0  0
  4 36  1  0  0  0  0
  5  4  2  0  0  0  0
  6  5  1  0  0  0  0
  6  8  1  0  0  0  0
  7  6  2  0  0  0  0
  8 24  1  0  0  0  0
  8  9  1  0  0  0  0
  9 21  1  0  0  0  0
 10  9  2  0  0  0  0
 10 37  1  0  0  0  0
 11 10  1  0  0  0  0
 12 11  1  0  0  0  0
 12 38  1  0  0  0  0
 13 12  2  0  0  0  0
 14 13  1  0  0  0  0
 14 15  1  0  0  0  0
 15 40  1  0  0  0  0
 15 41  1  0  0  0  0
 16 19  2  0  0  0  0
 16 13  1  0  0  0  0
 17 16  1  0  0  0  0
 18 43  1  0  0  0  0
 18 17  1  0  0  0  0
 18 44  1  0  0  0  0
 19 20  1  0  0  0  0
 20 46  1  0  0  0  0
 20 11  2  0  0  0  0
 21 22  2  0  0  0  0
 21 32  1  0  0  0  0
 22 25  1  0  0  0  0
 23 47  1  0  0  0  0
 23 48  1  0  0  0  0
 23 22  1  0  0  0  0
 24 23  1  0  0  0  0
 25 51  1  0  0  0  0
 25 26  2  0  0  0  0
 26 27  1  0  0  0  0
 27 28  1  0  0  0  0
 28 52  1  0  0  0  0
 29 26  1  0  0  0  0
 29 30  1  0  0  0  0
 30 31  1  0  0  0  0
 31 55  1  0  0  0  0
 31 57  1  0  0  0  0
 31 56  1  0  0  0  0
 32 29  2  0  0  0  0
 33  5  1  0  0  0  0
 34 33  2  0  0  0  0
 34  2  1  0  0  0  0
 39 15  1  0  0  0  0
 42 18  1  0  0  0  0
 45 19  1  0  0  0  0
 49 24  1  0  0  0  0
 50 24  1  0  0  0  0
 53 28  1  0  0  0  0
 54 28  1  0  0  0  0
 58 32  1  0  0  0  0
 59 33  1  0  0  0  0
 60 34  1  0  0  0  0
M  END
$$$$
