60
rmsd6.gzmat
Br         0.00000        0.00000        0.00000
C          1.90310        0.00000        0.00000
C          2.56860        0.00000        1.22010
C          3.96200       -0.00830        1.21790
C          4.65160       -0.02380        0.00590
C          6.14050       -0.00750       -0.01110
O          6.77290        0.88120       -0.54300
N          6.81260       -1.09060        0.55040
C          6.15180       -2.05840        1.37250
C          5.40230       -3.04540        0.84380
C          5.11500       -3.21800       -0.57600
C          3.78240       -3.39970       -0.97030
C          3.47390       -3.54310       -2.31670
O          2.21230       -3.71450       -2.81020
C          1.14070       -3.48630       -1.90550
C          4.50240       -3.53990       -3.28240
O          4.36930       -3.64110       -4.63120
C          3.13320       -4.12390       -5.13890
C          5.82960       -3.37800       -2.87890
C          6.13140       -3.21200       -1.53070
C          6.40190       -1.90510        2.81480
C          7.51810       -1.19260        3.26570
C          8.45650       -0.51540        2.31630
C          8.24480       -0.95840        0.85630
C          7.75100       -1.06040        4.63550
C          6.86760       -1.61850        5.56070
O          7.25310       -1.40600        6.84210
C          6.42970       -1.90900        7.88600
C          5.72340       -2.30860        5.10200
O          4.90680       -2.79960        6.08050
C          3.69190       -3.40020        5.65330
C          5.50200       -2.44960        3.74050
C          3.96860       -0.00550       -1.20940
C          2.57340        0.00340       -1.21670
H          2.02930        0.00970        2.16610
H          4.50890       -0.00720        2.16340
H          4.93910       -3.79360        1.49250
H          3.00210       -3.41400       -0.21470
H          0.26300       -3.56340       -2.56020
H          1.20230       -2.48580       -1.46640
H          1.11200       -4.26020       -1.13310
H          3.36950       -4.29700       -6.19670
H          2.35700       -3.35800       -5.03510
H          2.83500       -5.05750       -4.65290
H          6.61810       -3.37920       -3.63030
H          7.16650       -3.07260       -1.21960
H          8.31180        0.58610        2.39540
H          9.51070       -0.69830        2.60710
H          8.70880       -0.22830        0.15160
H          8.72890       -1.94460        0.67310
H          8.62210       -0.51820        5.00280
H          6.97830       -1.59130        8.78260
H          6.36500       -3.00130        7.83970
H          5.43700       -1.44810        7.85670
H          3.89080       -4.31960        5.09320
H          3.08230       -2.69770        5.07580
H          3.20230       -3.63290        6.60800
H          4.62290       -2.98020        3.37900
H          4.52450       -0.00100       -2.15080
H          2.03960        0.01640       -2.16710
