60
rmsd37.gzmat
Br         0.00000        0.00000        0.00000
C          1.90290        0.00000        0.00000
C          2.57340        0.00000        1.21660
C          3.96830        0.00320        1.20930
C          4.65210        0.01070       -0.00590
C          6.14080       -0.02430        0.01420
O          6.75710       -0.92090        0.55230
N          6.83340        1.04540       -0.54650
C          6.20230        2.02220       -1.38080
C          5.45650        3.01990       -0.86700
C          5.13980        3.19980        0.54570
C          3.80090        3.40040        0.90770
C          3.46210        3.55490        2.24560
O          2.19210        3.74530        2.70790
C          1.13870        3.52230        1.78050
C          4.46680        3.53700        3.23590
O          4.31120        3.73070        4.57230
C          3.00510        3.58630        5.11310
C          5.80060        3.35350        2.86460
C          6.13330        3.18370        1.52410
C          6.48550        1.87330       -2.81800
C          7.59690        1.14000       -3.24750
C          8.49520        0.43390       -2.28050
C          8.26920        0.89200       -0.82750
C          7.86330        1.01600       -4.61170
C          7.01790        1.60290       -5.55430
O          7.43290        1.39360       -6.82680
C          6.64640        1.91830       -7.88840
C          5.87750        2.31410       -5.11870
O          5.09600        2.82730       -6.11430
C          3.90290        3.48610       -5.71300
C          5.62390        2.44750       -3.76220
C          3.96230       -0.00380       -1.21760
C          2.56850       -0.00510       -1.21980
H          2.03880       -0.00680        2.16600
H          4.52520        0.00200        2.14990
H          5.01890        3.77530       -1.52550
H          3.03930        3.42280        0.13360
H          0.24820        3.57880        2.42040
H          1.21740        2.53310        1.32010
H          1.11880        4.31290        1.02470
H          3.19990        3.60670        6.19320
H          2.55120        2.63630        4.81770
H          2.37680        4.43520        4.82030
H          6.56970        3.34200        3.63540
H          7.17320        3.02790        1.23870
H          8.31450       -0.66290       -2.35770
H          9.56040        0.57910       -2.55180
H          8.71300        0.16190       -0.11000
H          8.76300        1.87380       -0.64520
H          8.73150        0.45780       -4.96100
H          7.21880        1.60520       -8.77200
H          6.59110        3.01060       -7.83170
H          5.64800        1.46880       -7.89340
H          4.13160        4.39050       -5.14040
H          3.24490        2.81050       -5.15750
H          3.45030        3.74940       -6.67800
H          4.74800        2.99540       -3.41930
H          4.51010       -0.01110       -2.16240
H          2.02900       -0.01470       -2.16570
