60

Br        -0.00180       -0.37750       -0.44800
C          1.90460       -0.31810       -0.38070
C          2.54490       -0.25520        0.85960
C          3.93940       -0.25450        0.90480
C          4.68820       -0.31210       -0.27750
C          6.18840       -0.30000       -0.30260
O          6.78300        0.34150       -1.15470
N          6.87060       -1.00910        0.67240
C          6.33350       -1.99570        1.54450
C          5.53790       -2.99950        1.10370
C          5.09950       -3.25630       -0.27390
C          3.74530       -3.57950       -0.48970
C          3.23530       -3.73980       -1.77870
O          1.93740       -4.01530       -2.05940
C          1.02820       -4.17960       -0.99270
C          4.10290       -3.60380       -2.89000
O          3.65480       -3.77510       -4.16700
C          2.74780       -2.79820       -4.65320
C          5.45350       -3.33640       -2.67010
C          5.95650       -3.16220       -1.38020
C          6.73760       -1.82550        2.96230
C          7.77420       -0.93380        3.30480
C          8.50270       -0.14310        2.24000
C          8.29660       -0.74940        0.85740
C          8.14350       -0.77920        4.65000
C          7.50860       -1.48730        5.67160
O          7.83490       -1.40600        6.98450
C          8.89230       -0.55880        7.37440
C          6.45550       -2.37600        5.33420
O          5.81810       -3.12620        6.27770
C          5.05620       -2.42740        7.25070
C          6.09750       -2.52860        4.00330
C          4.02440       -0.32170       -1.51040
C          2.63280       -0.34100       -1.57180
H          1.95910       -0.21080        1.77860
H          4.44200       -0.21020        1.87180
H          5.09740       -3.64890        1.86240
H          3.08250       -3.65020        0.37190
H          0.05450       -4.40510       -1.44640
H          0.93460       -3.26090       -0.38960
H          1.32300       -5.01730       -0.33600
H          2.50490       -3.07730       -5.68770
H          3.21310       -1.79490       -4.65530
H          1.82210       -2.76760       -4.05790
H          6.10270       -3.25880       -3.54430
H          7.01300       -2.93630       -1.23540
H          8.12840        0.89670        2.23310
H          9.57780       -0.08780        2.47680
H          8.61860       -0.07690        0.05490
H          8.85030       -1.69910        0.76230
H          8.96080       -0.09700        4.88540
H          8.98500       -0.65550        8.46400
H          8.68560        0.49660        7.12200
H          9.84600       -0.85660        6.90390
H          4.28430       -1.79810        6.77080
H          5.69070       -1.79580        7.89120
H          4.56040       -3.18890        7.86840
H          5.28180       -3.22230        3.80130
H          4.61870       -0.34160       -2.42400
H          2.11780       -0.38460       -2.53170
