rmsd38.gzmat
 OpenBabel08211713383D

 60 63  0  0  0  0  0  0  0  0999 V2000
    0.0000    0.0000    0.0000 Br  0  0  0  0  0  0  0  0  0  0  0  0
    1.9026    0.0000    0.0000 C   0  0  0  0  0  0  0  0  0  0  0  0
    2.5698    0.0000    1.2192 C   0  0  0  0  0  0  0  0  0  0  0  0
    3.9636   -0.0192    1.2166 C   0  0  0  0  0  0  0  0  0  0  0  0
    4.6508   -0.0454    0.0040 C   0  0  0  0  0  0  0  0  0  0  0  0
    6.1380   -0.0503   -0.0369 C   0  0  0  0  0  0  0  0  0  0  0  0
    6.7658    0.8008   -0.6348 O   0  0  0  0  0  0  0  0  0  0  0  0
    6.8224   -1.1112    0.5520 N   0  0  0  0  0  0  0  0  0  0  0  0
    6.2283   -2.0029    1.4992 C   0  0  0  0  0  0  0  0  0  0  0  0
    5.3771   -2.9819    1.1331 C   0  0  0  0  0  0  0  0  0  0  0  0
    4.8519   -3.2123   -0.2071 C   0  0  0  0  0  0  0  0  0  0  0  0
    3.4741   -3.4426   -0.3379 C   0  0  0  0  0  0  0  0  0  0  0  0
    2.9189   -3.6345   -1.5953 C   0  0  0  0  0  0  0  0  0  0  0  0
    1.5912   -3.8383   -1.8371 O   0  0  0  0  0  0  0  0  0  0  0  0
    0.7386   -3.9333   -0.7050 C   0  0  0  0  0  0  0  0  0  0  0  0
    3.7429   -3.6140   -2.7412 C   0  0  0  0  0  0  0  0  0  0  0  0
    3.3680   -3.7582   -4.0392 O   0  0  0  0  0  0  0  0  0  0  0  0
    2.0007   -4.0267   -4.3145 C   0  0  0  0  0  0  0  0  0  0  0  0
    5.1178   -3.4114   -2.5998 C   0  0  0  0  0  0  0  0  0  0  0  0
    5.6675   -3.2105   -1.3369 C   0  0  0  0  0  0  0  0  0  0  0  0
    6.6664   -1.8036    2.8934 C   0  0  0  0  0  0  0  0  0  0  0  0
    7.8413   -1.0993    3.1781 C   0  0  0  0  0  0  0  0  0  0  0  0
    8.6453   -0.4533    2.0938 C   0  0  0  0  0  0  0  0  0  0  0  0
    8.2826   -1.0039    0.7033 C   0  0  0  0  0  0  0  0  0  0  0  0
    8.2628   -0.9410    4.5023 C   0  0  0  0  0  0  0  0  0  0  0  0
    7.5044   -1.4581    5.5452 C   0  0  0  0  0  0  0  0  0  0  0  0
    7.8186   -1.3570    6.8657 O   0  0  0  0  0  0  0  0  0  0  0  0
    9.0820   -0.7894    7.1862 C   0  0  0  0  0  0  0  0  0  0  0  0
    6.2945   -2.1302    5.2670 C   0  0  0  0  0  0  0  0  0  0  0  0
    5.4419   -2.7019    6.1600 O   0  0  0  0  0  0  0  0  0  0  0  0
    5.5603   -2.3162    7.5225 C   0  0  0  0  0  0  0  0  0  0  0  0
    5.8886   -2.2989    3.9455 C   0  0  0  0  0  0  0  0  0  0  0  0
    3.9652   -0.0204   -1.2112 C   0  0  0  0  0  0  0  0  0  0  0  0
    2.5707   -0.0008   -1.2178 C   0  0  0  0  0  0  0  0  0  0  0  0
    2.0314    0.0152    2.1659 H   0  0  0  0  0  0  0  0  0  0  0  0
    4.5109   -0.0196    2.1615 H   0  0  0  0  0  0  0  0  0  0  0  0
    4.9935   -3.6776    1.8878 H   0  0  0  0  0  0  0  0  0  0  0  0
    2.8512   -3.4492    0.5526 H   0  0  0  0  0  0  0  0  0  0  0  0
   -0.2495   -4.0452   -1.1709 H   0  0  0  0  0  0  0  0  0  0  0  0
    0.7708   -3.0206   -0.1031 H   0  0  0  0  0  0  0  0  0  0  0  0
    0.9860   -4.8151   -0.1069 H   0  0  0  0  0  0  0  0  0  0  0  0
    1.9988   -4.1143   -5.4085 H   0  0  0  0  0  0  0  0  0  0  0  0
    1.3670   -3.1931   -3.9920 H   0  0  0  0  0  0  0  0  0  0  0  0
    1.6854   -4.9673   -3.8514 H   0  0  0  0  0  0  0  0  0  0  0  0
    5.7477   -3.4076   -3.4882 H   0  0  0  0  0  0  0  0  0  0  0  0
    6.7395   -3.0429   -1.2331 H   0  0  0  0  0  0  0  0  0  0  0  0
    8.4610    0.6453    2.1166 H   0  0  0  0  0  0  0  0  0  0  0  0
    9.7316   -0.5764    2.2705 H   0  0  0  0  0  0  0  0  0  0  0  0
    8.6937   -0.3477   -0.0998 H   0  0  0  0  0  0  0  0  0  0  0  0
    8.7204   -2.0174    0.5568 H   0  0  0  0  0  0  0  0  0  0  0  0
    9.1871   -0.4062    4.7032 H   0  0  0  0  0  0  0  0  0  0  0  0
    9.0928   -0.8588    8.2823 H   0  0  0  0  0  0  0  0  0  0  0  0
    9.1343    0.2567    6.8700 H   0  0  0  0  0  0  0  0  0  0  0  0
    9.8965   -1.3817    6.7573 H   0  0  0  0  0  0  0  0  0  0  0  0
    5.5795   -1.2283    7.6358 H   0  0  0  0  0  0  0  0  0  0  0  0
    6.4487   -2.7780    7.9676 H   0  0  0  0  0  0  0  0  0  0  0  0
    4.6456   -2.7345    7.9624 H   0  0  0  0  0  0  0  0  0  0  0  0
    4.9488   -2.8201    3.7542 H   0  0  0  0  0  0  0  0  0  0  0  0
    4.5212   -0.0208   -2.1522 H   0  0  0  0  0  0  0  0  0  0  0  0
    2.0337    0.0092   -2.1665 H   0  0  0  0  0  0  0  0  0  0  0  0
  1  2  1  0  0  0  0
  2  3  2  0  0  0  0
  3 35  1  0  0  0  0
  4  3  1  0  0  0  0
  4 36  1  0  0  0  0
  5  4  2  0  0  0  0
  6  5  1  0  0  0  0
  6  8  1  0  0  0  0
  7  6  2  0  0  0  0
  8 24  1  0  0  0  0
  8  9  1  0  0  0  0
  9 21  1  0  0  0  0
 10  9  2  0  0  0  0
 10 37  1  0  0  0  0
 11 10  1  0  0  0  0
 12 11  1  0  0  0  0
 12 38  1  0  0  0  0
 13 12  2  0  0  0  0
 14 13  1  0  0  0  0
 14 15  1  0  0  0  0
 15 41  1  0  0  0  0
 15 40  1  0  0  0  0
 16 19  2  0  0  0  0
 16 13  1  0  0  0  0
 17 16  1  0  0  0  0
 18 17  1  0  0  0  0
 18 43  1  0  0  0  0
 18 44  1  0  0  0  0
 19 20  1  0  0  0  0
 20 46  1  0  0  0  0
 20 11  2  0  0  0  0
 21 22  2  0  0  0  0
 21 32  1  0  0  0  0
 22 25  1  0  0  0  0
 23 47  1  0  0  0  0
 23 48  1  0  0  0  0
 23 22  1  0  0  0  0
 24 23  1  0  0  0  0
 25 51  1  0  0  0  0
 25 26  2  0  0  0  0
 26 27  1  0  0  0  0
 27 28  1  0  0  0  0
 28 52  1  0  0  0  0
 29 26  1  0  0  0  0
 29 30  1  0  0  0  0
 30 31  1  0  0  0  0
 31 55  1  0  0  0  0
 31 57  1  0  0  0  0
 31 56  1  0  0  0  0
 32 29  2  0  0  0  0
 33  5  1  0  0  0  0
 34 33  2  0  0  0  0
 34  2  1  0  0  0  0
 39 15  1  0  0  0  0
 42 18  1  0  0  0  0
 45 19  1  0  0  0  0
 49 24  1  0  0  0  0
 50 24  1  0  0  0  0
 53 28  1  0  0  0  0
 54 28  1  0  0  0  0
 58 32  1  0  0  0  0
 59 33  1  0  0  0  0
 60 34  1  0  0  0  0
M  END
$$$$
