60
rmsd38.gzmat
Br         0.00000        0.00000        0.00000
C          1.90260        0.00000        0.00000
C          2.56980        0.00000        1.21920
C          3.96360       -0.01920        1.21660
C          4.65080       -0.04540        0.00400
C          6.13800       -0.05030       -0.03690
O          6.76580        0.80080       -0.63480
N          6.82240       -1.11120        0.55200
C          6.22830       -2.00290        1.49920
C          5.37710       -2.98190        1.13310
C          4.85190       -3.21230       -0.20710
C          3.47410       -3.44260       -0.33790
C          2.91890       -3.63450       -1.59530
O          1.59120       -3.83830       -1.83710
C          0.73860       -3.93330       -0.70500
C          3.74290       -3.61400       -2.74120
O          3.36800       -3.75820       -4.03920
C          2.00070       -4.02670       -4.31450
C          5.11780       -3.41140       -2.59980
C          5.66750       -3.21050       -1.33690
C          6.66640       -1.80360        2.89340
C          7.84130       -1.09930        3.17810
C          8.64530       -0.45330        2.09380
C          8.28260       -1.00390        0.70330
C          8.26280       -0.94100        4.50230
C          7.50440       -1.45810        5.54520
O          7.81860       -1.35700        6.86570
C          9.08200       -0.78940        7.18620
C          6.29450       -2.13020        5.26700
O          5.44190       -2.70190        6.16000
C          5.56030       -2.31620        7.52250
C          5.88860       -2.29890        3.94550
C          3.96520       -0.02040       -1.21120
C          2.57070       -0.00080       -1.21780
H          2.03140        0.01520        2.16590
H          4.51090       -0.01960        2.16150
H          4.99350       -3.67760        1.88780
H          2.85120       -3.44920        0.55260
H         -0.24950       -4.04520       -1.17090
H          0.77080       -3.02060       -0.10310
H          0.98600       -4.81510       -0.10690
H          1.99880       -4.11430       -5.40850
H          1.36700       -3.19310       -3.99200
H          1.68540       -4.96730       -3.85140
H          5.74770       -3.40760       -3.48820
H          6.73950       -3.04290       -1.23310
H          8.46100        0.64530        2.11660
H          9.73160       -0.57640        2.27050
H          8.69370       -0.34770       -0.09980
H          8.72040       -2.01740        0.55680
H          9.18710       -0.40620        4.70320
H          9.09280       -0.85880        8.28230
H          9.13430        0.25670        6.87000
H          9.89650       -1.38170        6.75730
H          5.57950       -1.22830        7.63580
H          6.44870       -2.77800        7.96760
H          4.64560       -2.73450        7.96240
H          4.94880       -2.82010        3.75420
H          4.52120       -0.02080       -2.15220
H          2.03370        0.00920       -2.16650
