60
rmsd104.gzmat
Br         0.00000        0.00000        0.00000
C          1.90260        0.00000        0.00000
C          2.57020        0.00000        1.21890
C          3.96420       -0.01200        1.21610
C          4.65080       -0.02780        0.00330
C          6.13760       -0.01750       -0.03950
O          6.75630        0.85680       -0.61300
N          6.83220       -1.09290        0.51150
C          6.25660       -1.99770        1.45870
C          5.41480       -2.98480        1.09320
C          4.87970       -3.20990       -0.24400
C          3.50290       -3.45010       -0.36410
C          2.93620       -3.62620       -1.61870
O          1.60670       -3.83060       -1.85010
C          0.76560       -3.93200       -0.70980
C          3.74910       -3.58800       -2.77200
O          3.36000       -3.70940       -4.06820
C          2.00540       -4.04770       -4.33090
C          5.12460       -3.38200       -2.64090
C          5.68510       -3.19090       -1.38130
C          6.70530       -1.80150        2.84980
C          7.86920       -1.07650        3.12840
C          8.66520       -0.42820        2.03920
C          8.29350       -0.97870        0.65040
C          8.29150       -0.90290        4.45050
C          7.55400       -1.44240        5.49680
O          7.87550       -1.34610        6.81520
C          9.04650       -0.60940        7.14300
C          6.36400       -2.15190        5.22390
O          5.55850       -2.77500        6.12720
C          5.58950       -2.29460        7.46480
C          5.94820       -2.32060        3.90650
C          3.96480       -0.00470       -1.21150
C          2.57070        0.00360       -1.21790
H          2.03160        0.01000        2.16560
H          4.51220       -0.01270        2.16030
H          5.04710       -3.69140        1.84570
H          2.89020       -3.47720        0.53320
H         -0.22620       -4.05180       -1.16580
H          0.79900       -3.01790       -0.10970
H          1.02500       -4.81100       -0.11220
H          1.99800       -4.13830       -5.42490
H          1.33590       -3.24350       -4.00610
H          1.73830       -5.00070       -3.86270
H          5.74670       -3.36880       -3.53470
H          6.75720       -3.01830       -1.28520
H          8.48320        0.67060        2.06360
H          9.75260       -0.55430        2.20900
H          8.69430       -0.32000       -0.15560
H          8.73410       -1.99030        0.49900
H          9.20210       -0.34320        4.64630
H          9.06140       -0.68020        8.23930
H          8.95660        0.43480        6.82780
H          9.93800       -1.08240        6.71910
H          5.53840       -1.20350        7.50940
H          6.48520       -2.66990        7.97330
H          4.68440       -2.74330        7.89450
H          5.01880       -2.86240        3.72060
H          4.51970        0.00490       -2.15300
H          2.03430        0.00950       -2.16680
