60

Br         0.11970        0.02420       -0.90210
C          2.01470       -0.05990       -0.68970
C          2.56000       -0.07600        0.59680
C          3.94310       -0.18060        0.74700
C          4.77500       -0.26440       -0.37670
C          6.26950       -0.36620       -0.28840
O          6.97390        0.24880       -1.07360
N          6.81910       -1.14960        0.71300
C          6.14340       -2.11590        1.50710
C          5.31690       -3.04450        0.96800
C          4.97720       -3.22960       -0.44840
C          3.62580       -3.44570       -0.78340
C          3.21410       -3.53140       -2.11390
O          1.92750       -3.70110       -2.50780
C          0.92260       -3.82230       -1.52480
C          4.17840       -3.42890       -3.14650
O          3.82630       -3.52970       -4.46030
C          3.03530       -2.47430       -4.98390
C          5.52180       -3.26880       -2.80940
C          5.92750       -3.16840       -1.47810
C          6.44130       -2.01370        2.95870
C          7.51070       -1.21080        3.40450
C          8.38310       -0.45380        2.42760
C          8.24230       -1.00490        1.01450
C          7.75920       -1.11490        4.78080
C          6.99610       -1.79140        5.72550
O          7.33630       -1.69220        7.03920
C          6.37380       -1.14320        7.92820
C          5.93000       -2.61450        5.27900
O          5.23370       -3.27700        6.23940
C          4.19510       -4.14590        5.85160
C          5.66820       -2.70680        3.91480
C          4.20970       -0.19260       -1.65590
C          2.82930       -0.10620       -1.82270
H          1.90940       -0.00960        1.46980
H          4.37150       -0.19730        1.74990
H          4.76740       -3.68210        1.66290
H          2.89010       -3.48990        0.01870
H         -0.02390       -3.96040       -2.06330
H          0.84750       -2.91510       -0.90210
H          1.09780       -4.69710       -0.87370
H          2.86080       -2.70420       -6.04400
H          3.56940       -1.50860       -4.91240
H          2.06740       -2.39300       -4.46530
H          6.24500       -3.21470       -3.62530
H          6.98170       -3.02470       -1.24130
H          8.09600        0.61330        2.42560
H          9.43580       -0.49400        2.75110
H          8.67520       -0.33850        0.26050
H          8.72870       -1.99180        0.93060
H          8.58480       -0.50270        5.15090
H          6.86480       -1.06020        8.90750
H          5.48500       -1.78540        8.01740
H          6.06280       -0.13540        7.59780
H          4.56430       -4.95530        5.19690
H          3.38370       -3.60850        5.32800
H          3.79410       -4.58630        6.77380
H          4.84100       -3.32670        3.57860
H          4.87020       -0.23370       -2.52210
H          2.38860       -0.08630       -2.81970
