60
rmsd69.gzmat
Br         0.00000        0.00000        0.00000
C          1.90290        0.00000        0.00000
C          2.56850        0.00000        1.21980
C          3.96230        0.00040        1.21860
C          4.65160       -0.00300        0.00680
C          6.13850        0.04720       -0.02240
O          6.73770        0.94050       -0.58670
N          6.85670       -1.00040        0.54990
C          6.26930       -1.95020        1.44510
C          5.49510       -2.96020        1.00110
C          5.09710       -3.18640       -0.38390
C          3.74580       -3.44590       -0.65210
C          3.32540       -3.65090       -1.95950
O          2.03610       -3.90760       -2.32840
C          1.03790       -3.71170       -1.33640
C          4.25990       -3.61900       -3.01630
O          4.02700       -3.81290       -4.34080
C          2.68410       -4.00630       -4.76230
C          5.60720       -3.37390       -2.73880
C          6.02110       -3.15930       -1.42780
C          6.62660       -1.76150        2.86330
C          7.72840       -0.97600        3.22020
C          8.55790       -0.27340        2.19120
C          8.29930       -0.81650        0.77420
C          8.05550       -0.79540        4.56780
C          7.28780       -1.38780        5.56260
O          7.51560       -1.26850        6.89960
C          8.63900       -0.49530        7.29980
C          6.17030       -2.17530        5.21040
O          5.30860       -2.82210        6.04010
C          5.52450       -2.72020        7.44030
C          5.84910       -2.35160        3.86570
C          3.96750        0.00820       -1.20890
C          2.57330        0.00510       -1.21690
H          2.02880        0.00130        2.16640
H          4.50830       -0.00190        2.16460
H          5.09030       -3.69160        1.70860
H          3.03640       -3.47270        0.17100
H          0.11090       -3.81560       -1.91580
H          1.10260       -2.71210       -0.89720
H          1.10170       -4.48930       -0.56950
H          2.79530       -4.10940       -5.84950
H          2.06700       -3.13610       -4.51630
H          2.26980       -4.92400       -4.33020
H          6.32180       -3.34780       -3.56010
H          7.07220       -2.96170       -1.21720
H          8.32500        0.81530        2.21990
H          9.63750       -0.35340        2.42660
H          8.71110       -0.12330        0.00350
H          8.79990       -1.80120        0.63340
H          8.91530       -0.18240        4.82490
H          8.57470       -0.55030        8.39520
H          8.54420        0.54230        6.96490
H          9.57050       -0.94940        6.94740
H          5.43550       -1.68130        7.77530
H          6.49290       -3.14800        7.72030
H          4.70320       -3.32790        7.84320
H          4.97450       -2.95590        3.61740
H          4.52450        0.01860       -2.14950
H          2.03860        0.00840       -2.16650
