60
rmsd105.gzmat
Br         0.00000        0.00000        0.00000
C          1.90260        0.00000        0.00000
C          2.57000        0.00000        1.21910
C          3.96390       -0.01970        1.21620
C          4.65090       -0.04210        0.00360
C          6.13830       -0.05200       -0.03440
O          6.77450        0.81570       -0.59780
N          6.81070       -1.14370        0.51230
C          6.21180       -2.04070        1.45290
C          5.36310       -3.01820        1.07760
C          4.84080       -3.23420       -0.26600
C          3.46960       -3.50060       -0.39720
C          2.91150       -3.65960       -1.65790
O          1.58940       -3.89820       -1.89860
C          0.73640       -3.97350       -0.76480
C          3.72690       -3.57400       -2.80710
O          3.34220       -3.66180       -4.10720
C          2.01150       -4.07620       -4.38220
C          5.09720       -3.34430       -2.66610
C          5.64940       -3.17550       -1.39980
C          6.64530       -1.84360        2.84810
C          7.82450       -1.14760        3.13600
C          8.65070       -0.52760        2.05290
C          8.27300       -1.06450        0.66040
C          8.23530       -0.97800        4.46240
C          7.46730       -1.48610        5.50260
O          7.77820       -1.39840        6.82400
C          8.97640       -0.71150        7.16170
C          6.25450       -2.15210        5.21950
O          5.40850       -2.72550        6.11920
C          5.42860       -2.20880        7.44430
C          5.85610       -2.32740        3.89780
C          3.96550       -0.01300       -1.21140
C          2.57120        0.00210       -1.21760
H          2.03160        0.01550        2.16580
H          4.51180       -0.02240        2.16080
H          4.97850       -3.71870        1.82720
H          2.85440       -3.56210        0.49660
H         -0.24910       -4.11760       -1.22690
H          0.75460       -3.04080       -0.19290
H          0.99810       -4.83130       -0.13820
H          2.02030       -4.16760       -5.47600
H          1.29740       -3.30910       -4.06230
H          1.79130       -5.04220       -3.91720
H          5.72170       -3.29370       -3.55700
H          6.71860       -2.98980       -1.29640
H          8.50570        0.57670        2.07560
H          9.73170       -0.69000        2.23190
H          8.69350       -0.41370       -0.14150
H          8.68970       -2.08680        0.50970
H          9.16070       -0.44640        4.66610
H          8.99030       -0.80080        8.25670
H          8.92280        0.34010        6.86290
H          9.85060       -1.20810        6.72840
H          5.44620       -1.11580        7.45930
H          6.28330       -2.62600        7.98910
H          4.48390       -2.58560        7.85690
H          4.91460       -2.84420        3.70270
H          4.52050       -0.00700       -2.15280
H          2.03470        0.01090       -2.16690
