50
rmsd192.gzmat
Cl         0.00000        0.00000        0.00000
C          1.70270        0.00000        0.00000
C          2.36020        0.00000        1.22100
C          3.75570       -0.08790        1.23770
C          4.45600       -0.25180        2.54980
C          3.78150       -1.36030        3.32620
O          3.12060       -1.13420        4.31980
N          3.73590       -2.65290        2.78880
C          3.03580       -3.68350        3.59470
H          2.78510       -3.25380        4.61410
C          3.86360       -4.89610        3.77840
C          3.63000       -6.10120        4.52710
C          4.76680       -6.85170        4.38880
O          5.70470       -6.19640        3.59980
C          5.12680       -5.00700        3.24670
C          5.81380       -4.02600        2.40220
C          4.70620       -3.13260        1.78910
C          1.71870       -4.06970        2.85400
N          0.85630       -2.85580        2.63810
H          1.45140       -2.09000        2.21120
C          0.25360       -2.31570        3.92220
C         -0.94120       -1.47940        3.42440
H         -1.70410       -1.29040        4.20570
O         -0.34970       -0.27290        3.01220
C         -1.47370       -2.24830        2.19720
C         -0.32560       -3.14570        1.71540
C          4.47310       -0.07530        0.03880
C          3.80250       -0.03300       -1.18190
C          2.41110       -0.02000       -1.19480
Cl         1.60300       -0.02420       -2.68340
H          1.80240        0.09870        2.16010
H          4.38520        0.69620        3.14860
H          5.54730       -0.42810        2.44520
H          2.74750       -6.33700        5.08400
H          5.10830       -7.80310        4.73640
H          6.53600       -3.42280        2.99850
H          6.41940       -4.50050        1.59940
H          5.16560       -2.27490        1.25150
H          4.14380       -3.71780        1.02220
H          1.17420       -4.84200        3.44050
H          1.96610       -4.52540        1.86700
H         -0.05750       -3.13360        4.59960
H          0.99940       -1.67940        4.46820
H         -1.01240        0.44040        2.87350
H         -1.80990       -1.54690        1.40820
H         -2.37000       -2.84260        2.45620
H         -0.03400       -2.93310        0.66460
H         -0.59960       -4.22080        1.76910
H          5.56530       -0.08750        0.05150
H          4.36770       -0.01310       -2.11980
