rmsd193.gzmat
 OpenBabel08211713363D

 50 53  0  0  1  0  0  0  0  0999 V2000
    0.0000    0.0000    0.0000 Cl  0  0  0  0  0  0  0  0  0  0  0  0
    1.7009    0.0000    0.0000 C   0  0  0  0  0  0  0  0  0  0  0  0
    2.3631    0.0000    1.2181 C   0  0  0  0  0  0  0  0  0  0  0  0
    3.7613   -0.0491    1.2288 C   0  0  0  0  0  0  0  0  0  0  0  0
    4.4645   -0.2013    2.5426 C   0  0  0  0  0  0  0  0  0  0  0  0
    3.8780   -1.4241    3.2104 C   0  0  0  0  0  0  0  0  0  0  0  0
    3.0323   -1.3277    4.0798 O   0  0  0  0  0  0  0  0  0  0  0  0
    4.1178   -2.6899    2.6752 N   0  0  0  0  0  0  0  0  0  0  0  0
    3.4208   -3.8266    3.3260 C   0  0  2  0  0  0  0  0  0  0  0  0
    3.0442   -3.4950    4.3442 H   0  0  0  0  0  0  0  0  0  0  0  0
    4.3163   -4.9896    3.5082 C   0  0  0  0  0  0  0  0  0  0  0  0
    4.0802   -6.2889    4.0769 C   0  0  0  0  0  0  0  0  0  0  0  0
    5.2899   -6.9299    4.0542 C   0  0  0  0  0  0  0  0  0  0  0  0
    6.2749   -6.1188    3.5034 O   0  0  0  0  0  0  0  0  0  0  0  0
    5.6515   -4.9430    3.1838 C   0  0  0  0  0  0  0  0  0  0  0  0
    6.3603   -3.8222    2.5600 C   0  0  0  0  0  0  0  0  0  0  0  0
    5.2799   -2.9920    1.8222 C   0  0  0  0  0  0  0  0  0  0  0  0
    2.2125   -4.2427    2.4332 C   0  0  0  0  0  0  0  0  0  0  0  0
    1.2225   -3.1156    2.3098 N   0  0  0  0  0  0  0  0  0  0  0  0
    1.7475   -2.2260    2.0784 H   0  0  0  0  0  0  0  0  0  0  0  0
    0.4388   -2.8596    3.5852 C   0  0  0  0  0  0  0  0  0  0  0  0
   -0.8270   -2.1382    3.0820 C   0  0  1  0  0  0  0  0  0  0  0  0
   -1.6693   -2.1707    3.8012 H   0  0  0  0  0  0  0  0  0  0  0  0
   -0.3950   -0.8156    2.8833 O   0  0  0  0  0  0  0  0  0  0  0  0
   -1.1367   -2.7958    1.7219 C   0  0  0  0  0  0  0  0  0  0  0  0
    0.1870   -3.3851    1.2187 C   0  0  0  0  0  0  0  0  0  0  0  0
    4.4748   -0.0181    0.0290 C   0  0  0  0  0  0  0  0  0  0  0  0
    3.7981    0.0023   -1.1897 C   0  0  0  0  0  0  0  0  0  0  0  0
    2.4068   -0.0100   -1.1970 C   0  0  0  0  0  0  0  0  0  0  0  0
    1.5904   -0.0326   -2.6813 Cl  0  0  0  0  0  0  0  0  0  0  0  0
    1.8049    0.0633    2.1618 H   0  0  0  0  0  0  0  0  0  0  0  0
    4.2742    0.6916    3.1956 H   0  0  0  0  0  0  0  0  0  0  0  0
    5.5681   -0.2459    2.4515 H   0  0  0  0  0  0  0  0  0  0  0  0
    3.1468   -6.6550    4.4493 H   0  0  0  0  0  0  0  0  0  0  0  0
    5.6592   -7.8860    4.3573 H   0  0  0  0  0  0  0  0  0  0  0  0
    6.8864   -3.2078    3.3266 H   0  0  0  0  0  0  0  0  0  0  0  0
    7.1527   -4.1517    1.8532 H   0  0  0  0  0  0  0  0  0  0  0  0
    5.7257   -2.0527    1.4283 H   0  0  0  0  0  0  0  0  0  0  0  0
    4.9164   -3.5651    0.9353 H   0  0  0  0  0  0  0  0  0  0  0  0
    1.7262   -5.1481    2.8596 H   0  0  0  0  0  0  0  0  0  0  0  0
    2.5822   -4.5198    1.4184 H   0  0  0  0  0  0  0  0  0  0  0  0
    0.2069   -3.7997    4.1190 H   0  0  0  0  0  0  0  0  0  0  0  0
    1.0317   -2.2040    4.2776 H   0  0  0  0  0  0  0  0  0  0  0  0
   -1.1454   -0.1872    2.7902 H   0  0  0  0  0  0  0  0  0  0  0  0
   -1.5565   -2.0568    1.0109 H   0  0  0  0  0  0  0  0  0  0  0  0
   -1.9154   -3.5751    1.8228 H   0  0  0  0  0  0  0  0  0  0  0  0
    0.5253   -2.9112    0.2721 H   0  0  0  0  0  0  0  0  0  0  0  0
    0.1014   -4.4755    1.0279 H   0  0  0  0  0  0  0  0  0  0  0  0
    5.5664    0.0020    0.0367 H   0  0  0  0  0  0  0  0  0  0  0  0
    4.3596    0.0276   -2.1294 H   0  0  0  0  0  0  0  0  0  0  0  0
  1  2  1  0  0  0  0
  2  3  2  0  0  0  0
  3  4  1  0  0  0  0
  3 31  1  0  0  0  0
  4  5  1  0  0  0  0
  5 32  1  0  0  0  0
  5  6  1  0  0  0  0
  6  7  2  0  0  0  0
  8  6  1  0  0  0  0
  8  9  1  0  0  0  0
  9 11  1  0  0  0  0
  9 10  1  1  0  0  0
 11 12  1  0  0  0  0
 12 34  1  0  0  0  0
 13 12  2  0  0  0  0
 13 35  1  0  0  0  0
 14 13  1  0  0  0  0
 15 14  1  0  0  0  0
 15 11  2  0  0  0  0
 16 15  1  0  0  0  0
 16 36  1  0  0  0  0
 17 16  1  0  0  0  0
 17  8  1  0  0  0  0
 18 40  1  0  0  0  0
 18  9  1  0  0  0  0
 19 18  1  0  0  0  0
 19 21  1  0  0  0  0
 20 19  1  0  0  0  0
 21 42  1  0  0  0  0
 21 43  1  0  0  0  0
 22 21  1  0  0  0  0
 22 23  1  1  0  0  0
 24 22  1  0  0  0  0
 25 46  1  0  0  0  0
 25 22  1  0  0  0  0
 26 25  1  0  0  0  0
 26 19  1  0  0  0  0
 27 49  1  0  0  0  0
 27  4  2  0  0  0  0
 28 27  1  0  0  0  0
 29 28  2  0  0  0  0
 29  2  1  0  0  0  0
 30 29  1  0  0  0  0
 33  5  1  0  0  0  0
 37 16  1  0  0  0  0
 38 17  1  0  0  0  0
 39 17  1  0  0  0  0
 41 18  1  0  0  0  0
 44 24  1  0  0  0  0
 45 25  1  0  0  0  0
 47 26  1  0  0  0  0
 48 26  1  0  0  0  0
 50 28  1  0  0  0  0
M  END
$$$$
