rmsd104.gzmat
 OpenBabel08211713363D

 50 53  0  0  1  0  0  0  0  0999 V2000
    0.0000    0.0000    0.0000 Cl  0  0  0  0  0  0  0  0  0  0  0  0
    1.6976    0.0000    0.0000 C   0  0  0  0  0  0  0  0  0  0  0  0
    2.3560    0.0000    1.2207 C   0  0  0  0  0  0  0  0  0  0  0  0
    3.7538   -0.0497    1.2392 C   0  0  0  0  0  0  0  0  0  0  0  0
    4.4497   -0.1981    2.5579 C   0  0  0  0  0  0  0  0  0  0  0  0
    3.8485   -1.4136    3.2245 C   0  0  0  0  0  0  0  0  0  0  0  0
    2.9685   -1.3074    4.0620 O   0  0  0  0  0  0  0  0  0  0  0  0
    4.1186   -2.6868    2.7355 N   0  0  0  0  0  0  0  0  0  0  0  0
    3.4374   -3.8203    3.4054 C   0  0  2  0  0  0  0  0  0  0  0  0
    3.0701   -3.4785    4.4228 H   0  0  0  0  0  0  0  0  0  0  0  0
    4.3496   -4.9703    3.5879 C   0  0  0  0  0  0  0  0  0  0  0  0
    4.1482   -6.2482    4.2157 C   0  0  0  0  0  0  0  0  0  0  0  0
    5.3538   -6.8931    4.1426 C   0  0  0  0  0  0  0  0  0  0  0  0
    6.3060   -6.1009    3.5124 O   0  0  0  0  0  0  0  0  0  0  0  0
    5.6649   -4.9355    3.1894 C   0  0  0  0  0  0  0  0  0  0  0  0
    6.3451   -3.8358    2.5004 C   0  0  0  0  0  0  0  0  0  0  0  0
    5.2350   -2.9920    1.8253 C   0  0  0  0  0  0  0  0  0  0  0  0
    2.2227   -4.2621    2.5313 C   0  0  0  0  0  0  0  0  0  0  0  0
    1.2113   -3.1540    2.4220 N   0  0  0  0  0  0  0  0  0  0  0  0
    1.7147   -2.2482    2.2034 H   0  0  0  0  0  0  0  0  0  0  0  0
    0.4237   -2.9355    3.7006 C   0  0  0  0  0  0  0  0  0  0  0  0
   -0.8136   -2.1536    3.2015 C   0  0  1  0  0  0  0  0  0  0  0  0
   -1.6624   -2.1666    3.9109 H   0  0  0  0  0  0  0  0  0  0  0  0
   -0.3967   -0.8418    2.9216 O   0  0  0  0  0  0  0  0  0  0  0  0
   -1.1313   -2.7779    1.8280 C   0  0  0  0  0  0  0  0  0  0  0  0
    0.1717   -3.4212    1.3346 C   0  0  0  0  0  0  0  0  0  0  0  0
    4.4732   -0.0227    0.0434 C   0  0  0  0  0  0  0  0  0  0  0  0
    3.8022   -0.0006   -1.1784 C   0  0  0  0  0  0  0  0  0  0  0  0
    2.4113   -0.0108   -1.1929 C   0  0  0  0  0  0  0  0  0  0  0  0
    1.6038   -0.0353   -2.6823 Cl  0  0  0  0  0  0  0  0  0  0  0  0
    1.7921    0.0616    2.1593 H   0  0  0  0  0  0  0  0  0  0  0  0
    4.2642    0.7003    3.2041 H   0  0  0  0  0  0  0  0  0  0  0  0
    5.5537   -0.2505    2.4734 H   0  0  0  0  0  0  0  0  0  0  0  0
    3.2391   -6.5975    4.6577 H   0  0  0  0  0  0  0  0  0  0  0  0
    5.7377   -7.8435    4.4465 H   0  0  0  0  0  0  0  0  0  0  0  0
    6.9364   -3.2224    3.2186 H   0  0  0  0  0  0  0  0  0  0  0  0
    7.0794   -4.1904    1.7439 H   0  0  0  0  0  0  0  0  0  0  0  0
    5.6696   -2.0529    1.4175 H   0  0  0  0  0  0  0  0  0  0  0  0
    4.8235   -3.5553    0.9529 H   0  0  0  0  0  0  0  0  0  0  0  0
    1.7596   -5.1749    2.9684 H   0  0  0  0  0  0  0  0  0  0  0  0
    2.5803   -4.5379    1.5122 H   0  0  0  0  0  0  0  0  0  0  0  0
    0.1534   -3.8960    4.1787 H   0  0  0  0  0  0  0  0  0  0  0  0
    1.0283   -2.3445    4.4302 H   0  0  0  0  0  0  0  0  0  0  0  0
   -0.5175   -0.2376    3.6874 H   0  0  0  0  0  0  0  0  0  0  0  0
   -1.5020   -1.9953    1.1300 H   0  0  0  0  0  0  0  0  0  0  0  0
   -1.9523   -3.5142    1.9022 H   0  0  0  0  0  0  0  0  0  0  0  0
    0.5217   -2.9797    0.3767 H   0  0  0  0  0  0  0  0  0  0  0  0
    0.0547   -4.5133    1.1736 H   0  0  0  0  0  0  0  0  0  0  0  0
    5.5645   -0.0067    0.0562 H   0  0  0  0  0  0  0  0  0  0  0  0
    4.3682    0.0249   -2.1150 H   0  0  0  0  0  0  0  0  0  0  0  0
  1  2  1  0  0  0  0
  2  3  2  0  0  0  0
  3  4  1  0  0  0  0
  3 31  1  0  0  0  0
  4  5  1  0  0  0  0
  5 32  1  0  0  0  0
  5  6  1  0  0  0  0
  6  7  2  0  0  0  0
  8  6  1  0  0  0  0
  8  9  1  0  0  0  0
  9 11  1  0  0  0  0
  9 10  1  1  0  0  0
 11 12  1  0  0  0  0
 12 34  1  0  0  0  0
 13 12  2  0  0  0  0
 13 35  1  0  0  0  0
 14 13  1  0  0  0  0
 15 14  1  0  0  0  0
 15 11  2  0  0  0  0
 16 15  1  0  0  0  0
 16 36  1  0  0  0  0
 17 16  1  0  0  0  0
 17  8  1  0  0  0  0
 18 40  1  0  0  0  0
 18  9  1  0  0  0  0
 19 18  1  0  0  0  0
 19 21  1  0  0  0  0
 20 19  1  0  0  0  0
 21 42  1  0  0  0  0
 21 43  1  0  0  0  0
 22 21  1  0  0  0  0
 22 23  1  1  0  0  0
 24 22  1  0  0  0  0
 24 44  1  0  0  0  0
 25 46  1  0  0  0  0
 25 22  1  0  0  0  0
 26 25  1  0  0  0  0
 26 19  1  0  0  0  0
 27 49  1  0  0  0  0
 27  4  2  0  0  0  0
 28 27  1  0  0  0  0
 29 28  2  0  0  0  0
 29  2  1  0  0  0  0
 30 29  1  0  0  0  0
 33  5  1  0  0  0  0
 37 16  1  0  0  0  0
 38 17  1  0  0  0  0
 39 17  1  0  0  0  0
 41 18  1  0  0  0  0
 45 25  1  0  0  0  0
 47 26  1  0  0  0  0
 48 26  1  0  0  0  0
 50 28  1  0  0  0  0
M  END
$$$$
