rmsd42.gzmat
 OpenBabel08211713363D

 50 53  0  0  1  0  0  0  0  0999 V2000
    0.0000    0.0000    0.0000 Cl  0  0  0  0  0  0  0  0  0  0  0  0
    1.7024    0.0000    0.0000 C   0  0  0  0  0  0  0  0  0  0  0  0
    2.3501    0.0000    1.2269 C   0  0  0  0  0  0  0  0  0  0  0  0
    3.7435    0.1073    1.2545 C   0  0  0  0  0  0  0  0  0  0  0  0
    4.4321    0.3376    2.5666 C   0  0  0  0  0  0  0  0  0  0  0  0
    4.0959    1.7691    2.9315 C   0  0  0  0  0  0  0  0  0  0  0  0
    4.7176    2.6993    2.4630 O   0  0  0  0  0  0  0  0  0  0  0  0
    2.8936    2.0407    3.6104 N   0  0  0  0  0  0  0  0  0  0  0  0
    2.5549    3.4771    3.7843 C   0  0  2  0  0  0  0  0  0  0  0  0
    3.4042    4.1135    3.3836 H   0  0  0  0  0  0  0  0  0  0  0  0
    2.3238    3.8299    5.2017 C   0  0  0  0  0  0  0  0  0  0  0  0
    2.0375    5.0906    5.8310 C   0  0  0  0  0  0  0  0  0  0  0  0
    1.9766    4.8304    7.1738 C   0  0  0  0  0  0  0  0  0  0  0  0
    2.2080    3.4846    7.4326 O   0  0  0  0  0  0  0  0  0  0  0  0
    2.4207    2.9026    6.2120 C   0  0  0  0  0  0  0  0  0  0  0  0
    2.7037    1.4723    6.0658 C   0  0  0  0  0  0  0  0  0  0  0  0
    2.3389    1.1031    4.6056 C   0  0  0  0  0  0  0  0  0  0  0  0
    1.2558    3.7741    2.9729 C   0  0  0  0  0  0  0  0  0  0  0  0
    1.3983    3.3229    1.5457 N   0  0  0  0  0  0  0  0  0  0  0  0
    1.7333    2.3159    1.5400 H   0  0  0  0  0  0  0  0  0  0  0  0
    2.3878    4.1478    0.7469 C   0  0  0  0  0  0  0  0  0  0  0  0
    2.0148    3.8157   -0.7168 C   0  0  1  0  0  0  0  0  0  0  0  0
    2.3205    4.6008   -1.4350 H   0  0  0  0  0  0  0  0  0  0  0  0
    2.6081    2.5800   -1.0292 O   0  0  0  0  0  0  0  0  0  0  0  0
    0.4961    3.5431   -0.7003 C   0  0  0  0  0  0  0  0  0  0  0  0
    0.0877    3.4234    0.7723 C   0  0  0  0  0  0  0  0  0  0  0  0
    4.4712    0.1043    0.0620 C   0  0  0  0  0  0  0  0  0  0  0  0
    3.8121    0.0582   -1.1651 C   0  0  0  0  0  0  0  0  0  0  0  0
    2.4196    0.0396   -1.1886 C   0  0  0  0  0  0  0  0  0  0  0  0
    1.6186    0.0907   -2.6809 Cl  0  0  0  0  0  0  0  0  0  0  0  0
    1.7848   -0.0851    2.1553 H   0  0  0  0  0  0  0  0  0  0  0  0
    5.5426    0.2391    2.4782 H   0  0  0  0  0  0  0  0  0  0  0  0
    4.1454   -0.4120    3.3306 H   0  0  0  0  0  0  0  0  0  0  0  0
    1.9185    6.0306    5.3342 H   0  0  0  0  0  0  0  0  0  0  0  0
    1.8001    5.4001    8.0610 H   0  0  0  0  0  0  0  0  0  0  0  0
    3.7752    1.2540    6.2811 H   0  0  0  0  0  0  0  0  0  0  0  0
    2.1282    0.8448    6.7816 H   0  0  0  0  0  0  0  0  0  0  0  0
    2.6754    0.0651    4.3856 H   0  0  0  0  0  0  0  0  0  0  0  0
    1.2281    1.1079    4.4936 H   0  0  0  0  0  0  0  0  0  0  0  0
    1.0317    4.8627    3.0225 H   0  0  0  0  0  0  0  0  0  0  0  0
    0.3932    3.2423    3.4385 H   0  0  0  0  0  0  0  0  0  0  0  0
    2.2873    5.2274    0.9734 H   0  0  0  0  0  0  0  0  0  0  0  0
    3.4361    3.8485    0.9909 H   0  0  0  0  0  0  0  0  0  0  0  0
    3.4821    2.6839   -1.4678 H   0  0  0  0  0  0  0  0  0  0  0  0
    0.2756    2.6148   -1.2749 H   0  0  0  0  0  0  0  0  0  0  0  0
   -0.0655    4.3410   -1.2205 H   0  0  0  0  0  0  0  0  0  0  0  0
   -0.5411    2.5313    0.9742 H   0  0  0  0  0  0  0  0  0  0  0  0
   -0.4877    4.3125    1.1105 H   0  0  0  0  0  0  0  0  0  0  0  0
    5.5638    0.1507    0.0873 H   0  0  0  0  0  0  0  0  0  0  0  0
    4.3867    0.0395   -2.0966 H   0  0  0  0  0  0  0  0  0  0  0  0
  1  2  1  0  0  0  0
  2  3  2  0  0  0  0
  3  4  1  0  0  0  0
  3 31  1  0  0  0  0
  4  5  1  0  0  0  0
  5  6  1  0  0  0  0
  5 33  1  0  0  0  0
  6  8  1  0  0  0  0
  7  6  2  0  0  0  0
  8  9  1  0  0  0  0
  8 17  1  0  0  0  0
  9 10  1  6  0  0  0
  9 11  1  0  0  0  0
 11 12  1  0  0  0  0
 11 15  2  0  0  0  0
 12 13  2  0  0  0  0
 13 14  1  0  0  0  0
 13 35  1  0  0  0  0
 15 14  1  0  0  0  0
 16 15  1  0  0  0  0
 16 36  1  0  0  0  0
 16 37  1  0  0  0  0
 17 16  1  0  0  0  0
 18 40  1  0  0  0  0
 18 41  1  0  0  0  0
 18  9  1  0  0  0  0
 19 18  1  0  0  0  0
 20 19  1  0  0  0  0
 21 42  1  0  0  0  0
 21 43  1  0  0  0  0
 21 19  1  0  0  0  0
 22 23  1  6  0  0  0
 22 25  1  0  0  0  0
 22 21  1  0  0  0  0
 24 22  1  0  0  0  0
 25 26  1  0  0  0  0
 26 47  1  0  0  0  0
 26 48  1  0  0  0  0
 26 19  1  0  0  0  0
 27 49  1  0  0  0  0
 27  4  2  0  0  0  0
 28 27  1  0  0  0  0
 29 28  2  0  0  0  0
 29  2  1  0  0  0  0
 30 29  1  0  0  0  0
 32  5  1  0  0  0  0
 34 12  1  0  0  0  0
 38 17  1  0  0  0  0
 39 17  1  0  0  0  0
 44 24  1  0  0  0  0
 45 25  1  0  0  0  0
 46 25  1  0  0  0  0
 50 28  1  0  0  0  0
M  END
$$$$
