rmsd247.gzmat
 OpenBabel08211713363D

 50 53  0  0  1  0  0  0  0  0999 V2000
    0.0000    0.0000    0.0000 Cl  0  0  0  0  0  0  0  0  0  0  0  0
    1.7025    0.0000    0.0000 C   0  0  0  0  0  0  0  0  0  0  0  0
    2.3519    0.0000    1.2260 C   0  0  0  0  0  0  0  0  0  0  0  0
    3.7442    0.1195    1.2517 C   0  0  0  0  0  0  0  0  0  0  0  0
    4.4312    0.3531    2.5637 C   0  0  0  0  0  0  0  0  0  0  0  0
    4.1103    1.7902    2.9198 C   0  0  0  0  0  0  0  0  0  0  0  0
    4.7636    2.7111    2.4806 O   0  0  0  0  0  0  0  0  0  0  0  0
    2.8868    2.0768    3.5584 N   0  0  0  0  0  0  0  0  0  0  0  0
    2.5625    3.5179    3.7180 C   0  0  2  0  0  0  0  0  0  0  0  0
    3.4218    4.1432    3.3210 H   0  0  0  0  0  0  0  0  0  0  0  0
    2.3182    3.8837    5.1305 C   0  0  0  0  0  0  0  0  0  0  0  0
    2.0384    5.1511    5.7489 C   0  0  0  0  0  0  0  0  0  0  0  0
    1.9582    4.9000    7.0924 C   0  0  0  0  0  0  0  0  0  0  0  0
    2.1714    3.5536    7.3621 O   0  0  0  0  0  0  0  0  0  0  0  0
    2.3920    2.9619    6.1479 C   0  0  0  0  0  0  0  0  0  0  0  0
    2.6579    1.5271    6.0151 C   0  0  0  0  0  0  0  0  0  0  0  0
    2.3053    1.1546    4.5527 C   0  0  0  0  0  0  0  0  0  0  0  0
    1.2770    3.8182    2.8878 C   0  0  0  0  0  0  0  0  0  0  0  0
    1.4195    3.3318    1.4706 N   0  0  0  0  0  0  0  0  0  0  0  0
    1.7350    2.3193    1.4904 H   0  0  0  0  0  0  0  0  0  0  0  0
    2.4275    4.1204    0.6589 C   0  0  0  0  0  0  0  0  0  0  0  0
    2.0241    3.8406   -0.8052 C   0  0  1  0  0  0  0  0  0  0  0  0
    2.3062    4.6622   -1.4922 H   0  0  0  0  0  0  0  0  0  0  0  0
    2.6823    2.6440   -1.1437 O   0  0  0  0  0  0  0  0  0  0  0  0
    0.5077    3.5509   -0.7748 C   0  0  0  0  0  0  0  0  0  0  0  0
    0.1089    3.4454    0.6998 C   0  0  0  0  0  0  0  0  0  0  0  0
    4.4716    0.1241    0.0590 C   0  0  0  0  0  0  0  0  0  0  0  0
    3.8115    0.0697   -1.1671 C   0  0  0  0  0  0  0  0  0  0  0  0
    2.4196    0.0398   -1.1876 C   0  0  0  0  0  0  0  0  0  0  0  0
    1.6165    0.0774   -2.6820 Cl  0  0  0  0  0  0  0  0  0  0  0  0
    1.7893   -0.0953    2.1550 H   0  0  0  0  0  0  0  0  0  0  0  0
    5.5407    0.2416    2.4798 H   0  0  0  0  0  0  0  0  0  0  0  0
    4.1334   -0.3865    3.3333 H   0  0  0  0  0  0  0  0  0  0  0  0
    1.9344    6.0892    5.2450 H   0  0  0  0  0  0  0  0  0  0  0  0
    1.7751    5.4762    7.9737 H   0  0  0  0  0  0  0  0  0  0  0  0
    3.7234    1.2959    6.2453 H   0  0  0  0  0  0  0  0  0  0  0  0
    2.0661    0.9118    6.7281 H   0  0  0  0  0  0  0  0  0  0  0  0
    2.6282    0.1104    4.3426 H   0  0  0  0  0  0  0  0  0  0  0  0
    1.1962    1.1768    4.4272 H   0  0  0  0  0  0  0  0  0  0  0  0
    1.0704    4.9109    2.9114 H   0  0  0  0  0  0  0  0  0  0  0  0
    0.4025    3.3105    3.3583 H   0  0  0  0  0  0  0  0  0  0  0  0
    2.3892    5.1993    0.9069 H   0  0  0  0  0  0  0  0  0  0  0  0
    3.4672    3.7624    0.8713 H   0  0  0  0  0  0  0  0  0  0  0  0
    3.0654    2.6742   -2.0483 H   0  0  0  0  0  0  0  0  0  0  0  0
    0.2909    2.6138   -1.3328 H   0  0  0  0  0  0  0  0  0  0  0  0
   -0.0689    4.3355   -1.2986 H   0  0  0  0  0  0  0  0  0  0  0  0
   -0.5333    2.5649    0.9112 H   0  0  0  0  0  0  0  0  0  0  0  0
   -0.4501    4.3462    1.0354 H   0  0  0  0  0  0  0  0  0  0  0  0
    5.5635    0.1870    0.0828 H   0  0  0  0  0  0  0  0  0  0  0  0
    4.3853    0.0599   -2.0987 H   0  0  0  0  0  0  0  0  0  0  0  0
  1  2  1  0  0  0  0
  2  3  2  0  0  0  0
  3  4  1  0  0  0  0
  3 31  1  0  0  0  0
  4  5  1  0  0  0  0
  5  6  1  0  0  0  0
  5 33  1  0  0  0  0
  6  8  1  0  0  0  0
  7  6  2  0  0  0  0
  8  9  1  0  0  0  0
  8 17  1  0  0  0  0
  9 10  1  6  0  0  0
  9 11  1  0  0  0  0
 11 12  1  0  0  0  0
 11 15  2  0  0  0  0
 12 13  2  0  0  0  0
 13 14  1  0  0  0  0
 13 35  1  0  0  0  0
 15 14  1  0  0  0  0
 16 15  1  0  0  0  0
 16 36  1  0  0  0  0
 16 37  1  0  0  0  0
 17 16  1  0  0  0  0
 18 40  1  0  0  0  0
 18 41  1  0  0  0  0
 18  9  1  0  0  0  0
 19 20  1  0  0  0  0
 19 18  1  0  0  0  0
 21 43  1  0  0  0  0
 21 42  1  0  0  0  0
 21 19  1  0  0  0  0
 22 23  1  6  0  0  0
 22 25  1  0  0  0  0
 22 21  1  0  0  0  0
 24 22  1  0  0  0  0
 25 26  1  0  0  0  0
 26 47  1  0  0  0  0
 26 48  1  0  0  0  0
 26 19  1  0  0  0  0
 27 49  1  0  0  0  0
 27  4  2  0  0  0  0
 28 27  1  0  0  0  0
 29 28  2  0  0  0  0
 29  2  1  0  0  0  0
 30 29  1  0  0  0  0
 32  5  1  0  0  0  0
 34 12  1  0  0  0  0
 38 17  1  0  0  0  0
 39 17  1  0  0  0  0
 44 24  1  0  0  0  0
 45 25  1  0  0  0  0
 46 25  1  0  0  0  0
 50 28  1  0  0  0  0
M  END
$$$$
