rmsd43.gzmat
 OpenBabel08211713363D

 50 53  0  0  1  0  0  0  0  0999 V2000
    0.0000    0.0000    0.0000 Cl  0  0  0  0  0  0  0  0  0  0  0  0
    1.7028    0.0000    0.0000 C   0  0  0  0  0  0  0  0  0  0  0  0
    2.3480    0.0000    1.2278 C   0  0  0  0  0  0  0  0  0  0  0  0
    3.7410    0.1131    1.2576 C   0  0  0  0  0  0  0  0  0  0  0  0
    4.4225    0.3343    2.5746 C   0  0  0  0  0  0  0  0  0  0  0  0
    4.0475    1.7449    2.9772 C   0  0  0  0  0  0  0  0  0  0  0  0
    4.6204    2.7075    2.5129 O   0  0  0  0  0  0  0  0  0  0  0  0
    2.8603    1.9605    3.7025 N   0  0  0  0  0  0  0  0  0  0  0  0
    2.5068    3.3802    3.9649 C   0  0  2  0  0  0  0  0  0  0  0  0
    3.3178    4.0528    3.5450 H   0  0  0  0  0  0  0  0  0  0  0  0
    2.3606    3.6565    5.4108 C   0  0  0  0  0  0  0  0  0  0  0  0
    2.1280    4.8824    6.1247 C   0  0  0  0  0  0  0  0  0  0  0  0
    2.1564    4.5513    7.4529 C   0  0  0  0  0  0  0  0  0  0  0  0
    2.3951    3.1929    7.6234 O   0  0  0  0  0  0  0  0  0  0  0  0
    2.5180    2.6761    6.3622 C   0  0  0  0  0  0  0  0  0  0  0  0
    2.7822    1.2540    6.1258 C   0  0  0  0  0  0  0  0  0  0  0  0
    2.3464    0.9690    4.6664 C   0  0  0  0  0  0  0  0  0  0  0  0
    1.1585    3.6834    3.2412 C   0  0  0  0  0  0  0  0  0  0  0  0
    1.2236    3.2653    1.7974 N   0  0  0  0  0  0  0  0  0  0  0  0
    1.5922    2.2708    1.7502 H   0  0  0  0  0  0  0  0  0  0  0  0
    2.1356    4.1355    0.9560 C   0  0  0  0  0  0  0  0  0  0  0  0
    1.6775    3.8210   -0.4873 C   0  0  1  0  0  0  0  0  0  0  0  0
    1.9360    4.6160   -1.2126 H   0  0  0  0  0  0  0  0  0  0  0  0
    2.2591    2.5921   -0.8461 O   0  0  0  0  0  0  0  0  0  0  0  0
    0.1655    3.5377   -0.3788 C   0  0  0  0  0  0  0  0  0  0  0  0
   -0.1367    3.3336    1.1109 C   0  0  0  0  0  0  0  0  0  0  0  0
    4.4708    0.1188    0.0671 C   0  0  0  0  0  0  0  0  0  0  0  0
    3.8134    0.0686   -1.1607 C   0  0  0  0  0  0  0  0  0  0  0  0
    2.4219    0.0384   -1.1877 C   0  0  0  0  0  0  0  0  0  0  0  0
    1.6253    0.0663   -2.6827 Cl  0  0  0  0  0  0  0  0  0  0  0  0
    1.7830   -0.0921    2.1550 H   0  0  0  0  0  0  0  0  0  0  0  0
    5.5348    0.2688    2.4849 H   0  0  0  0  0  0  0  0  0  0  0  0
    4.1547   -0.4417    3.3194 H   0  0  0  0  0  0  0  0  0  0  0  0
    1.9819    5.8482    5.6880 H   0  0  0  0  0  0  0  0  0  0  0  0
    2.0440    5.0728    8.3793 H   0  0  0  0  0  0  0  0  0  0  0  0
    3.8599    1.0175    6.2798 H   0  0  0  0  0  0  0  0  0  0  0  0
    2.2348    0.5924    6.8328 H   0  0  0  0  0  0  0  0  0  0  0  0
    2.6623   -0.0559    4.3701 H   0  0  0  0  0  0  0  0  0  0  0  0
    1.2314    0.9879    4.6075 H   0  0  0  0  0  0  0  0  0  0  0  0
    0.9270    4.7673    3.3312 H   0  0  0  0  0  0  0  0  0  0  0  0
    0.3306    3.1311    3.7436 H   0  0  0  0  0  0  0  0  0  0  0  0
    2.0224    5.2069    1.2125 H   0  0  0  0  0  0  0  0  0  0  0  0
    3.2042    3.8594    1.1253 H   0  0  0  0  0  0  0  0  0  0  0  0
    3.0796    2.7055   -1.3754 H   0  0  0  0  0  0  0  0  0  0  0  0
   -0.0927    2.6412   -0.9872 H   0  0  0  0  0  0  0  0  0  0  0  0
   -0.4339    4.3597   -0.8113 H   0  0  0  0  0  0  0  0  0  0  0  0
   -0.7050    2.4007    1.3088 H   0  0  0  0  0  0  0  0  0  0  0  0
   -0.7307    4.1765    1.5250 H   0  0  0  0  0  0  0  0  0  0  0  0
    5.5629    0.1736    0.0937 H   0  0  0  0  0  0  0  0  0  0  0  0
    4.3903    0.0547   -2.0910 H   0  0  0  0  0  0  0  0  0  0  0  0
  1  2  1  0  0  0  0
  2  3  2  0  0  0  0
  3  4  1  0  0  0  0
  3 31  1  0  0  0  0
  4  5  1  0  0  0  0
  5  6  1  0  0  0  0
  5 33  1  0  0  0  0
  6  8  1  0  0  0  0
  7  6  2  0  0  0  0
  8  9  1  0  0  0  0
  8 17  1  0  0  0  0
  9 10  1  6  0  0  0
  9 11  1  0  0  0  0
 11 12  1  0  0  0  0
 11 15  2  0  0  0  0
 12 13  2  0  0  0  0
 13 14  1  0  0  0  0
 13 35  1  0  0  0  0
 15 14  1  0  0  0  0
 16 36  1  0  0  0  0
 16 15  1  0  0  0  0
 16 37  1  0  0  0  0
 17 16  1  0  0  0  0
 18 40  1  0  0  0  0
 18 41  1  0  0  0  0
 18  9  1  0  0  0  0
 19 18  1  0  0  0  0
 20 19  1  0  0  0  0
 21 43  1  0  0  0  0
 21 42  1  0  0  0  0
 21 19  1  0  0  0  0
 22 23  1  6  0  0  0
 22 25  1  0  0  0  0
 22 21  1  0  0  0  0
 24 22  1  0  0  0  0
 25 26  1  0  0  0  0
 26 47  1  0  0  0  0
 26 48  1  0  0  0  0
 26 19  1  0  0  0  0
 27 49  1  0  0  0  0
 27  4  2  0  0  0  0
 28 27  1  0  0  0  0
 29 28  2  0  0  0  0
 29  2  1  0  0  0  0
 30 29  1  0  0  0  0
 32  5  1  0  0  0  0
 34 12  1  0  0  0  0
 38 17  1  0  0  0  0
 39 17  1  0  0  0  0
 44 24  1  0  0  0  0
 45 25  1  0  0  0  0
 46 25  1  0  0  0  0
 50 28  1  0  0  0  0
M  END
$$$$
