rmsd103.gzmat
 OpenBabel08211713363D

 50 53  0  0  1  0  0  0  0  0999 V2000
    0.0000    0.0000    0.0000 Cl  0  0  0  0  0  0  0  0  0  0  0  0
    1.6988    0.0000    0.0000 C   0  0  0  0  0  0  0  0  0  0  0  0
    2.3543    0.0000    1.2220 C   0  0  0  0  0  0  0  0  0  0  0  0
    3.7510   -0.0657    1.2441 C   0  0  0  0  0  0  0  0  0  0  0  0
    4.4431   -0.2090    2.5640 C   0  0  0  0  0  0  0  0  0  0  0  0
    3.7820   -1.3441    3.3101 C   0  0  0  0  0  0  0  0  0  0  0  0
    2.9962   -1.1343    4.2170 O   0  0  0  0  0  0  0  0  0  0  0  0
    3.8887   -2.6503    2.8382 N   0  0  0  0  0  0  0  0  0  0  0  0
    3.1965   -3.7028    3.6219 C   0  0  2  0  0  0  0  0  0  0  0  0
    2.9340   -3.2870    4.6444 H   0  0  0  0  0  0  0  0  0  0  0  0
    4.0482   -4.9000    3.7969 C   0  0  0  0  0  0  0  0  0  0  0  0
    3.8152   -6.1358    4.4942 C   0  0  0  0  0  0  0  0  0  0  0  0
    4.9745   -6.8548    4.3753 C   0  0  0  0  0  0  0  0  0  0  0  0
    5.9258   -6.1513    3.6466 O   0  0  0  0  0  0  0  0  0  0  0  0
    5.3332   -4.9641    3.3108 C   0  0  0  0  0  0  0  0  0  0  0  0
    6.0238   -3.9440    2.5169 C   0  0  0  0  0  0  0  0  0  0  0  0
    4.9135   -3.0779    1.8706 C   0  0  0  0  0  0  0  0  0  0  0  0
    1.8891   -4.1086    2.8738 C   0  0  0  0  0  0  0  0  0  0  0  0
    0.9767   -2.9239    2.7112 N   0  0  0  0  0  0  0  0  0  0  0  0
    1.5462   -2.1008    2.3657 H   0  0  0  0  0  0  0  0  0  0  0  0
    0.3034   -2.5025    4.0038 C   0  0  0  0  0  0  0  0  0  0  0  0
   -0.8862   -1.6519    3.5027 C   0  0  1  0  0  0  0  0  0  0  0  0
   -1.6852   -1.5209    4.2569 H   0  0  0  0  0  0  0  0  0  0  0  0
   -0.3706   -0.4153    3.0799 O   0  0  0  0  0  0  0  0  0  0  0  0
   -1.3487   -2.3578    2.2123 C   0  0  0  0  0  0  0  0  0  0  0  0
   -0.1577   -3.1938    1.7245 C   0  0  0  0  0  0  0  0  0  0  0  0
    4.4737   -0.0460    0.0496 C   0  0  0  0  0  0  0  0  0  0  0  0
    3.8058   -0.0140   -1.1734 C   0  0  0  0  0  0  0  0  0  0  0  0
    2.4141   -0.0127   -1.1914 C   0  0  0  0  0  0  0  0  0  0  0  0
    1.6091   -0.0237   -2.6821 Cl  0  0  0  0  0  0  0  0  0  0  0  0
    1.7897    0.0807    2.1577 H   0  0  0  0  0  0  0  0  0  0  0  0
    4.3259    0.7314    3.1661 H   0  0  0  0  0  0  0  0  0  0  0  0
    5.5401   -0.3453    2.4745 H   0  0  0  0  0  0  0  0  0  0  0  0
    2.9174   -6.4138    5.0052 H   0  0  0  0  0  0  0  0  0  0  0  0
    5.3228   -7.8112    4.7019 H   0  0  0  0  0  0  0  0  0  0  0  0
    6.6963   -3.3269    3.1557 H   0  0  0  0  0  0  0  0  0  0  0  0
    6.6831   -4.3808    1.7348 H   0  0  0  0  0  0  0  0  0  0  0  0
    5.3649   -2.1946    1.3682 H   0  0  0  0  0  0  0  0  0  0  0  0
    4.4047   -3.6681    1.0705 H   0  0  0  0  0  0  0  0  0  0  0  0
    1.3789   -4.9246    3.4327 H   0  0  0  0  0  0  0  0  0  0  0  0
    2.1469   -4.5168    1.8690 H   0  0  0  0  0  0  0  0  0  0  0  0
   -0.0224   -3.3791    4.5945 H   0  0  0  0  0  0  0  0  0  0  0  0
    1.0087   -1.9078    4.6342 H   0  0  0  0  0  0  0  0  0  0  0  0
   -0.4017    0.2664    3.7872 H   0  0  0  0  0  0  0  0  0  0  0  0
   -1.6671   -1.6020    1.4611 H   0  0  0  0  0  0  0  0  0  0  0  0
   -2.2429   -2.9815    2.3923 H   0  0  0  0  0  0  0  0  0  0  0  0
    0.1686   -2.9064    0.7020 H   0  0  0  0  0  0  0  0  0  0  0  0
   -0.3980   -4.2773    1.7032 H   0  0  0  0  0  0  0  0  0  0  0  0
    5.5655   -0.0424    0.0658 H   0  0  0  0  0  0  0  0  0  0  0  0
    4.3747    0.0083   -2.1088 H   0  0  0  0  0  0  0  0  0  0  0  0
  1  2  1  0  0  0  0
  2  3  2  0  0  0  0
  3  4  1  0  0  0  0
  3 31  1  0  0  0  0
  4  5  1  0  0  0  0
  5 32  1  0  0  0  0
  5  6  1  0  0  0  0
  6  7  2  0  0  0  0
  8  6  1  0  0  0  0
  8  9  1  0  0  0  0
  9 11  1  0  0  0  0
  9 10  1  1  0  0  0
 11 12  1  0  0  0  0
 12 34  1  0  0  0  0
 13 12  2  0  0  0  0
 13 35  1  0  0  0  0
 14 13  1  0  0  0  0
 15 14  1  0  0  0  0
 15 11  2  0  0  0  0
 16 36  1  0  0  0  0
 16 15  1  0  0  0  0
 17 16  1  0  0  0  0
 17  8  1  0  0  0  0
 18 40  1  0  0  0  0
 18  9  1  0  0  0  0
 19 18  1  0  0  0  0
 19 21  1  0  0  0  0
 20 19  1  0  0  0  0
 21 42  1  0  0  0  0
 21 43  1  0  0  0  0
 22 21  1  0  0  0  0
 22 23  1  1  0  0  0
 24 22  1  0  0  0  0
 24 44  1  0  0  0  0
 25 46  1  0  0  0  0
 25 22  1  0  0  0  0
 26 25  1  0  0  0  0
 26 19  1  0  0  0  0
 27 49  1  0  0  0  0
 27  4  2  0  0  0  0
 28 27  1  0  0  0  0
 29 28  2  0  0  0  0
 29  2  1  0  0  0  0
 30 29  1  0  0  0  0
 33  5  1  0  0  0  0
 37 16  1  0  0  0  0
 38 17  1  0  0  0  0
 39 17  1  0  0  0  0
 41 18  1  0  0  0  0
 45 25  1  0  0  0  0
 47 26  1  0  0  0  0
 48 26  1  0  0  0  0
 50 28  1  0  0  0  0
M  END
$$$$
