rmsd192.gzmat
 OpenBabel08211713363D

 50 53  0  0  1  0  0  0  0  0999 V2000
    0.0000    0.0000    0.0000 Cl  0  0  0  0  0  0  0  0  0  0  0  0
    1.7027    0.0000    0.0000 C   0  0  0  0  0  0  0  0  0  0  0  0
    2.3602    0.0000    1.2210 C   0  0  0  0  0  0  0  0  0  0  0  0
    3.7557   -0.0879    1.2377 C   0  0  0  0  0  0  0  0  0  0  0  0
    4.4560   -0.2518    2.5498 C   0  0  0  0  0  0  0  0  0  0  0  0
    3.7815   -1.3603    3.3262 C   0  0  0  0  0  0  0  0  0  0  0  0
    3.1206   -1.1342    4.3198 O   0  0  0  0  0  0  0  0  0  0  0  0
    3.7359   -2.6529    2.7888 N   0  0  0  0  0  0  0  0  0  0  0  0
    3.0358   -3.6835    3.5947 C   0  0  2  0  0  0  0  0  0  0  0  0
    2.7851   -3.2538    4.6141 H   0  0  0  0  0  0  0  0  0  0  0  0
    3.8636   -4.8961    3.7784 C   0  0  0  0  0  0  0  0  0  0  0  0
    3.6300   -6.1012    4.5271 C   0  0  0  0  0  0  0  0  0  0  0  0
    4.7668   -6.8517    4.3888 C   0  0  0  0  0  0  0  0  0  0  0  0
    5.7047   -6.1964    3.5998 O   0  0  0  0  0  0  0  0  0  0  0  0
    5.1268   -5.0070    3.2467 C   0  0  0  0  0  0  0  0  0  0  0  0
    5.8138   -4.0260    2.4022 C   0  0  0  0  0  0  0  0  0  0  0  0
    4.7062   -3.1326    1.7891 C   0  0  0  0  0  0  0  0  0  0  0  0
    1.7187   -4.0697    2.8540 C   0  0  0  0  0  0  0  0  0  0  0  0
    0.8563   -2.8558    2.6381 N   0  0  0  0  0  0  0  0  0  0  0  0
    1.4514   -2.0900    2.2112 H   0  0  0  0  0  0  0  0  0  0  0  0
    0.2536   -2.3157    3.9222 C   0  0  0  0  0  0  0  0  0  0  0  0
   -0.9412   -1.4794    3.4244 C   0  0  1  0  0  0  0  0  0  0  0  0
   -1.7041   -1.2904    4.2057 H   0  0  0  0  0  0  0  0  0  0  0  0
   -0.3497   -0.2729    3.0122 O   0  0  0  0  0  0  0  0  0  0  0  0
   -1.4737   -2.2483    2.1972 C   0  0  0  0  0  0  0  0  0  0  0  0
   -0.3256   -3.1457    1.7154 C   0  0  0  0  0  0  0  0  0  0  0  0
    4.4731   -0.0753    0.0388 C   0  0  0  0  0  0  0  0  0  0  0  0
    3.8025   -0.0330   -1.1819 C   0  0  0  0  0  0  0  0  0  0  0  0
    2.4111   -0.0200   -1.1948 C   0  0  0  0  0  0  0  0  0  0  0  0
    1.6030   -0.0242   -2.6834 Cl  0  0  0  0  0  0  0  0  0  0  0  0
    1.8024    0.0987    2.1601 H   0  0  0  0  0  0  0  0  0  0  0  0
    4.3852    0.6962    3.1486 H   0  0  0  0  0  0  0  0  0  0  0  0
    5.5473   -0.4281    2.4452 H   0  0  0  0  0  0  0  0  0  0  0  0
    2.7475   -6.3370    5.0840 H   0  0  0  0  0  0  0  0  0  0  0  0
    5.1083   -7.8031    4.7364 H   0  0  0  0  0  0  0  0  0  0  0  0
    6.5360   -3.4228    2.9985 H   0  0  0  0  0  0  0  0  0  0  0  0
    6.4194   -4.5005    1.5994 H   0  0  0  0  0  0  0  0  0  0  0  0
    5.1656   -2.2749    1.2515 H   0  0  0  0  0  0  0  0  0  0  0  0
    4.1438   -3.7178    1.0222 H   0  0  0  0  0  0  0  0  0  0  0  0
    1.1742   -4.8420    3.4405 H   0  0  0  0  0  0  0  0  0  0  0  0
    1.9661   -4.5254    1.8670 H   0  0  0  0  0  0  0  0  0  0  0  0
   -0.0575   -3.1336    4.5996 H   0  0  0  0  0  0  0  0  0  0  0  0
    0.9994   -1.6794    4.4682 H   0  0  0  0  0  0  0  0  0  0  0  0
   -1.0124    0.4404    2.8735 H   0  0  0  0  0  0  0  0  0  0  0  0
   -1.8099   -1.5469    1.4082 H   0  0  0  0  0  0  0  0  0  0  0  0
   -2.3700   -2.8426    2.4562 H   0  0  0  0  0  0  0  0  0  0  0  0
   -0.0340   -2.9331    0.6646 H   0  0  0  0  0  0  0  0  0  0  0  0
   -0.5996   -4.2208    1.7691 H   0  0  0  0  0  0  0  0  0  0  0  0
    5.5653   -0.0875    0.0515 H   0  0  0  0  0  0  0  0  0  0  0  0
    4.3677   -0.0131   -2.1198 H   0  0  0  0  0  0  0  0  0  0  0  0
  1  2  1  0  0  0  0
  2  3  2  0  0  0  0
  3  4  1  0  0  0  0
  3 31  1  0  0  0  0
  4  5  1  0  0  0  0
  5 32  1  0  0  0  0
  5  6  1  0  0  0  0
  6  7  2  0  0  0  0
  8  6  1  0  0  0  0
  8  9  1  0  0  0  0
  9 11  1  0  0  0  0
  9 10  1  1  0  0  0
 11 12  1  0  0  0  0
 12 34  1  0  0  0  0
 13 12  2  0  0  0  0
 13 35  1  0  0  0  0
 14 13  1  0  0  0  0
 15 14  1  0  0  0  0
 15 11  2  0  0  0  0
 16 36  1  0  0  0  0
 16 15  1  0  0  0  0
 17 16  1  0  0  0  0
 17  8  1  0  0  0  0
 18 40  1  0  0  0  0
 18  9  1  0  0  0  0
 19 18  1  0  0  0  0
 19 21  1  0  0  0  0
 20 19  1  0  0  0  0
 21 43  1  0  0  0  0
 21 42  1  0  0  0  0
 22 21  1  0  0  0  0
 22 23  1  1  0  0  0
 24 22  1  0  0  0  0
 25 46  1  0  0  0  0
 25 22  1  0  0  0  0
 26 48  1  0  0  0  0
 26 25  1  0  0  0  0
 26 19  1  0  0  0  0
 27 49  1  0  0  0  0
 27  4  2  0  0  0  0
 28 27  1  0  0  0  0
 29 28  2  0  0  0  0
 29  2  1  0  0  0  0
 30 29  1  0  0  0  0
 33  5  1  0  0  0  0
 37 16  1  0  0  0  0
 38 17  1  0  0  0  0
 39 17  1  0  0  0  0
 41 18  1  0  0  0  0
 44 24  1  0  0  0  0
 45 25  1  0  0  0  0
 47 26  1  0  0  0  0
 50 28  1  0  0  0  0
M  END
$$$$
