rmsd176.gzmat
 OpenBabel08211713363D

 50 53  0  0  1  0  0  0  0  0999 V2000
    0.0000    0.0000    0.0000 Cl  0  0  0  0  0  0  0  0  0  0  0  0
    1.7004    0.0000    0.0000 C   0  0  0  0  0  0  0  0  0  0  0  0
    2.3558    0.0000    1.2224 C   0  0  0  0  0  0  0  0  0  0  0  0
    3.7523   -0.0682    1.2440 C   0  0  0  0  0  0  0  0  0  0  0  0
    4.4435   -0.1759    2.5684 C   0  0  0  0  0  0  0  0  0  0  0  0
    3.8699   -1.3749    3.2805 C   0  0  0  0  0  0  0  0  0  0  0  0
    2.8859   -1.2547    4.0081 O   0  0  0  0  0  0  0  0  0  0  0  0
    4.3432   -2.6497    3.0591 N   0  0  0  0  0  0  0  0  0  0  0  0
    3.8457   -3.7223    3.9561 C   0  0  2  0  0  0  0  0  0  0  0  0
    3.5774   -3.2516    4.9555 H   0  0  0  0  0  0  0  0  0  0  0  0
    4.8914   -4.7451    4.1831 C   0  0  0  0  0  0  0  0  0  0  0  0
    4.8920   -5.9273    5.0023 C   0  0  0  0  0  0  0  0  0  0  0  0
    6.1482   -6.4595    4.8875 C   0  0  0  0  0  0  0  0  0  0  0  0
    6.9419   -5.6882    4.0475 O   0  0  0  0  0  0  0  0  0  0  0  0
    6.1502   -4.6494    3.6388 C   0  0  0  0  0  0  0  0  0  0  0  0
    6.6403   -3.6084    2.7311 C   0  0  0  0  0  0  0  0  0  0  0  0
    5.3870   -2.9809    2.0749 C   0  0  0  0  0  0  0  0  0  0  0  0
    2.5794   -4.3912    3.3439 C   0  0  0  0  0  0  0  0  0  0  0  0
    1.4086   -3.4434    3.3997 N   0  0  0  0  0  0  0  0  0  0  0  0
    1.7331   -2.5130    3.8638 H   0  0  0  0  0  0  0  0  0  0  0  0
    0.2302   -3.9898    4.1757 C   0  0  0  0  0  0  0  0  0  0  0  0
   -0.9832   -3.1756    3.6644 C   0  0  1  0  0  0  0  0  0  0  0  0
   -1.9151   -3.7753    3.6270 H   0  0  0  0  0  0  0  0  0  0  0  0
   -1.1084   -2.1412    4.6058 O   0  0  0  0  0  0  0  0  0  0  0  0
   -0.5669   -2.5986    2.2926 C   0  0  0  0  0  0  0  0  0  0  0  0
    0.8497   -3.1122    2.0231 C   0  0  0  0  0  0  0  0  0  0  0  0
    4.4751   -0.0680    0.0500 C   0  0  0  0  0  0  0  0  0  0  0  0
    3.8075   -0.0341   -1.1733 C   0  0  0  0  0  0  0  0  0  0  0  0
    2.4161   -0.0152   -1.1915 C   0  0  0  0  0  0  0  0  0  0  0  0
    1.6145   -0.0050   -2.6832 Cl  0  0  0  0  0  0  0  0  0  0  0  0
    1.7989    0.0677    2.1633 H   0  0  0  0  0  0  0  0  0  0  0  0
    4.2366    0.7398    3.1867 H   0  0  0  0  0  0  0  0  0  0  0  0
    5.5492   -0.2075    2.4875 H   0  0  0  0  0  0  0  0  0  0  0  0
    4.0736   -6.2896    5.5887 H   0  0  0  0  0  0  0  0  0  0  0  0
    6.6640   -7.3082    5.2827 H   0  0  0  0  0  0  0  0  0  0  0  0
    7.2319   -2.8435    3.2854 H   0  0  0  0  0  0  0  0  0  0  0  0
    7.3305   -4.0061    1.9542 H   0  0  0  0  0  0  0  0  0  0  0  0
    5.6728   -2.0770    1.4929 H   0  0  0  0  0  0  0  0  0  0  0  0
    4.9535   -3.7043    1.3413 H   0  0  0  0  0  0  0  0  0  0  0  0
    2.3553   -5.3274    3.9054 H   0  0  0  0  0  0  0  0  0  0  0  0
    2.7869   -4.7044    2.2971 H   0  0  0  0  0  0  0  0  0  0  0  0
    0.0971   -5.0749    4.0023 H   0  0  0  0  0  0  0  0  0  0  0  0
    0.3830   -3.8278    5.2694 H   0  0  0  0  0  0  0  0  0  0  0  0
   -1.9564   -1.6536    4.5107 H   0  0  0  0  0  0  0  0  0  0  0  0
   -0.5997   -1.4882    2.3306 H   0  0  0  0  0  0  0  0  0  0  0  0
   -1.2656   -2.8853    1.4855 H   0  0  0  0  0  0  0  0  0  0  0  0
    1.4980   -2.3583    1.5285 H   0  0  0  0  0  0  0  0  0  0  0  0
    0.8418   -4.0155    1.3770 H   0  0  0  0  0  0  0  0  0  0  0  0
    5.5664   -0.0795    0.0638 H   0  0  0  0  0  0  0  0  0  0  0  0
    4.3769   -0.0205   -2.1081 H   0  0  0  0  0  0  0  0  0  0  0  0
  1  2  1  0  0  0  0
  2  3  2  0  0  0  0
  3  4  1  0  0  0  0
  3 31  1  0  0  0  0
  4  5  1  0  0  0  0
  5 32  1  0  0  0  0
  5  6  1  0  0  0  0
  6  7  2  0  0  0  0
  8  6  1  0  0  0  0
  8  9  1  0  0  0  0
  9 11  1  0  0  0  0
  9 10  1  1  0  0  0
 11 12  1  0  0  0  0
 12 34  1  0  0  0  0
 13 12  2  0  0  0  0
 13 35  1  0  0  0  0
 14 13  1  0  0  0  0
 15 14  1  0  0  0  0
 15 11  2  0  0  0  0
 16 36  1  0  0  0  0
 16 15  1  0  0  0  0
 17 16  1  0  0  0  0
 17  8  1  0  0  0  0
 18 19  1  0  0  0  0
 18 40  1  0  0  0  0
 18  9  1  0  0  0  0
 19 20  1  0  0  0  0
 19 21  1  0  0  0  0
 21 43  1  0  0  0  0
 22 23  1  6  0  0  0
 22 21  1  0  0  0  0
 22 24  1  0  0  0  0
 25 45  1  0  0  0  0
 25 22  1  0  0  0  0
 26 25  1  0  0  0  0
 26 19  1  0  0  0  0
 27 49  1  0  0  0  0
 27  4  2  0  0  0  0
 28 27  1  0  0  0  0
 29 28  2  0  0  0  0
 29  2  1  0  0  0  0
 30 29  1  0  0  0  0
 33  5  1  0  0  0  0
 37 16  1  0  0  0  0
 38 17  1  0  0  0  0
 39 17  1  0  0  0  0
 41 18  1  0  0  0  0
 42 21  1  0  0  0  0
 44 24  1  0  0  0  0
 46 25  1  0  0  0  0
 47 26  1  0  0  0  0
 48 26  1  0  0  0  0
 50 28  1  0  0  0  0
M  END
$$$$
