50
rmsd43.gzmat
Cl         0.00000        0.00000        0.00000
C          1.70280        0.00000        0.00000
C          2.34800        0.00000        1.22780
C          3.74100        0.11310        1.25760
C          4.42250        0.33430        2.57460
C          4.04750        1.74490        2.97720
O          4.62040        2.70750        2.51290
N          2.86030        1.96050        3.70250
C          2.50680        3.38020        3.96490
H          3.31780        4.05280        3.54500
C          2.36060        3.65650        5.41080
C          2.12800        4.88240        6.12470
C          2.15640        4.55130        7.45290
O          2.39510        3.19290        7.62340
C          2.51800        2.67610        6.36220
C          2.78220        1.25400        6.12580
C          2.34640        0.96900        4.66640
C          1.15850        3.68340        3.24120
N          1.22360        3.26530        1.79740
H          1.59220        2.27080        1.75020
C          2.13560        4.13550        0.95600
C          1.67750        3.82100       -0.48730
H          1.93600        4.61600       -1.21260
O          2.25910        2.59210       -0.84610
C          0.16550        3.53770       -0.37880
C         -0.13670        3.33360        1.11090
C          4.47080        0.11880        0.06710
C          3.81340        0.06860       -1.16070
C          2.42190        0.03840       -1.18770
Cl         1.62530        0.06630       -2.68270
H          1.78300       -0.09210        2.15500
H          5.53480        0.26880        2.48490
H          4.15470       -0.44170        3.31940
H          1.98190        5.84820        5.68800
H          2.04400        5.07280        8.37930
H          3.85990        1.01750        6.27980
H          2.23480        0.59240        6.83280
H          2.66230       -0.05590        4.37010
H          1.23140        0.98790        4.60750
H          0.92700        4.76730        3.33120
H          0.33060        3.13110        3.74360
H          2.02240        5.20690        1.21250
H          3.20420        3.85940        1.12530
H          3.07960        2.70550       -1.37540
H         -0.09270        2.64120       -0.98720
H         -0.43390        4.35970       -0.81130
H         -0.70500        2.40070        1.30880
H         -0.73070        4.17650        1.52500
H          5.56290        0.17360        0.09370
H          4.39030        0.05470       -2.09100
