50
rmsd193.gzmat
Cl         0.00000        0.00000        0.00000
C          1.70090        0.00000        0.00000
C          2.36310        0.00000        1.21810
C          3.76130       -0.04910        1.22880
C          4.46450       -0.20130        2.54260
C          3.87800       -1.42410        3.21040
O          3.03230       -1.32770        4.07980
N          4.11780       -2.68990        2.67520
C          3.42080       -3.82660        3.32600
H          3.04420       -3.49500        4.34420
C          4.31630       -4.98960        3.50820
C          4.08020       -6.28890        4.07690
C          5.28990       -6.92990        4.05420
O          6.27490       -6.11880        3.50340
C          5.65150       -4.94300        3.18380
C          6.36030       -3.82220        2.56000
C          5.27990       -2.99200        1.82220
C          2.21250       -4.24270        2.43320
N          1.22250       -3.11560        2.30980
H          1.74750       -2.22600        2.07840
C          0.43880       -2.85960        3.58520
C         -0.82700       -2.13820        3.08200
H         -1.66930       -2.17070        3.80120
O         -0.39500       -0.81560        2.88330
C         -1.13670       -2.79580        1.72190
C          0.18700       -3.38510        1.21870
C          4.47480       -0.01810        0.02900
C          3.79810        0.00230       -1.18970
C          2.40680       -0.01000       -1.19700
Cl         1.59040       -0.03260       -2.68130
H          1.80490        0.06330        2.16180
H          4.27420        0.69160        3.19560
H          5.56810       -0.24590        2.45150
H          3.14680       -6.65500        4.44930
H          5.65920       -7.88600        4.35730
H          6.88640       -3.20780        3.32660
H          7.15270       -4.15170        1.85320
H          5.72570       -2.05270        1.42830
H          4.91640       -3.56510        0.93530
H          1.72620       -5.14810        2.85960
H          2.58220       -4.51980        1.41840
H          0.20690       -3.79970        4.11900
H          1.03170       -2.20400        4.27760
H         -1.14540       -0.18720        2.79020
H         -1.55650       -2.05680        1.01090
H         -1.91540       -3.57510        1.82280
H          0.52530       -2.91120        0.27210
H          0.10140       -4.47550        1.02790
H          5.56640        0.00200        0.03670
H          4.35960        0.02760       -2.12940
