rmsd83.gzmat
 OpenBabel08211713363D

 50 53  0  0  1  0  0  0  0  0999 V2000
    0.0000    0.0000    0.0000 Cl  0  0  0  0  0  0  0  0  0  0  0  0
    1.6988    0.0000    0.0000 C   0  0  0  0  0  0  0  0  0  0  0  0
    2.3537    0.0000    1.2225 C   0  0  0  0  0  0  0  0  0  0  0  0
    3.7504   -0.0693    1.2454 C   0  0  0  0  0  0  0  0  0  0  0  0
    4.4437   -0.2010    2.5664 C   0  0  0  0  0  0  0  0  0  0  0  0
    3.7557   -1.3006    3.3396 C   0  0  0  0  0  0  0  0  0  0  0  0
    2.9519   -1.0513    4.2208 O   0  0  0  0  0  0  0  0  0  0  0  0
    3.8609   -2.6255    2.9238 N   0  0  0  0  0  0  0  0  0  0  0  0
    3.1616   -3.6411    3.7479 C   0  0  2  0  0  0  0  0  0  0  0  0
    2.8863   -3.1784    4.7464 H   0  0  0  0  0  0  0  0  0  0  0  0
    4.0140   -4.8264    3.9871 C   0  0  0  0  0  0  0  0  0  0  0  0
    3.7929   -6.0095    4.7742 C   0  0  0  0  0  0  0  0  0  0  0  0
    4.9484   -6.7386    4.6827 C   0  0  0  0  0  0  0  0  0  0  0  0
    5.8863   -6.0899    3.8888 O   0  0  0  0  0  0  0  0  0  0  0  0
    5.2895   -4.9263    3.4838 C   0  0  0  0  0  0  0  0  0  0  0  0
    5.9761   -3.9579    2.6243 C   0  0  0  0  0  0  0  0  0  0  0  0
    4.8700   -3.0992    1.9619 C   0  0  0  0  0  0  0  0  0  0  0  0
    1.8654   -4.0843    3.0022 C   0  0  0  0  0  0  0  0  0  0  0  0
    0.9516   -2.9106    2.7767 N   0  0  0  0  0  0  0  0  0  0  0  0
    1.5250   -2.0945    2.4207 H   0  0  0  0  0  0  0  0  0  0  0  0
    0.2430   -2.4531    4.0376 C   0  0  0  0  0  0  0  0  0  0  0  0
   -0.9490   -1.6407    3.4815 C   0  0  1  0  0  0  0  0  0  0  0  0
   -1.7689   -1.5041    4.2120 H   0  0  0  0  0  0  0  0  0  0  0  0
   -0.4439   -0.4081    3.0363 O   0  0  0  0  0  0  0  0  0  0  0  0
   -1.3678   -2.3920    2.2019 C   0  0  0  0  0  0  0  0  0  0  0  0
   -0.1536   -3.2239    1.7701 C   0  0  0  0  0  0  0  0  0  0  0  0
    4.4732   -0.0572    0.0508 C   0  0  0  0  0  0  0  0  0  0  0  0
    3.8058   -0.0215   -1.1726 C   0  0  0  0  0  0  0  0  0  0  0  0
    2.4146   -0.0127   -1.1912 C   0  0  0  0  0  0  0  0  0  0  0  0
    1.6102   -0.0138   -2.6822 Cl  0  0  0  0  0  0  0  0  0  0  0  0
    1.7874    0.0859    2.1568 H   0  0  0  0  0  0  0  0  0  0  0  0
    4.3537    0.7561    3.1476 H   0  0  0  0  0  0  0  0  0  0  0  0
    5.5371   -0.3657    2.4754 H   0  0  0  0  0  0  0  0  0  0  0  0
    2.9062   -6.2456    5.3241 H   0  0  0  0  0  0  0  0  0  0  0  0
    5.3022   -7.6713    5.0675 H   0  0  0  0  0  0  0  0  0  0  0  0
    6.6759   -3.3255    3.2176 H   0  0  0  0  0  0  0  0  0  0  0  0
    6.6067   -4.4450    1.8480 H   0  0  0  0  0  0  0  0  0  0  0  0
    5.3269   -2.2392    1.4245 H   0  0  0  0  0  0  0  0  0  0  0  0
    4.3452   -3.7094    1.1875 H   0  0  0  0  0  0  0  0  0  0  0  0
    1.3507   -4.8776    3.5888 H   0  0  0  0  0  0  0  0  0  0  0  0
    2.1387   -4.5340    2.0195 H   0  0  0  0  0  0  0  0  0  0  0  0
   -0.0819   -3.3127    4.6537 H   0  0  0  0  0  0  0  0  0  0  0  0
    0.9261   -1.8237    4.6592 H   0  0  0  0  0  0  0  0  0  0  0  0
   -0.5333    0.3009    3.7116 H   0  0  0  0  0  0  0  0  0  0  0  0
   -1.6758   -1.6634    1.4199 H   0  0  0  0  0  0  0  0  0  0  0  0
   -2.2576   -3.0230    2.3788 H   0  0  0  0  0  0  0  0  0  0  0  0
    0.1942   -2.9619    0.7478 H   0  0  0  0  0  0  0  0  0  0  0  0
   -0.3791   -4.3108    1.7754 H   0  0  0  0  0  0  0  0  0  0  0  0
    5.5651   -0.0615    0.0660 H   0  0  0  0  0  0  0  0  0  0  0  0
    4.3747   -0.0015   -2.1078 H   0  0  0  0  0  0  0  0  0  0  0  0
  1  2  1  0  0  0  0
  2  3  2  0  0  0  0
  3  4  1  0  0  0  0
  3 31  1  0  0  0  0
  4  5  1  0  0  0  0
  5 32  1  0  0  0  0
  5  6  1  0  0  0  0
  6  7  2  0  0  0  0
  8  6  1  0  0  0  0
  8  9  1  0  0  0  0
  9 11  1  0  0  0  0
  9 10  1  1  0  0  0
 11 12  1  0  0  0  0
 12 34  1  0  0  0  0
 13 12  2  0  0  0  0
 13 35  1  0  0  0  0
 14 13  1  0  0  0  0
 15 14  1  0  0  0  0
 15 11  2  0  0  0  0
 16 36  1  0  0  0  0
 16 15  1  0  0  0  0
 17 16  1  0  0  0  0
 17  8  1  0  0  0  0
 18 40  1  0  0  0  0
 18  9  1  0  0  0  0
 19 18  1  0  0  0  0
 19 21  1  0  0  0  0
 20 19  1  0  0  0  0
 21 42  1  0  0  0  0
 21 43  1  0  0  0  0
 22 21  1  0  0  0  0
 22 23  1  1  0  0  0
 24 22  1  0  0  0  0
 24 44  1  0  0  0  0
 25 46  1  0  0  0  0
 25 22  1  0  0  0  0
 26 48  1  0  0  0  0
 26 25  1  0  0  0  0
 26 19  1  0  0  0  0
 27 49  1  0  0  0  0
 27  4  2  0  0  0  0
 28 27  1  0  0  0  0
 29 28  2  0  0  0  0
 29  2  1  0  0  0  0
 30 29  1  0  0  0  0
 33  5  1  0  0  0  0
 37 16  1  0  0  0  0
 38 17  1  0  0  0  0
 39 17  1  0  0  0  0
 41 18  1  0  0  0  0
 45 25  1  0  0  0  0
 47 26  1  0  0  0  0
 50 28  1  0  0  0  0
M  END
$$$$
