50
rmsd42.gzmat
Cl         0.00000        0.00000        0.00000
C          1.70240        0.00000        0.00000
C          2.35010        0.00000        1.22690
C          3.74350        0.10730        1.25450
C          4.43210        0.33760        2.56660
C          4.09590        1.76910        2.93150
O          4.71760        2.69930        2.46300
N          2.89360        2.04070        3.61040
C          2.55490        3.47710        3.78430
H          3.40420        4.11350        3.38360
C          2.32380        3.82990        5.20170
C          2.03750        5.09060        5.83100
C          1.97660        4.83040        7.17380
O          2.20800        3.48460        7.43260
C          2.42070        2.90260        6.21200
C          2.70370        1.47230        6.06580
C          2.33890        1.10310        4.60560
C          1.25580        3.77410        2.97290
N          1.39830        3.32290        1.54570
H          1.73330        2.31590        1.54000
C          2.38780        4.14780        0.74690
C          2.01480        3.81570       -0.71680
H          2.32050        4.60080       -1.43500
O          2.60810        2.58000       -1.02920
C          0.49610        3.54310       -0.70030
C          0.08770        3.42340        0.77230
C          4.47120        0.10430        0.06200
C          3.81210        0.05820       -1.16510
C          2.41960        0.03960       -1.18860
Cl         1.61860        0.09070       -2.68090
H          1.78480       -0.08510        2.15530
H          5.54260        0.23910        2.47820
H          4.14540       -0.41200        3.33060
H          1.91850        6.03060        5.33420
H          1.80010        5.40010        8.06100
H          3.77520        1.25400        6.28110
H          2.12820        0.84480        6.78160
H          2.67540        0.06510        4.38560
H          1.22810        1.10790        4.49360
H          1.03170        4.86270        3.02250
H          0.39320        3.24230        3.43850
H          2.28730        5.22740        0.97340
H          3.43610        3.84850        0.99090
H          3.48210        2.68390       -1.46780
H          0.27560        2.61480       -1.27490
H         -0.06550        4.34100       -1.22050
H         -0.54110        2.53130        0.97420
H         -0.48770        4.31250        1.11050
H          5.56380        0.15070        0.08730
H          4.38670        0.03950       -2.09660
