rmsd233.gzmat
 OpenBabel08211713413D

 47 49  0  0  1  0  0  0  0  0999 V2000
    0.0000    0.0000    0.0000 O   0  0  0  0  0  0  0  0  0  0  0  0
    1.3686    0.0000    0.0000 C   0  0  0  0  0  0  0  0  0  0  0  0
    2.2050    0.0000    1.0924 C   0  0  0  0  0  0  0  0  0  0  0  0
    3.5781    0.0036    0.7804 C   0  0  0  0  0  0  0  0  0  0  0  0
    4.5211   -0.0007    1.7610 O   0  0  0  0  0  0  0  0  0  0  0  0
    4.0846    0.0120   -0.5255 C   0  0  0  0  0  0  0  0  0  0  0  0
    3.2031    0.0127   -1.6172 C   0  0  0  0  0  0  0  0  0  0  0  0
    1.8586    0.0019   -1.3243 C   0  0  0  0  0  0  0  0  0  0  0  0
    0.8080   -0.0028   -2.2173 O   0  0  0  0  0  0  0  0  0  0  0  0
   -0.3792    0.0037   -1.3992 C   0  0  0  0  0  0  0  0  0  0  0  0
    5.5741    0.0435   -0.7247 C   0  0  2  0  0  0  0  0  0  0  0  0
    6.0468    0.7821   -0.0283 H   0  0  0  0  0  0  0  0  0  0  0  0
    5.9036    0.5597   -1.9895 O   0  0  0  0  0  0  0  0  0  0  0  0
    6.2017   -1.3707   -0.5203 C   0  0  1  0  0  0  0  0  0  0  0  0
    5.7834   -1.8164    0.4169 H   0  0  0  0  0  0  0  0  0  0  0  0
    5.8985   -2.2058   -1.7050 N   0  0  0  0  0  0  0  0  0  0  0  0
    7.1440   -2.5133   -2.4498 C   0  0  0  0  0  0  0  0  0  0  0  0
    8.3001   -2.2760   -1.4618 C   0  0  0  0  0  0  0  0  0  0  0  0
    7.7455   -1.2731   -0.4375 C   0  0  0  0  0  0  0  0  0  0  0  0
    4.9626   -3.2395   -1.6333 C   0  0  0  0  0  0  0  0  0  0  0  0
    4.8143   -4.0563   -2.5170 O   0  0  0  0  0  0  0  0  0  0  0  0
    4.2176   -3.1478   -0.5100 O   0  0  0  0  0  0  0  0  0  0  0  0
    3.0799   -4.0314   -0.3453 C   0  0  0  0  0  0  0  0  0  0  0  0
    2.6020   -3.6244    1.0525 C   0  0  0  0  0  0  0  0  0  0  0  0
    2.0463   -3.7129   -1.4176 C   0  0  0  0  0  0  0  0  0  0  0  0
    3.5501   -5.4809   -0.3803 C   0  0  0  0  0  0  0  0  0  0  0  0
    1.8388    0.0037    2.1090 H   0  0  0  0  0  0  0  0  0  0  0  0
    4.1190    0.0354    2.6622 H   0  0  0  0  0  0  0  0  0  0  0  0
    3.5691    0.0278   -2.6425 H   0  0  0  0  0  0  0  0  0  0  0  0
   -0.9212    0.9393   -1.5943 H   0  0  0  0  0  0  0  0  0  0  0  0
   -0.9306   -0.9259   -1.5942 H   0  0  0  0  0  0  0  0  0  0  0  0
    5.7588   -0.1269   -2.6800 H   0  0  0  0  0  0  0  0  0  0  0  0
    7.1364   -3.5451   -2.8590 H   0  0  0  0  0  0  0  0  0  0  0  0
    7.2005   -1.8188   -3.3164 H   0  0  0  0  0  0  0  0  0  0  0  0
    8.6035   -3.2174   -0.9735 H   0  0  0  0  0  0  0  0  0  0  0  0
    9.1951   -1.8863   -1.9708 H   0  0  0  0  0  0  0  0  0  0  0  0
    8.1028   -1.4898    0.5802 H   0  0  0  0  0  0  0  0  0  0  0  0
    8.0862   -0.2489   -0.6787 H   0  0  0  0  0  0  0  0  0  0  0  0
    3.3749   -3.8093    1.8071 H   0  0  0  0  0  0  0  0  0  0  0  0
    1.7034   -4.1801    1.3347 H   0  0  0  0  0  0  0  0  0  0  0  0
    2.3630   -2.5526    1.0885 H   0  0  0  0  0  0  0  0  0  0  0  0
    2.4072   -3.9963   -2.4180 H   0  0  0  0  0  0  0  0  0  0  0  0
    1.8253   -2.6375   -1.4529 H   0  0  0  0  0  0  0  0  0  0  0  0
    1.1072   -4.2446   -1.2404 H   0  0  0  0  0  0  0  0  0  0  0  0
    3.7977   -5.7997   -1.4050 H   0  0  0  0  0  0  0  0  0  0  0  0
    2.7805   -6.1603   -0.0016 H   0  0  0  0  0  0  0  0  0  0  0  0
    4.4540   -5.6209    0.2226 H   0  0  0  0  0  0  0  0  0  0  0  0
  1  2  1  0  0  0  0
  2  3  2  0  0  0  0
  3 27  1  0  0  0  0
  4  3  1  0  0  0  0
  4  5  1  0  0  0  0
  5 28  1  0  0  0  0
  6  4  2  0  0  0  0
  7  8  2  0  0  0  0
  7  6  1  0  0  0  0
  8  2  1  0  0  0  0
  9 10  1  0  0  0  0
  9  8  1  0  0  0  0
 10  1  1  0  0  0  0
 11  6  1  0  0  0  0
 11 14  1  0  0  0  0
 11 12  1  1  0  0  0
 13 11  1  0  0  0  0
 14 19  1  0  0  0  0
 14 15  1  1  0  0  0
 16 20  1  0  0  0  0
 16 14  1  0  0  0  0
 17 16  1  0  0  0  0
 17 18  1  0  0  0  0
 18 35  1  0  0  0  0
 18 19  1  0  0  0  0
 19 37  1  0  0  0  0
 20 22  1  0  0  0  0
 21 20  2  0  0  0  0
 22 23  1  0  0  0  0
 23 24  1  0  0  0  0
 24 41  1  0  0  0  0
 24 40  1  0  0  0  0
 24 39  1  0  0  0  0
 25 44  1  0  0  0  0
 25 23  1  0  0  0  0
 26 23  1  0  0  0  0
 26 46  1  0  0  0  0
 26 47  1  0  0  0  0
 29  7  1  0  0  0  0
 30 10  1  0  0  0  0
 31 10  1  0  0  0  0
 32 13  1  0  0  0  0
 33 17  1  0  0  0  0
 34 17  1  0  0  0  0
 36 18  1  0  0  0  0
 38 19  1  0  0  0  0
 42 25  1  0  0  0  0
 43 25  1  0  0  0  0
 45 26  1  0  0  0  0
M  END
$$$$
