
     RDKit          3D

 47 49  0  0  0  0  0  0  0  0999 V2000
   -0.0989    0.2816    0.0338 O   0  0  0  0  0  0  0  0  0  0  0  0
    1.2657    0.2000    0.0033 C   0  0  0  0  0  0  0  0  0  0  0  0
    2.1569    0.2370    1.0541 C   0  0  0  0  0  0  0  0  0  0  0  0
    3.5399    0.1652    0.7571 C   0  0  0  0  0  0  0  0  0  0  0  0
    4.3454    0.2128    1.8424 O   0  0  0  0  0  0  0  0  0  0  0  0
    3.9837    0.0664   -0.5834 C   0  0  0  0  0  0  0  0  0  0  0  0
    3.0316    0.0263   -1.6319 C   0  0  0  0  0  0  0  0  0  0  0  0
    1.6917    0.0963   -1.3220 C   0  0  0  0  0  0  0  0  0  0  0  0
    0.5949    0.1223   -2.1532 O   0  0  0  0  0  0  0  0  0  0  0  0
   -0.5309   -0.0016   -1.2962 C   0  0  0  0  0  0  0  0  0  0  0  0
    5.4512   -0.0262   -0.9506 C   0  0  2  0  0  0  0  0  0  0  0  0
    5.5117   -0.0145   -2.0493 H   0  0  0  0  0  0  0  0  0  0  0  0
    6.0564   -1.2569   -0.6002 O   0  0  0  0  0  0  0  0  0  0  0  0
    6.2363    1.2368   -0.4395 C   0  0  1  0  0  0  0  0  0  0  0  0
    5.7262    1.6603    0.4351 H   0  0  0  0  0  0  0  0  0  0  0  0
    7.6193    0.9285   -0.0802 N   0  0  0  0  0  0  0  0  0  0  0  0
    8.5973    1.3625   -1.0790 C   0  0  0  0  0  0  0  0  0  0  0  0
    7.7146    1.8525   -2.2356 C   0  0  0  0  0  0  0  0  0  0  0  0
    6.4157    2.2898   -1.5411 C   0  0  0  0  0  0  0  0  0  0  0  0
    7.8901    0.2103    1.0242 C   0  0  0  0  0  0  0  0  0  0  0  0
    7.0137   -0.1921    1.8008 O   0  0  0  0  0  0  0  0  0  0  0  0
    9.1976   -0.0035    1.1805 O   0  0  0  0  0  0  0  0  0  0  0  0
    9.7362   -0.7977    2.2925 C   0  0  0  0  0  0  0  0  0  0  0  0
   11.2367   -0.7907    2.0098 C   0  0  0  0  0  0  0  0  0  0  0  0
    9.4261   -0.1040    3.6190 C   0  0  0  0  0  0  0  0  0  0  0  0
    9.1788   -2.2204    2.2353 C   0  0  0  0  0  0  0  0  0  0  0  0
    1.8373    0.3171    2.0924 H   0  0  0  0  0  0  0  0  0  0  0  0
    5.3084    0.0868    1.6905 H   0  0  0  0  0  0  0  0  0  0  0  0
    3.3612   -0.0565   -2.6689 H   0  0  0  0  0  0  0  0  0  0  0  0
   -1.3084    0.7195   -1.5932 H   0  0  0  0  0  0  0  0  0  0  0  0
   -0.9265   -1.0372   -1.3400 H   0  0  0  0  0  0  0  0  0  0  0  0
    6.0373   -1.3527    0.3625 H   0  0  0  0  0  0  0  0  0  0  0  0
    9.2287    2.1705   -0.6701 H   0  0  0  0  0  0  0  0  0  0  0  0
    9.2623    0.5335   -1.3609 H   0  0  0  0  0  0  0  0  0  0  0  0
    8.1894    2.6569   -2.8151 H   0  0  0  0  0  0  0  0  0  0  0  0
    7.5126    1.0195   -2.9275 H   0  0  0  0  0  0  0  0  0  0  0  0
    6.5388    3.2869   -1.0891 H   0  0  0  0  0  0  0  0  0  0  0  0
    5.5476    2.3345   -2.2141 H   0  0  0  0  0  0  0  0  0  0  0  0
   11.4488   -1.2593    1.0373 H   0  0  0  0  0  0  0  0  0  0  0  0
   11.7714   -1.3490    2.7922 H   0  0  0  0  0  0  0  0  0  0  0  0
   11.6202    0.2402    1.9900 H   0  0  0  0  0  0  0  0  0  0  0  0
    8.3461   -0.0835    3.8093 H   0  0  0  0  0  0  0  0  0  0  0  0
    9.8071    0.9288    3.6080 H   0  0  0  0  0  0  0  0  0  0  0  0
    9.9215   -0.6434    4.4407 H   0  0  0  0  0  0  0  0  0  0  0  0
    8.1071   -2.2370    2.4664 H   0  0  0  0  0  0  0  0  0  0  0  0
    9.7079   -2.8507    2.9662 H   0  0  0  0  0  0  0  0  0  0  0  0
    9.3336   -2.6503    1.2339 H   0  0  0  0  0  0  0  0  0  0  0  0
  1  2  1  0
  1 10  1  0
  2  3  2  0
  2  8  1  0
  3  4  1  0
  3 27  1  0
  4  5  1  0
  4  6  2  0
  5 28  1  0
  6  7  1  0
  6 11  1  0
  7  8  2  0
  7 29  1  0
  8  9  1  0
  9 10  1  0
 10 30  1  0
 10 31  1  0
 11 12  1  6
 11 13  1  0
 11 14  1  0
 13 32  1  0
 14 15  1  1
 14 16  1  0
 14 19  1  0
 16 17  1  0
 16 20  1  0
 17 18  1  0
 17 33  1  0
 17 34  1  0
 18 19  1  0
 18 35  1  0
 18 36  1  0
 19 37  1  0
 19 38  1  0
 20 21  2  0
 20 22  1  0
 23 22  1  0
 23 24  1  0
 23 25  1  0
 23 26  1  0
 24 39  1  0
 24 40  1  0
 24 41  1  0
 25 42  1  0
 25 43  1  0
 25 44  1  0
 26 45  1  0
 26 46  1  0
 26 47  1  0
M  END

