rmsd228.gzmat
 OpenBabel08211713413D

 47 49  0  0  1  0  0  0  0  0999 V2000
    0.0000    0.0000    0.0000 O   0  0  0  0  0  0  0  0  0  0  0  0
    1.3682    0.0000    0.0000 C   0  0  0  0  0  0  0  0  0  0  0  0
    2.2057    0.0000    1.0843 C   0  0  0  0  0  0  0  0  0  0  0  0
    3.5873   -0.0031    0.7765 C   0  0  0  0  0  0  0  0  0  0  0  0
    4.3834    0.0086    1.8682 O   0  0  0  0  0  0  0  0  0  0  0  0
    4.0852    0.0145   -0.5304 C   0  0  0  0  0  0  0  0  0  0  0  0
    3.1946   -0.0124   -1.6227 C   0  0  0  0  0  0  0  0  0  0  0  0
    1.8557   -0.0158   -1.3306 C   0  0  0  0  0  0  0  0  0  0  0  0
    0.8027   -0.0335   -2.2193 O   0  0  0  0  0  0  0  0  0  0  0  0
   -0.3822   -0.0276   -1.3974 C   0  0  0  0  0  0  0  0  0  0  0  0
    5.5586    0.1059   -0.7934 C   0  0  2  0  0  0  0  0  0  0  0  0
    6.0465    0.8281   -0.0877 H   0  0  0  0  0  0  0  0  0  0  0  0
    5.8020    0.5761   -2.1108 O   0  0  0  0  0  0  0  0  0  0  0  0
    6.3359   -1.2415   -0.7701 C   0  0  1  0  0  0  0  0  0  0  0  0
    7.3041   -1.0683   -1.3142 H   0  0  0  0  0  0  0  0  0  0  0  0
    6.5858   -1.6148    0.6478 N   0  0  0  0  0  0  0  0  0  0  0  0
    6.1708   -3.0191    0.8960 C   0  0  0  0  0  0  0  0  0  0  0  0
    5.8858   -3.6348   -0.4854 C   0  0  0  0  0  0  0  0  0  0  0  0
    5.5924   -2.4357   -1.4004 C   0  0  0  0  0  0  0  0  0  0  0  0
    7.7682   -1.1891    1.2652 C   0  0  0  0  0  0  0  0  0  0  0  0
    8.2564   -1.7158    2.2385 O   0  0  0  0  0  0  0  0  0  0  0  0
    8.1750   -0.0387    0.6865 O   0  0  0  0  0  0  0  0  0  0  0  0
    9.2496    0.7310    1.2812 C   0  0  0  0  0  0  0  0  0  0  0  0
   10.5280   -0.0955    1.2534 C   0  0  0  0  0  0  0  0  0  0  0  0
    9.3045    1.9197    0.3157 C   0  0  0  0  0  0  0  0  0  0  0  0
    8.8459    1.1539    2.6875 C   0  0  0  0  0  0  0  0  0  0  0  0
    1.8664   -0.0009    2.1144 H   0  0  0  0  0  0  0  0  0  0  0  0
    5.2968   -0.3435    1.6704 H   0  0  0  0  0  0  0  0  0  0  0  0
    3.5639   -0.0322   -2.6478 H   0  0  0  0  0  0  0  0  0  0  0  0
   -0.9359    0.8971   -1.6092 H   0  0  0  0  0  0  0  0  0  0  0  0
   -0.9216   -0.9681   -1.5746 H   0  0  0  0  0  0  0  0  0  0  0  0
    5.3917    1.4559   -2.2386 H   0  0  0  0  0  0  0  0  0  0  0  0
    6.9398   -3.5833    1.4634 H   0  0  0  0  0  0  0  0  0  0  0  0
    5.2530   -2.9877    1.5253 H   0  0  0  0  0  0  0  0  0  0  0  0
    6.7542   -4.2090   -0.8507 H   0  0  0  0  0  0  0  0  0  0  0  0
    5.0391   -4.3379   -0.4496 H   0  0  0  0  0  0  0  0  0  0  0  0
    5.9271   -2.6082   -2.4354 H   0  0  0  0  0  0  0  0  0  0  0  0
    4.5050   -2.2460   -1.4624 H   0  0  0  0  0  0  0  0  0  0  0  0
   10.4750   -0.9380    1.9605 H   0  0  0  0  0  0  0  0  0  0  0  0
   11.4004    0.5063    1.5267 H   0  0  0  0  0  0  0  0  0  0  0  0
   10.7113   -0.5218    0.2606 H   0  0  0  0  0  0  0  0  0  0  0  0
    8.3693    2.4928    0.3345 H   0  0  0  0  0  0  0  0  0  0  0  0
    9.4529    1.5829   -0.7187 H   0  0  0  0  0  0  0  0  0  0  0  0
   10.1239    2.5970    0.5737 H   0  0  0  0  0  0  0  0  0  0  0  0
    7.8616    1.6369    2.6974 H   0  0  0  0  0  0  0  0  0  0  0  0
    9.5690    1.8556    3.1154 H   0  0  0  0  0  0  0  0  0  0  0  0
    8.7877    0.2897    3.3676 H   0  0  0  0  0  0  0  0  0  0  0  0
  1  2  1  0  0  0  0
  2  3  2  0  0  0  0
  3 27  1  0  0  0  0
  4  3  1  0  0  0  0
  4  5  1  0  0  0  0
  6  4  2  0  0  0  0
  7  8  2  0  0  0  0
  7  6  1  0  0  0  0
  8  2  1  0  0  0  0
  9 10  1  0  0  0  0
  9  8  1  0  0  0  0
 10  1  1  0  0  0  0
 11 14  1  0  0  0  0
 11  6  1  0  0  0  0
 11 12  1  1  0  0  0
 13 11  1  0  0  0  0
 14 15  1  6  0  0  0
 14 16  1  0  0  0  0
 16 17  1  0  0  0  0
 16 20  1  0  0  0  0
 17 33  1  0  0  0  0
 17 34  1  0  0  0  0
 18 36  1  0  0  0  0
 18 17  1  0  0  0  0
 19 14  1  0  0  0  0
 19 18  1  0  0  0  0
 20 21  2  0  0  0  0
 22 20  1  0  0  0  0
 22 23  1  0  0  0  0
 23 26  1  0  0  0  0
 24 23  1  0  0  0  0
 24 40  1  0  0  0  0
 24 39  1  0  0  0  0
 25 42  1  0  0  0  0
 25 44  1  0  0  0  0
 25 23  1  0  0  0  0
 26 45  1  0  0  0  0
 26 46  1  0  0  0  0
 26 47  1  0  0  0  0
 28  5  1  0  0  0  0
 29  7  1  0  0  0  0
 30 10  1  0  0  0  0
 31 10  1  0  0  0  0
 32 13  1  0  0  0  0
 35 18  1  0  0  0  0
 37 19  1  0  0  0  0
 38 19  1  0  0  0  0
 41 24  1  0  0  0  0
 43 25  1  0  0  0  0
M  END
$$$$
