47
rmsd232.gzmat
O          0.00000        0.00000        0.00000
C          1.36860        0.00000        0.00000
C          2.20440        0.00000        1.09280
C          3.57720        0.00130        0.78140
O          4.52050       -0.00780        1.76220
C          4.08380        0.01130       -0.52460
C          3.20330        0.01410       -1.61670
C          1.85860        0.00160       -1.32410
O          0.80780       -0.00300       -2.21700
C         -0.37960        0.00490       -1.39890
C          5.57420        0.04410       -0.72000
H          6.03510        0.82070       -0.05750
O          5.90470        0.50080       -2.00650
C          6.21070       -1.35290       -0.43740
H          5.73960       -1.78340        0.48180
N          6.00170       -2.22540       -1.61670
C          7.30520       -2.54230       -2.25200
C          8.37300       -2.28510       -1.17340
C          7.74410       -1.22660       -0.25400
C          5.07700       -3.27160       -1.57820
O          5.00080       -4.11400       -2.44690
O          4.25710       -3.16160       -0.51050
C          3.10720       -4.03830       -0.40880
C          2.52890       -3.59850        0.93990
C          2.15850       -3.74470       -1.56340
C          3.56940       -5.49040       -0.37350
H          1.83840        0.00380        2.10940
H          4.11920        0.01060        2.66410
H          3.57090        0.03340       -2.64150
H         -0.91970        0.94180       -1.59340
H         -0.93260       -0.92380       -1.59470
H          5.78570       -0.22520       -2.66150
H          7.33220       -3.57940       -2.64570
H          7.43240       -1.85800       -3.11930
H          8.60420       -3.20900       -0.61710
H          9.32130       -1.93800       -1.61070
H          8.03250       -1.37210        0.79740
H          8.08980       -0.21520       -0.53810
H          3.24260       -3.77180        1.75320
H          1.60830       -4.14350        1.16690
H          2.29580       -2.52540        0.93810
H          2.59870       -4.04090       -2.52790
H          1.93180       -2.67240       -1.63100
H          1.21370       -4.28470       -1.45150
H          3.92820       -5.82270       -1.36040
H          2.75500       -6.15930       -0.07840
H          4.39710       -5.62980        0.33050
