47

O         -0.00660       -0.05450        0.27180
C          1.35580        0.01200        0.17090
C          2.29770        0.05240        1.18520
C          3.65130        0.02580        0.79630
O          4.65810        0.03240        1.72280
C          4.03630       -0.01180       -0.55430
C          3.05240       -0.03570       -1.55760
C          1.72680       -0.03510       -1.17040
O          0.59370       -0.15430       -1.94500
C         -0.49010        0.10240       -1.06380
C          5.51360       -0.02050       -0.90090
H          6.00840        0.72260       -0.25540
O          5.75890        0.36740       -2.23430
C          6.21260       -1.38150       -0.62790
H          5.81550       -1.81870        0.29620
N          5.99750       -2.31100       -1.75780
C          7.25790       -2.58170       -2.46630
C          8.30840       -2.39960       -1.37060
C          7.74940       -1.21510       -0.57570
C          4.99690       -3.25660       -1.82450
O          4.93670       -4.09640       -2.70180
O          4.12660       -3.12550       -0.80920
C          2.96350       -4.01070       -0.69050
C          2.31360       -3.55560        0.61270
C          2.02070       -3.78870       -1.87460
C          3.41840       -5.46790       -0.57780
H          2.00170        0.07730        2.23590
H          4.28210        0.08740        2.61000
H          3.33520       -0.04760       -2.60900
H         -0.84990        1.14250       -1.20170
H         -1.30120       -0.61740       -1.24930
H          5.60630       -0.42780       -2.76950
H          7.21750       -3.58320       -2.91070
H          7.41510       -1.85290       -3.28090
H          8.34800       -3.30650       -0.74450
H          9.31760       -2.21730       -1.76910
H          8.11430       -1.16640        0.46020
H          8.02400       -0.27390       -1.07680
H          3.01380       -3.67220        1.45370
H          1.41710       -4.15980        0.81670
H          2.02130       -2.50060        0.55120
H          2.51160       -4.05620       -2.81870
H          1.69440       -2.73950       -1.92060
H          1.12660       -4.41970       -1.75330
H          3.87450       -5.81610       -1.51140
H          2.55120       -6.10330       -0.34120
H          4.15080       -5.57340        0.23790
