rmsd26.gzmat
 OpenBabel08211713413D

 47 49  0  0  1  0  0  0  0  0999 V2000
    0.0000    0.0000    0.0000 O   0  0  0  0  0  0  0  0  0  0  0  0
    1.3685    0.0000    0.0000 C   0  0  0  0  0  0  0  0  0  0  0  0
    2.2044    0.0000    1.0929 C   0  0  0  0  0  0  0  0  0  0  0  0
    3.5772   -0.0109    0.7808 C   0  0  0  0  0  0  0  0  0  0  0  0
    4.5222   -0.0271    1.7595 O   0  0  0  0  0  0  0  0  0  0  0  0
    4.0828   -0.0106   -0.5254 C   0  0  0  0  0  0  0  0  0  0  0  0
    3.2021   -0.0033   -1.6174 C   0  0  0  0  0  0  0  0  0  0  0  0
    1.8579   -0.0043   -1.3243 C   0  0  0  0  0  0  0  0  0  0  0  0
    0.8074   -0.0083   -2.2172 O   0  0  0  0  0  0  0  0  0  0  0  0
   -0.3794   -0.0075   -1.3985 C   0  0  0  0  0  0  0  0  0  0  0  0
    5.5727   -0.0081   -0.7231 C   0  0  2  0  0  0  0  0  0  0  0  0
    6.0588    0.7294   -0.0351 H   0  0  0  0  0  0  0  0  0  0  0  0
    5.9146    0.4843   -1.9936 O   0  0  0  0  0  0  0  0  0  0  0  0
    6.1664   -1.4336   -0.4976 C   0  0  1  0  0  0  0  0  0  0  0  0
    5.7360   -1.8539    0.4459 H   0  0  0  0  0  0  0  0  0  0  0  0
    5.8420   -2.2792   -1.6700 N   0  0  0  0  0  0  0  0  0  0  0  0
    7.0818   -2.6175   -2.4119 C   0  0  0  0  0  0  0  0  0  0  0  0
    8.2390   -2.4123   -1.4177 C   0  0  0  0  0  0  0  0  0  0  0  0
    7.7119   -1.3744   -0.4139 C   0  0  0  0  0  0  0  0  0  0  0  0
    4.8968   -3.3028   -1.5726 C   0  0  0  0  0  0  0  0  0  0  0  0
    4.7376   -4.1376   -2.4375 O   0  0  0  0  0  0  0  0  0  0  0  0
    4.1560   -3.1806   -0.4492 O   0  0  0  0  0  0  0  0  0  0  0  0
    3.0114   -4.0515   -0.2647 C   0  0  0  0  0  0  0  0  0  0  0  0
    2.5095   -3.5838    1.1051 C   0  0  0  0  0  0  0  0  0  0  0  0
    1.9985   -3.7794   -1.3684 C   0  0  0  0  0  0  0  0  0  0  0  0
    3.4830   -5.5006   -0.2234 C   0  0  0  0  0  0  0  0  0  0  0  0
    1.8379    0.0106    2.1093 H   0  0  0  0  0  0  0  0  0  0  0  0
    4.1232   -0.0095    2.6622 H   0  0  0  0  0  0  0  0  0  0  0  0
    3.5682    0.0062   -2.6424 H   0  0  0  0  0  0  0  0  0  0  0  0
   -0.9277    0.9233   -1.5963 H   0  0  0  0  0  0  0  0  0  0  0  0
   -0.9233   -0.9427   -1.5892 H   0  0  0  0  0  0  0  0  0  0  0  0
    5.7456   -0.2043   -2.6763 H   0  0  0  0  0  0  0  0  0  0  0  0
    7.0477   -3.6464   -2.8262 H   0  0  0  0  0  0  0  0  0  0  0  0
    7.1600   -1.9202   -3.2745 H   0  0  0  0  0  0  0  0  0  0  0  0
    8.4994   -3.3579   -0.9132 H   0  0  0  0  0  0  0  0  0  0  0  0
    9.1535   -2.0658   -1.9229 H   0  0  0  0  0  0  0  0  0  0  0  0
    8.0630   -1.5793    0.6081 H   0  0  0  0  0  0  0  0  0  0  0  0
    8.0783   -0.3644   -0.6762 H   0  0  0  0  0  0  0  0  0  0  0  0
    3.2738   -3.7260    1.8775 H   0  0  0  0  0  0  0  0  0  0  0  0
    1.6129   -4.1351    1.4022 H   0  0  0  0  0  0  0  0  0  0  0  0
    2.2594   -2.5145    1.0885 H   0  0  0  0  0  0  0  0  0  0  0  0
    2.3674   -4.1293   -2.3452 H   0  0  0  0  0  0  0  0  0  0  0  0
    1.8004   -2.7039   -1.4695 H   0  0  0  0  0  0  0  0  0  0  0  0
    1.0463   -4.2809   -1.1742 H   0  0  0  0  0  0  0  0  0  0  0  0
    3.7700   -5.8589   -1.2242 H   0  0  0  0  0  0  0  0  0  0  0  0
    2.6997   -6.1653    0.1533 H   0  0  0  0  0  0  0  0  0  0  0  0
    4.3620   -5.6141    0.4209 H   0  0  0  0  0  0  0  0  0  0  0  0
  1  2  1  0  0  0  0
  2  3  2  0  0  0  0
  3 27  1  0  0  0  0
  4  3  1  0  0  0  0
  4  5  1  0  0  0  0
  5 28  1  0  0  0  0
  6  4  2  0  0  0  0
  7  8  2  0  0  0  0
  7  6  1  0  0  0  0
  8  2  1  0  0  0  0
  9 10  1  0  0  0  0
  9  8  1  0  0  0  0
 10  1  1  0  0  0  0
 11  6  1  0  0  0  0
 11 14  1  0  0  0  0
 11 12  1  1  0  0  0
 13 11  1  0  0  0  0
 14 19  1  0  0  0  0
 14 15  1  1  0  0  0
 16 20  1  0  0  0  0
 16 14  1  0  0  0  0
 17 16  1  0  0  0  0
 17 18  1  0  0  0  0
 18 35  1  0  0  0  0
 18 19  1  0  0  0  0
 19 37  1  0  0  0  0
 20 22  1  0  0  0  0
 21 20  2  0  0  0  0
 22 23  1  0  0  0  0
 23 26  1  0  0  0  0
 23 24  1  0  0  0  0
 24 40  1  0  0  0  0
 24 39  1  0  0  0  0
 25 44  1  0  0  0  0
 25 23  1  0  0  0  0
 26 46  1  0  0  0  0
 26 47  1  0  0  0  0
 29  7  1  0  0  0  0
 30 10  1  0  0  0  0
 31 10  1  0  0  0  0
 32 13  1  0  0  0  0
 33 17  1  0  0  0  0
 34 17  1  0  0  0  0
 36 18  1  0  0  0  0
 38 19  1  0  0  0  0
 41 24  1  0  0  0  0
 42 25  1  0  0  0  0
 43 25  1  0  0  0  0
 45 26  1  0  0  0  0
M  END
$$$$
