28
rmsd79.gzmat
C          0.00000        0.00000        0.00000
C          1.41240        0.00000        0.00000
C          2.09440        0.00000        1.20540
C          1.39710        0.00230        2.42030
C         -0.00260       -0.00210        2.41640
C         -0.70670       -0.00530        1.22490
S          2.25280        0.01060        3.91870
O          1.35950       -0.31750        5.00960
O          3.52960       -0.63640        3.79330
N          2.55670        1.72170        4.27030
C          3.35900        2.53400        3.50610
C          3.86620        3.84940        3.87870
C          4.55770        4.27220        2.77520
O          4.50000        3.31380        1.78490
N          3.75260        2.24610        2.25000
C          5.31700        5.47570        2.43210
N         -0.68910        0.00210       -1.19120
H          1.95990        0.01080       -0.93570
H          3.19650        0.00670        1.19320
H         -0.56040       -0.00780        3.36320
H         -1.79000       -0.01070        1.22680
H          2.34580        2.05020        5.21100
H          3.71310        4.33720        4.81150
H          5.86570        5.37530        1.47990
H          6.06260        5.72070        3.20890
H          4.65650        6.35520        2.33130
H         -0.21230        0.01280       -2.06440
H         -1.68350       -0.00220       -1.21540
