rmsd71.gzmat
 OpenBabel08211713403D

 28 29  0  0  0  0  0  0  0  0999 V2000
    0.0000    0.0000    0.0000 C   0  0  0  0  0  0  0  0  0  0  0  0
    1.4120    0.0000    0.0000 C   0  0  0  0  0  0  0  0  0  0  0  0
    2.0935    0.0000    1.2056 C   0  0  0  0  0  0  0  0  0  0  0  0
    1.3952   -0.0008    2.4201 C   0  0  0  0  0  0  0  0  0  0  0  0
   -0.0045   -0.0091    2.4160 C   0  0  0  0  0  0  0  0  0  0  0  0
   -0.7083   -0.0094    1.2241 C   0  0  0  0  0  0  0  0  0  0  0  0
    2.2544    0.0010    3.9156 S   0  0  0  0  0  0  0  0  0  0  0  0
    1.3727   -0.3630    5.0043 O   0  0  0  0  0  0  0  0  0  0  0  0
    3.5423   -0.6200    3.7722 O   0  0  0  0  0  0  0  0  0  0  0  0
    2.5295    1.7101    4.2977 N   0  0  0  0  0  0  0  0  0  0  0  0
    3.2572    2.5744    3.5169 C   0  0  0  0  0  0  0  0  0  0  0  0
    3.6972    3.9133    3.8914 C   0  0  0  0  0  0  0  0  0  0  0  0
    4.3221    4.3917    2.7712 C   0  0  0  0  0  0  0  0  0  0  0  0
    4.2868    3.4450    1.7690 O   0  0  0  0  0  0  0  0  0  0  0  0
    3.6236    2.3267    2.2442 N   0  0  0  0  0  0  0  0  0  0  0  0
    4.9997    5.6419    2.4239 C   0  0  0  0  0  0  0  0  0  0  0  0
   -0.6893   -0.0094   -1.1920 N   0  0  0  0  0  0  0  0  0  0  0  0
    1.9598    0.0100   -0.9355 H   0  0  0  0  0  0  0  0  0  0  0  0
    3.1954    0.0093    1.1945 H   0  0  0  0  0  0  0  0  0  0  0  0
   -0.5637   -0.0204    3.3615 H   0  0  0  0  0  0  0  0  0  0  0  0
   -1.7919   -0.0173    1.2249 H   0  0  0  0  0  0  0  0  0  0  0  0
    2.3447    2.0116    5.2526 H   0  0  0  0  0  0  0  0  0  0  0  0
    3.5459    4.3782    4.8362 H   0  0  0  0  0  0  0  0  0  0  0  0
    5.1631    5.7494    1.3381 H   0  0  0  0  0  0  0  0  0  0  0  0
    5.9926    5.7082    2.9048 H   0  0  0  0  0  0  0  0  0  0  0  0
    4.4234    6.5231    2.7551 H   0  0  0  0  0  0  0  0  0  0  0  0
   -0.2116    0.0512   -2.0628 H   0  0  0  0  0  0  0  0  0  0  0  0
   -1.6827    0.0350   -1.2143 H   0  0  0  0  0  0  0  0  0  0  0  0
  1  2  2  0  0  0  0
  1  6  1  0  0  0  0
  2  3  1  0  0  0  0
  3  4  2  0  0  0  0
  4  7  1  0  0  0  0
  5  4  1  0  0  0  0
  5 20  1  0  0  0  0
  6 21  1  0  0  0  0
  6  5  2  0  0  0  0
  7 10  1  0  0  0  0
  7  8  2  0  0  0  0
  9  7  2  0  0  0  0
 10 22  1  0  0  0  0
 11 12  1  0  0  0  0
 11 10  1  0  0  0  0
 12 23  1  0  0  0  0
 13 12  2  0  0  0  0
 14 15  1  0  0  0  0
 14 13  1  0  0  0  0
 15 11  2  0  0  0  0
 16 26  1  0  0  0  0
 16 13  1  0  0  0  0
 16 25  1  0  0  0  0
 17  1  1  0  0  0  0
 18  2  1  0  0  0  0
 19  3  1  0  0  0  0
 24 16  1  0  0  0  0
 27 17  1  0  0  0  0
 28 17  1  0  0  0  0
M  END
$$$$
