rmsd84.gzmat
 OpenBabel08211713403D

 28 29  0  0  0  0  0  0  0  0999 V2000
    0.0000    0.0000    0.0000 C   0  0  0  0  0  0  0  0  0  0  0  0
    1.4125    0.0000    0.0000 C   0  0  0  0  0  0  0  0  0  0  0  0
    2.0946    0.0000    1.2056 C   0  0  0  0  0  0  0  0  0  0  0  0
    1.3959   -0.0040    2.4198 C   0  0  0  0  0  0  0  0  0  0  0  0
   -0.0039   -0.0108    2.4156 C   0  0  0  0  0  0  0  0  0  0  0  0
   -0.7081   -0.0076    1.2241 C   0  0  0  0  0  0  0  0  0  0  0  0
    2.2492   -0.0011    3.9189 S   0  0  0  0  0  0  0  0  0  0  0  0
    1.3638   -0.3741    5.0015 O   0  0  0  0  0  0  0  0  0  0  0  0
    3.5429   -0.6114    3.7822 O   0  0  0  0  0  0  0  0  0  0  0  0
    2.5080    1.7097    4.3045 N   0  0  0  0  0  0  0  0  0  0  0  0
    3.2462    2.5720    3.5314 C   0  0  0  0  0  0  0  0  0  0  0  0
    3.6867    3.9098    3.9091 C   0  0  0  0  0  0  0  0  0  0  0  0
    4.3309    4.3822    2.7972 C   0  0  0  0  0  0  0  0  0  0  0  0
    4.3047    3.4334    1.7963 O   0  0  0  0  0  0  0  0  0  0  0  0
    3.6285    2.3197    2.2640 N   0  0  0  0  0  0  0  0  0  0  0  0
    5.0184    5.6282    2.4538 C   0  0  0  0  0  0  0  0  0  0  0  0
   -0.6898   -0.0104   -1.1918 N   0  0  0  0  0  0  0  0  0  0  0  0
    1.9598    0.0116   -0.9358 H   0  0  0  0  0  0  0  0  0  0  0  0
    3.1964    0.0121    1.1939 H   0  0  0  0  0  0  0  0  0  0  0  0
   -0.5627   -0.0247    3.3617 H   0  0  0  0  0  0  0  0  0  0  0  0
   -1.7913   -0.0104    1.2260 H   0  0  0  0  0  0  0  0  0  0  0  0
    2.3137    2.0108    5.2577 H   0  0  0  0  0  0  0  0  0  0  0  0
    3.5234    4.3784    4.8501 H   0  0  0  0  0  0  0  0  0  0  0  0
    5.4401    5.6132    1.4341 H   0  0  0  0  0  0  0  0  0  0  0  0
    5.8546    5.8323    3.1466 H   0  0  0  0  0  0  0  0  0  0  0  0
    4.3365    6.4951    2.5082 H   0  0  0  0  0  0  0  0  0  0  0  0
   -0.2127    0.0482   -2.0635 H   0  0  0  0  0  0  0  0  0  0  0  0
   -1.6827    0.0428   -1.2133 H   0  0  0  0  0  0  0  0  0  0  0  0
  1  2  2  0  0  0  0
  1  6  1  0  0  0  0
  2  3  1  0  0  0  0
  3  4  2  0  0  0  0
  4  7  1  0  0  0  0
  5  4  1  0  0  0  0
  5 20  1  0  0  0  0
  6 21  1  0  0  0  0
  6  5  2  0  0  0  0
  7 10  1  0  0  0  0
  7  8  2  0  0  0  0
  9  7  2  0  0  0  0
 10 22  1  0  0  0  0
 11 12  1  0  0  0  0
 11 10  1  0  0  0  0
 12 23  1  0  0  0  0
 13 12  2  0  0  0  0
 14 15  1  0  0  0  0
 14 13  1  0  0  0  0
 15 11  2  0  0  0  0
 16 26  1  0  0  0  0
 16 13  1  0  0  0  0
 16 25  1  0  0  0  0
 17  1  1  0  0  0  0
 18  2  1  0  0  0  0
 19  3  1  0  0  0  0
 24 16  1  0  0  0  0
 27 17  1  0  0  0  0
 28 17  1  0  0  0  0
M  END
$$$$
