rmsd50.gzmat
 OpenBabel08211713403D

 28 29  0  0  0  0  0  0  0  0999 V2000
    0.0000    0.0000    0.0000 C   0  0  0  0  0  0  0  0  0  0  0  0
    1.4143    0.0000    0.0000 C   0  0  0  0  0  0  0  0  0  0  0  0
    2.0938    0.0000    1.2059 C   0  0  0  0  0  0  0  0  0  0  0  0
    1.3973    0.0032    2.4196 C   0  0  0  0  0  0  0  0  0  0  0  0
   -0.0034   -0.0151    2.4163 C   0  0  0  0  0  0  0  0  0  0  0  0
   -0.7060   -0.0180    1.2228 C   0  0  0  0  0  0  0  0  0  0  0  0
    2.2641    0.0477    3.9106 S   0  0  0  0  0  0  0  0  0  0  0  0
    1.5089   -0.5569    4.9723 O   0  0  0  0  0  0  0  0  0  0  0  0
    3.6533   -0.2999    3.6988 O   0  0  0  0  0  0  0  0  0  0  0  0
    2.4313    1.7736    4.2800 N   0  0  0  0  0  0  0  0  0  0  0  0
    1.3794    2.6315    4.4854 C   0  0  0  0  0  0  0  0  0  0  0  0
    1.4675    4.0068    4.9624 C   0  0  0  0  0  0  0  0  0  0  0  0
    0.1732    4.4531    4.9556 C   0  0  0  0  0  0  0  0  0  0  0  0
   -0.6685    3.4558    4.5089 O   0  0  0  0  0  0  0  0  0  0  0  0
    0.0918    2.3354    4.2202 N   0  0  0  0  0  0  0  0  0  0  0  0
   -0.4839    5.7108    5.3153 C   0  0  0  0  0  0  0  0  0  0  0  0
   -0.6885    0.0023   -1.1924 N   0  0  0  0  0  0  0  0  0  0  0  0
    1.9587    0.0005   -0.9368 H   0  0  0  0  0  0  0  0  0  0  0  0
    3.1921   -0.0059    1.1952 H   0  0  0  0  0  0  0  0  0  0  0  0
   -0.5643   -0.0177    3.3649 H   0  0  0  0  0  0  0  0  0  0  0  0
   -1.7902   -0.0223    1.2288 H   0  0  0  0  0  0  0  0  0  0  0  0
    3.3510    2.1092    4.5591 H   0  0  0  0  0  0  0  0  0  0  0  0
    2.3590    4.5155    5.2422 H   0  0  0  0  0  0  0  0  0  0  0  0
   -1.5842    5.6455    5.2659 H   0  0  0  0  0  0  0  0  0  0  0  0
   -0.1801    6.5335    4.6442 H   0  0  0  0  0  0  0  0  0  0  0  0
   -0.2259    6.0222    6.3430 H   0  0  0  0  0  0  0  0  0  0  0  0
   -0.2133    0.0622   -2.0642 H   0  0  0  0  0  0  0  0  0  0  0  0
   -1.6820    0.0545   -1.2129 H   0  0  0  0  0  0  0  0  0  0  0  0
  1  2  2  0  0  0  0
  1  6  1  0  0  0  0
  2  3  1  0  0  0  0
  3  4  2  0  0  0  0
  4  7  1  0  0  0  0
  5  4  1  0  0  0  0
  5 20  1  0  0  0  0
  6 21  1  0  0  0  0
  6  5  2  0  0  0  0
  7 10  1  0  0  0  0
  7  8  2  0  0  0  0
  9  7  2  0  0  0  0
 10 11  1  0  0  0  0
 10 22  1  0  0  0  0
 11 12  1  0  0  0  0
 12 23  1  0  0  0  0
 13 12  2  0  0  0  0
 13 16  1  0  0  0  0
 14 13  1  0  0  0  0
 15 11  2  0  0  0  0
 15 14  1  0  0  0  0
 16 26  1  0  0  0  0
 17  1  1  0  0  0  0
 18  2  1  0  0  0  0
 19  3  1  0  0  0  0
 24 16  1  0  0  0  0
 25 16  1  0  0  0  0
 27 17  1  0  0  0  0
 28 17  1  0  0  0  0
M  END
$$$$
