28
rmsd50.gzmat
C          0.00000        0.00000        0.00000
C          1.41430        0.00000        0.00000
C          2.09380        0.00000        1.20590
C          1.39730        0.00320        2.41960
C         -0.00340       -0.01510        2.41630
C         -0.70600       -0.01800        1.22280
S          2.26410        0.04770        3.91060
O          1.50890       -0.55690        4.97230
O          3.65330       -0.29990        3.69880
N          2.43130        1.77360        4.28000
C          1.37940        2.63150        4.48540
C          1.46750        4.00680        4.96240
C          0.17320        4.45310        4.95560
O         -0.66850        3.45580        4.50890
N          0.09180        2.33540        4.22020
C         -0.48390        5.71080        5.31530
N         -0.68850        0.00230       -1.19240
H          1.95870        0.00050       -0.93680
H          3.19210       -0.00590        1.19520
H         -0.56430       -0.01770        3.36490
H         -1.79020       -0.02230        1.22880
H          3.35100        2.10920        4.55910
H          2.35900        4.51550        5.24220
H         -1.58420        5.64550        5.26590
H         -0.18010        6.53350        4.64420
H         -0.22590        6.02220        6.34300
H         -0.21330        0.06220       -2.06420
H         -1.68200        0.05450       -1.21290
