rmsd83.gzmat
 OpenBabel08211713403D

 28 29  0  0  0  0  0  0  0  0999 V2000
    0.0000    0.0000    0.0000 C   0  0  0  0  0  0  0  0  0  0  0  0
    1.4122    0.0000    0.0000 C   0  0  0  0  0  0  0  0  0  0  0  0
    2.0939    0.0000    1.2055 C   0  0  0  0  0  0  0  0  0  0  0  0
    1.3956    0.0000    2.4200 C   0  0  0  0  0  0  0  0  0  0  0  0
   -0.0040   -0.0051    2.4158 C   0  0  0  0  0  0  0  0  0  0  0  0
   -0.7080   -0.0052    1.2241 C   0  0  0  0  0  0  0  0  0  0  0  0
    2.2523    0.0031    3.9165 S   0  0  0  0  0  0  0  0  0  0  0  0
    1.3689   -0.3604    5.0041 O   0  0  0  0  0  0  0  0  0  0  0  0
    3.5409   -0.6173    3.7770 O   0  0  0  0  0  0  0  0  0  0  0  0
    2.5242    1.7137    4.2954 N   0  0  0  0  0  0  0  0  0  0  0  0
    3.2477    2.5778    3.5108 C   0  0  0  0  0  0  0  0  0  0  0  0
    3.6853    3.9185    3.8826 C   0  0  0  0  0  0  0  0  0  0  0  0
    4.3102    4.3953    2.7616 C   0  0  0  0  0  0  0  0  0  0  0  0
    4.2768    3.4463    1.7612 O   0  0  0  0  0  0  0  0  0  0  0  0
    3.6151    2.3277    2.2385 N   0  0  0  0  0  0  0  0  0  0  0  0
    4.9837    5.6476    2.4131 C   0  0  0  0  0  0  0  0  0  0  0  0
   -0.6886   -0.0119   -1.1922 N   0  0  0  0  0  0  0  0  0  0  0  0
    1.9600    0.0106   -0.9355 H   0  0  0  0  0  0  0  0  0  0  0  0
    3.1954    0.0072    1.1936 H   0  0  0  0  0  0  0  0  0  0  0  0
   -0.5630   -0.0147    3.3618 H   0  0  0  0  0  0  0  0  0  0  0  0
   -1.7912   -0.0091    1.2260 H   0  0  0  0  0  0  0  0  0  0  0  0
    2.3415    2.0172    5.2503 H   0  0  0  0  0  0  0  0  0  0  0  0
    3.5343    4.3857    4.8265 H   0  0  0  0  0  0  0  0  0  0  0  0
    5.4462    5.6186    1.4115 H   0  0  0  0  0  0  0  0  0  0  0  0
    5.7870    5.8880    3.1325 H   0  0  0  0  0  0  0  0  0  0  0  0
    4.2816    6.5001    2.4191 H   0  0  0  0  0  0  0  0  0  0  0  0
   -0.2109    0.0378   -2.0638 H   0  0  0  0  0  0  0  0  0  0  0  0
   -1.6825    0.0222   -1.2156 H   0  0  0  0  0  0  0  0  0  0  0  0
  1  2  2  0  0  0  0
  1  6  1  0  0  0  0
  2  3  1  0  0  0  0
  3  4  2  0  0  0  0
  4  7  1  0  0  0  0
  5  4  1  0  0  0  0
  5 20  1  0  0  0  0
  6 21  1  0  0  0  0
  6  5  2  0  0  0  0
  7 10  1  0  0  0  0
  7  8  2  0  0  0  0
  9  7  2  0  0  0  0
 10 22  1  0  0  0  0
 11 12  1  0  0  0  0
 11 10  1  0  0  0  0
 12 23  1  0  0  0  0
 13 12  2  0  0  0  0
 14 15  1  0  0  0  0
 14 13  1  0  0  0  0
 15 11  2  0  0  0  0
 16 26  1  0  0  0  0
 16 13  1  0  0  0  0
 16 25  1  0  0  0  0
 17  1  1  0  0  0  0
 18  2  1  0  0  0  0
 19  3  1  0  0  0  0
 24 16  1  0  0  0  0
 27 17  1  0  0  0  0
 28 17  1  0  0  0  0
M  END
$$$$
