28
rmsd49.gzmat
C          0.00000        0.00000        0.00000
C          1.41410        0.00000        0.00000
C          2.09310        0.00000        1.20610
C          1.39610        0.00270        2.41980
C         -0.00450       -0.00660        2.41640
C         -0.70660       -0.01020        1.22260
S          2.27070        0.01730        3.90640
O          1.53210       -0.63130        4.95380
O          3.66210       -0.30460        3.66900
N          2.41840        1.72970        4.34210
C          1.35340        2.54970        4.62300
C          1.41710        3.88730        5.20020
C          0.11430        4.30760        5.22980
O         -0.71040        3.32850        4.71650
N          0.07010        2.24770        4.34370
C         -0.56710        5.52600        5.67110
N         -0.68850        0.00230       -1.19200
H          1.95830        0.00150       -0.93650
H          3.19200       -0.00770        1.19590
H         -0.56730       -0.00310        3.36360
H         -1.79080       -0.01060        1.22780
H          3.33620        2.06450        4.62760
H          2.29990        4.39080        5.51540
H         -1.66610        5.44280        5.61530
H         -0.27940        6.39620        5.05460
H         -0.31480        5.77530        6.71720
H         -0.21420        0.01910       -2.06550
H         -1.68300        0.01700       -1.21250
