28

C          0.07030       -0.25770       -0.18200
C          1.47940       -0.23350       -0.07020
C          2.08850       -0.08030        1.16760
C          1.29750        0.05110        2.31400
C         -0.09900        0.02760        2.23200
C         -0.70440       -0.12470        0.99250
S          2.08400        0.24150        3.88370
O          1.18400       -0.23660        4.92690
O          3.47390       -0.21100        3.79220
N          2.28250        1.93890        4.04600
C          1.28320        2.81670        4.42570
C          1.47290        4.09050        5.05410
C          0.20130        4.57190        5.18700
O         -0.66970        3.67790        4.69050
N          0.01080        2.56820        4.20190
C         -0.36120        5.82520        5.75550
N         -0.53240       -0.44500       -1.40170
H          2.09210       -0.34640       -0.96830
H          3.17550       -0.07420        1.26020
H         -0.69290        0.14720        3.13760
H         -1.79480       -0.14300        0.92110
H          3.23740        2.16170        4.30870
H          2.40510        4.55810        5.35800
H         -1.04810        5.60080        6.58710
H         -0.93410        6.37680        4.99290
H          0.44440        6.47140        6.12780
H          0.01750       -0.30880       -2.23950
H         -1.51820       -0.23680       -1.49020
