28
rmsd84.gzmat
C          0.00000        0.00000        0.00000
C          1.41250        0.00000        0.00000
C          2.09460        0.00000        1.20560
C          1.39590       -0.00400        2.41980
C         -0.00390       -0.01080        2.41560
C         -0.70810       -0.00760        1.22410
S          2.24920       -0.00110        3.91890
O          1.36380       -0.37410        5.00150
O          3.54290       -0.61140        3.78220
N          2.50800        1.70970        4.30450
C          3.24620        2.57200        3.53140
C          3.68670        3.90980        3.90910
C          4.33090        4.38220        2.79720
O          4.30470        3.43340        1.79630
N          3.62850        2.31970        2.26400
C          5.01840        5.62820        2.45380
N         -0.68980       -0.01040       -1.19180
H          1.95980        0.01160       -0.93580
H          3.19640        0.01210        1.19390
H         -0.56270       -0.02470        3.36170
H         -1.79130       -0.01040        1.22600
H          2.31370        2.01080        5.25770
H          3.52340        4.37840        4.85010
H          5.44010        5.61320        1.43410
H          5.85460        5.83230        3.14660
H          4.33650        6.49510        2.50820
H         -0.21270        0.04820       -2.06350
H         -1.68270        0.04280       -1.21330
