28
rmsd55.gzmat
C          0.00000        0.00000        0.00000
C          1.41410        0.00000        0.00000
C          2.09370        0.00000        1.20560
C          1.39740       -0.00380        2.41950
C         -0.00320       -0.01930        2.41630
C         -0.70610       -0.01620        1.22280
S          2.27410        0.00920        3.90560
O          1.54690       -0.66030        4.94800
O          3.66980       -0.29110        3.66480
N          2.39890        1.72090        4.35060
C          1.32500        2.51750        4.66390
C          1.37800        3.84800        5.25840
C          0.06890        4.24230        5.32770
O         -0.74990        3.25550        4.81830
N          0.04150        2.19610        4.40960
C         -0.62550        5.43780        5.80870
N         -0.68740        0.00330       -1.19260
H          1.95850       -0.00050       -0.93620
H          3.19270       -0.00240        1.19450
H         -0.56530       -0.02590        3.36420
H         -1.79050       -0.01610        1.22800
H          3.31590        2.06880        4.62520
H          2.25910        4.36270        5.55860
H         -1.61550        5.20350        6.23730
H         -0.79440        6.16330        4.99300
H         -0.04930        5.96000        6.59080
H         -0.21110        0.05470       -2.06430
H         -1.68170        0.03380       -1.21510
