35

C         -0.08220       -0.02850        0.02780
C          1.29900       -0.14210       -0.01050
C          2.03270       -0.24590        1.21030
C          1.38730       -0.22700        2.42230
C         -0.02800       -0.10710        2.49830
C         -0.72850       -0.08420        3.73350
C         -2.10280        0.03140        3.76430
C         -2.83510        0.12900        2.55440
C         -2.18260        0.10930        1.33980
C         -0.76580       -0.00840        1.27280
N          2.06490       -0.16340       -1.18640
C          1.62380       -0.18020       -2.47220
O          0.44360       -0.12330       -2.79070
C          2.67740       -0.20660       -3.58040
C          3.97360       -0.79290       -3.60000
C          4.71560       -0.78510       -4.79850
C          4.23210       -0.17980       -5.95350
C          2.96410        0.40190       -5.93770
C          2.20240        0.36460       -4.77350
C          4.66500       -1.42360       -2.43470
O          4.58440       -1.08390       -1.26850
O          5.48270       -2.42320       -2.79540
H         -0.64190        0.04310       -0.90100
H          3.11970       -0.34830        1.16430
H          1.96220       -0.30780        3.34850
H         -0.15760       -0.16020        4.66300
H         -2.63140        0.04800        4.72040
H         -3.92360        0.22000        2.58830
H         -2.74530        0.18410        0.40590
H          3.07390       -0.25370       -1.05170
H          5.69560       -1.26080       -4.80700
H          4.83960       -0.17280       -6.86100
H          2.55980        0.87420       -6.83600
H          1.19070        0.76950       -4.75830
H          5.92760       -2.72500       -1.98440
