35

C          0.03640       -0.22400        0.10220
C          1.34900        0.21490        0.03670
C          1.97280        0.75390        1.20000
C          1.28820        0.84410        2.38780
C         -0.05980        0.40400        2.49120
C         -0.79830        0.48200        3.70230
C         -2.10460        0.04360        3.76110
C         -2.72760       -0.49280        2.60590
C         -2.03630       -0.58120        1.41630
C         -0.68710       -0.13790        1.32140
N          2.12920        0.16610       -1.13190
C          1.79950       -0.35460       -2.35920
O          0.72580       -0.85270       -2.63960
C          2.88810       -0.19190       -3.39420
C          3.35400       -1.28370       -4.15390
C          4.22670       -1.06190       -5.22570
C          4.67000        0.22600       -5.52850
C          4.23250        1.30690       -4.76050
C          3.34300        1.09660       -3.70340
C          2.98650       -2.70430       -3.86390
O          2.95140       -3.57980       -4.69380
O          2.76520       -2.92620       -2.55550
H         -0.43690       -0.63850       -0.78440
H          3.00960        1.09750        1.13880
H          1.77980        1.25910        3.27120
H         -0.31190        0.89660        4.58930
H         -2.66380        0.10800        4.69740
H         -3.76300       -0.83730        2.66240
H         -2.51500       -0.99420        0.52490
H          3.08610        0.48340       -1.03260
H          4.55790       -1.92330       -5.80820
H          5.35610        0.38510       -6.36310
H          4.57000        2.31960       -4.99270
H          2.96750        1.94830       -3.13090
H          2.48310       -3.85240       -2.46740
