35
rmsd167.gzmat
C          0.00000        0.00000        0.00000
C          1.37700        0.00000        0.00000
C          2.10480        0.00000        1.23220
C          1.43130       -0.01220        2.42120
C          0.00830       -0.02160        2.45130
C         -0.70600       -0.04040        3.67920
C         -2.07740       -0.04770        3.68350
C         -2.79520       -0.04030        2.46130
C         -2.12750       -0.02480        1.26370
C         -0.70460       -0.01420        1.23290
N          2.15890        0.03090       -1.18010
C          1.69050       -0.34640       -2.42660
O          0.54060       -0.66700       -2.63560
C          2.66510       -0.25260       -3.56380
C          3.92600       -0.84650       -3.60440
C          4.69850       -0.77650       -4.76740
C          4.22470       -0.08470       -5.87910
C          2.97340        0.52730       -5.83490
C          2.19280        0.43510       -4.68480
C          4.52210       -1.54450       -2.44860
O          4.65920       -1.13360       -1.32160
O          4.99410       -2.75990       -2.80480
H         -0.57380        0.00490       -0.92870
H          3.19410        0.00020        1.20650
H          1.97310       -0.01960        3.36670
H         -0.14500       -0.05030        4.61170
H         -2.63200       -0.06020        4.61900
H         -3.88310       -0.04830        2.49280
H         -2.66860       -0.02240        0.31850
H          3.16730        0.15100       -1.04930
H          5.67260       -1.26900       -4.80440
H          4.83060       -0.02690       -6.78260
H          2.59890        1.07050       -6.70270
H          1.19790        0.88990       -4.66000
H          5.40450       -3.25910       -2.04870
