rmsd139.gzmat
 OpenBabel08211713383D

 35 37  0  0  0  0  0  0  0  0999 V2000
    0.0000    0.0000    0.0000 C   0  0  0  0  0  0  0  0  0  0  0  0
    1.3839    0.0000    0.0000 C   0  0  0  0  0  0  0  0  0  0  0  0
    2.1057    0.0000    1.2283 C   0  0  0  0  0  0  0  0  0  0  0  0
    1.4233   -0.0046    2.4145 C   0  0  0  0  0  0  0  0  0  0  0  0
    0.0015   -0.0034    2.4448 C   0  0  0  0  0  0  0  0  0  0  0  0
   -0.7146   -0.0032    3.6723 C   0  0  0  0  0  0  0  0  0  0  0  0
   -2.0855   -0.0004    3.6762 C   0  0  0  0  0  0  0  0  0  0  0  0
   -2.8024    0.0011    2.4533 C   0  0  0  0  0  0  0  0  0  0  0  0
   -2.1345    0.0008    1.2563 C   0  0  0  0  0  0  0  0  0  0  0  0
   -0.7112   -0.0008    1.2261 C   0  0  0  0  0  0  0  0  0  0  0  0
    2.0459    0.0539   -1.2491 N   0  0  0  0  0  0  0  0  0  0  0  0
    3.3680   -0.3234   -1.4577 C   0  0  0  0  0  0  0  0  0  0  0  0
    4.1200   -0.6615   -0.5742 O   0  0  0  0  0  0  0  0  0  0  0  0
    3.8384   -0.1721   -2.8736 C   0  0  0  0  0  0  0  0  0  0  0  0
    3.6333   -1.1508   -3.8443 C   0  0  0  0  0  0  0  0  0  0  0  0
    4.1770   -0.9935   -5.1219 C   0  0  0  0  0  0  0  0  0  0  0  0
    4.9065    0.1527   -5.4283 C   0  0  0  0  0  0  0  0  0  0  0  0
    5.1006    1.1366   -4.4595 C   0  0  0  0  0  0  0  0  0  0  0  0
    4.5726    0.9732   -3.1799 C   0  0  0  0  0  0  0  0  0  0  0  0
    2.8695   -2.3858   -3.5870 C   0  0  0  0  0  0  0  0  0  0  0  0
    3.0284   -3.4731   -4.0729 O   0  0  0  0  0  0  0  0  0  0  0  0
    1.8584   -2.1537   -2.7086 O   0  0  0  0  0  0  0  0  0  0  0  0
   -0.5650   -0.0003   -0.9278 H   0  0  0  0  0  0  0  0  0  0  0  0
    3.1984    0.0020    1.2180 H   0  0  0  0  0  0  0  0  0  0  0  0
    1.9643   -0.0077    3.3614 H   0  0  0  0  0  0  0  0  0  0  0  0
   -0.1532   -0.0076    4.6051 H   0  0  0  0  0  0  0  0  0  0  0  0
   -2.6416    0.0012    4.6110 H   0  0  0  0  0  0  0  0  0  0  0  0
   -3.8905    0.0031    2.4841 H   0  0  0  0  0  0  0  0  0  0  0  0
   -2.6773    0.0032    0.3139 H   0  0  0  0  0  0  0  0  0  0  0  0
    1.4493    0.1632   -2.0688 H   0  0  0  0  0  0  0  0  0  0  0  0
    4.0341   -1.7747   -5.8734 H   0  0  0  0  0  0  0  0  0  0  0  0
    5.3296    0.2769   -6.4246 H   0  0  0  0  0  0  0  0  0  0  0  0
    5.6734    2.0327   -4.6989 H   0  0  0  0  0  0  0  0  0  0  0  0
    4.7424    1.7340   -2.4159 H   0  0  0  0  0  0  0  0  0  0  0  0
    1.3455   -2.9669   -2.4671 H   0  0  0  0  0  0  0  0  0  0  0  0
  1  2  2  0  0  0  0
  1 10  1  0  0  0  0
  2  3  1  0  0  0  0
  3  4  2  0  0  0  0
  4  5  1  0  0  0  0
  4 25  1  0  0  0  0
  5  6  2  0  0  0  0
  6  7  1  0  0  0  0
  6 26  1  0  0  0  0
  7 27  1  0  0  0  0
  8 28  1  0  0  0  0
  8  7  2  0  0  0  0
  9  8  1  0  0  0  0
 10  9  2  0  0  0  0
 10  5  1  0  0  0  0
 11  2  1  0  0  0  0
 12 11  1  0  0  0  0
 12 13  2  0  0  0  0
 14 12  1  0  0  0  0
 15 20  1  0  0  0  0
 15 14  2  0  0  0  0
 16 15  1  0  0  0  0
 17 16  2  0  0  0  0
 17 18  1  0  0  0  0
 18 19  2  0  0  0  0
 19 14  1  0  0  0  0
 19 34  1  0  0  0  0
 20 22  1  0  0  0  0
 21 20  2  0  0  0  0
 22 35  1  0  0  0  0
 23  1  1  0  0  0  0
 24  3  1  0  0  0  0
 29  9  1  0  0  0  0
 30 11  1  0  0  0  0
 31 16  1  0  0  0  0
 32 17  1  0  0  0  0
 33 18  1  0  0  0  0
M  END
$$$$
