35
rmsd139.gzmat
C          0.00000        0.00000        0.00000
C          1.38390        0.00000        0.00000
C          2.10570        0.00000        1.22830
C          1.42330       -0.00460        2.41450
C          0.00150       -0.00340        2.44480
C         -0.71460       -0.00320        3.67230
C         -2.08550       -0.00040        3.67620
C         -2.80240        0.00110        2.45330
C         -2.13450        0.00080        1.25630
C         -0.71120       -0.00080        1.22610
N          2.04590        0.05390       -1.24910
C          3.36800       -0.32340       -1.45770
O          4.12000       -0.66150       -0.57420
C          3.83840       -0.17210       -2.87360
C          3.63330       -1.15080       -3.84430
C          4.17700       -0.99350       -5.12190
C          4.90650        0.15270       -5.42830
C          5.10060        1.13660       -4.45950
C          4.57260        0.97320       -3.17990
C          2.86950       -2.38580       -3.58700
O          3.02840       -3.47310       -4.07290
O          1.85840       -2.15370       -2.70860
H         -0.56500       -0.00030       -0.92780
H          3.19840        0.00200        1.21800
H          1.96430       -0.00770        3.36140
H         -0.15320       -0.00760        4.60510
H         -2.64160        0.00120        4.61100
H         -3.89050        0.00310        2.48410
H         -2.67730        0.00320        0.31390
H          1.44930        0.16320       -2.06880
H          4.03410       -1.77470       -5.87340
H          5.32960        0.27690       -6.42460
H          5.67340        2.03270       -4.69890
H          4.74240        1.73400       -2.41590
H          1.34550       -2.96690       -2.46710
