35
rmsd57.gzmat
C          0.00000        0.00000        0.00000
C          1.37690        0.00000        0.00000
C          2.10340        0.00000        1.23330
C          1.42940        0.00040        2.42220
C          0.00610        0.00400        2.45170
C         -0.70970        0.00750        3.67870
C         -2.08100        0.00950        3.68160
C         -2.79730        0.01230        2.45860
C         -2.12840        0.01190        1.26180
C         -0.70550        0.00530        1.23240
N          2.16270       -0.03490       -1.17690
C          1.69290        0.28960       -2.43760
O          0.53720        0.57530       -2.66480
C          2.67970        0.17800       -3.56320
C          3.93100        0.79140       -3.61190
C          4.72200        0.68610       -4.75960
C          4.27490       -0.05790       -5.84860
C          3.03140       -0.68510       -5.79770
C          2.23340       -0.55990       -4.66280
C          4.49880        1.54760       -2.47850
O          4.63630        1.18230       -1.33590
O          4.94250        2.76070       -2.87660
H         -0.57460        0.00150       -0.92810
H          3.19260        0.00810        1.20880
H          1.97080        0.00190        3.36790
H         -0.14950        0.00780        4.61170
H         -2.63690        0.01090        4.61630
H         -3.88530        0.01670        2.48860
H         -2.66900        0.01950        0.31630
H          3.17320       -0.13000       -1.04000
H          5.68960        1.19090       -4.80210
H          4.89530       -0.14380       -6.73990
H          2.67730       -1.26590       -6.64950
H          1.24450       -1.02780       -4.63240
H          5.32870        3.30010       -2.13540
