rmsd229.gzmat
 OpenBabel08211713383D

 35 37  0  0  0  0  0  0  0  0999 V2000
    0.0000    0.0000    0.0000 C   0  0  0  0  0  0  0  0  0  0  0  0
    1.3771    0.0000    0.0000 C   0  0  0  0  0  0  0  0  0  0  0  0
    2.1028    0.0000    1.2339 C   0  0  0  0  0  0  0  0  0  0  0  0
    1.4277    0.0029    2.4223 C   0  0  0  0  0  0  0  0  0  0  0  0
    0.0045    0.0046    2.4513 C   0  0  0  0  0  0  0  0  0  0  0  0
   -0.7131    0.0104    3.6774 C   0  0  0  0  0  0  0  0  0  0  0  0
   -2.0846    0.0085    3.6784 C   0  0  0  0  0  0  0  0  0  0  0  0
   -2.7995    0.0005    2.4545 C   0  0  0  0  0  0  0  0  0  0  0  0
   -2.1290   -0.0037    1.2587 C   0  0  0  0  0  0  0  0  0  0  0  0
   -0.7062   -0.0001    1.2317 C   0  0  0  0  0  0  0  0  0  0  0  0
    2.1627    0.0349   -1.1771 N   0  0  0  0  0  0  0  0  0  0  0  0
    1.6870   -0.2744   -2.4394 C   0  0  0  0  0  0  0  0  0  0  0  0
    0.5293   -0.5523   -2.6658 O   0  0  0  0  0  0  0  0  0  0  0  0
    2.6675   -0.1512   -3.5693 C   0  0  0  0  0  0  0  0  0  0  0  0
    3.9114   -0.7778   -3.6402 C   0  0  0  0  0  0  0  0  0  0  0  0
    4.6916   -0.6619   -4.7942 C   0  0  0  0  0  0  0  0  0  0  0  0
    4.2408    0.1027   -5.8670 C   0  0  0  0  0  0  0  0  0  0  0  0
    3.0051    0.7426   -5.7938 C   0  0  0  0  0  0  0  0  0  0  0  0
    2.2182    0.6092   -4.6521 C   0  0  0  0  0  0  0  0  0  0  0  0
    4.4792   -1.5591   -2.5243 C   0  0  0  0  0  0  0  0  0  0  0  0
    4.6150   -1.2198   -1.3735 O   0  0  0  0  0  0  0  0  0  0  0  0
    4.9246   -2.7623   -2.9495 O   0  0  0  0  0  0  0  0  0  0  0  0
   -0.5757   -0.0045   -0.9274 H   0  0  0  0  0  0  0  0  0  0  0  0
    3.1920   -0.0106    1.2096 H   0  0  0  0  0  0  0  0  0  0  0  0
    1.9688    0.0008    3.3681 H   0  0  0  0  0  0  0  0  0  0  0  0
   -0.1545    0.0182    4.6113 H   0  0  0  0  0  0  0  0  0  0  0  0
   -2.6416    0.0125    4.6124 H   0  0  0  0  0  0  0  0  0  0  0  0
   -3.8876   -0.0031    2.4827 H   0  0  0  0  0  0  0  0  0  0  0  0
   -2.6681   -0.0126    0.3125 H   0  0  0  0  0  0  0  0  0  0  0  0
    3.1751    0.1093   -1.0414 H   0  0  0  0  0  0  0  0  0  0  0  0
    5.6533   -1.1758   -4.8573 H   0  0  0  0  0  0  0  0  0  0  0  0
    4.8522    0.1943   -6.7639 H   0  0  0  0  0  0  0  0  0  0  0  0
    2.6483    1.3393   -6.6336 H   0  0  0  0  0  0  0  0  0  0  0  0
    1.2355    1.0880   -4.6045 H   0  0  0  0  0  0  0  0  0  0  0  0
    5.3121   -3.3182   -2.2212 H   0  0  0  0  0  0  0  0  0  0  0  0
  1  2  2  0  0  0  0
  1 10  1  0  0  0  0
  2  3  1  0  0  0  0
  3  4  2  0  0  0  0
  4  5  1  0  0  0  0
  4 25  1  0  0  0  0
  5  6  2  0  0  0  0
  6  7  1  0  0  0  0
  6 26  1  0  0  0  0
  7 27  1  0  0  0  0
  8 28  1  0  0  0  0
  8  7  2  0  0  0  0
  9  8  1  0  0  0  0
 10  9  2  0  0  0  0
 10  5  1  0  0  0  0
 11 30  1  0  0  0  0
 11  2  1  0  0  0  0
 12 11  1  0  0  0  0
 13 12  2  0  0  0  0
 14 12  1  0  0  0  0
 15 14  1  0  0  0  0
 15 20  1  0  0  0  0
 16 15  2  0  0  0  0
 17 18  2  0  0  0  0
 17 16  1  0  0  0  0
 18 19  1  0  0  0  0
 19 34  1  0  0  0  0
 19 14  2  0  0  0  0
 20 21  2  0  0  0  0
 22 20  1  0  0  0  0
 22 35  1  0  0  0  0
 23  1  1  0  0  0  0
 24  3  1  0  0  0  0
 29  9  1  0  0  0  0
 31 16  1  0  0  0  0
 32 17  1  0  0  0  0
 33 18  1  0  0  0  0
M  END
$$$$
