
     RDKit          3D

 35 37  0  0  0  0  0  0  0  0999 V2000
    0.0364   -0.2240    0.1022 C   0  0  0  0  0  0  0  0  0  0  0  0
    1.3490    0.2149    0.0367 C   0  0  0  0  0  0  0  0  0  0  0  0
    1.9728    0.7539    1.2000 C   0  0  0  0  0  0  0  0  0  0  0  0
    1.2882    0.8441    2.3878 C   0  0  0  0  0  0  0  0  0  0  0  0
   -0.0598    0.4040    2.4912 C   0  0  0  0  0  0  0  0  0  0  0  0
   -0.7983    0.4820    3.7023 C   0  0  0  0  0  0  0  0  0  0  0  0
   -2.1046    0.0436    3.7611 C   0  0  0  0  0  0  0  0  0  0  0  0
   -2.7276   -0.4928    2.6059 C   0  0  0  0  0  0  0  0  0  0  0  0
   -2.0363   -0.5812    1.4163 C   0  0  0  0  0  0  0  0  0  0  0  0
   -0.6871   -0.1379    1.3214 C   0  0  0  0  0  0  0  0  0  0  0  0
    2.1292    0.1661   -1.1319 N   0  0  0  0  0  0  0  0  0  0  0  0
    1.7995   -0.3546   -2.3592 C   0  0  0  0  0  0  0  0  0  0  0  0
    0.7258   -0.8527   -2.6396 O   0  0  0  0  0  0  0  0  0  0  0  0
    2.8881   -0.1919   -3.3942 C   0  0  0  0  0  0  0  0  0  0  0  0
    3.3540   -1.2837   -4.1539 C   0  0  0  0  0  0  0  0  0  0  0  0
    4.2267   -1.0619   -5.2257 C   0  0  0  0  0  0  0  0  0  0  0  0
    4.6700    0.2260   -5.5285 C   0  0  0  0  0  0  0  0  0  0  0  0
    4.2325    1.3069   -4.7605 C   0  0  0  0  0  0  0  0  0  0  0  0
    3.3430    1.0966   -3.7034 C   0  0  0  0  0  0  0  0  0  0  0  0
    2.9865   -2.7043   -3.8639 C   0  0  0  0  0  0  0  0  0  0  0  0
    2.9514   -3.5798   -4.6938 O   0  0  0  0  0  0  0  0  0  0  0  0
    2.7652   -2.9262   -2.5555 O   0  0  0  0  0  0  0  0  0  0  0  0
   -0.4369   -0.6385   -0.7844 H   0  0  0  0  0  0  0  0  0  0  0  0
    3.0096    1.0975    1.1388 H   0  0  0  0  0  0  0  0  0  0  0  0
    1.7798    1.2591    3.2712 H   0  0  0  0  0  0  0  0  0  0  0  0
   -0.3119    0.8966    4.5893 H   0  0  0  0  0  0  0  0  0  0  0  0
   -2.6638    0.1080    4.6974 H   0  0  0  0  0  0  0  0  0  0  0  0
   -3.7630   -0.8373    2.6624 H   0  0  0  0  0  0  0  0  0  0  0  0
   -2.5150   -0.9942    0.5249 H   0  0  0  0  0  0  0  0  0  0  0  0
    3.0861    0.4834   -1.0326 H   0  0  0  0  0  0  0  0  0  0  0  0
    4.5579   -1.9233   -5.8082 H   0  0  0  0  0  0  0  0  0  0  0  0
    5.3561    0.3851   -6.3631 H   0  0  0  0  0  0  0  0  0  0  0  0
    4.5700    2.3196   -4.9927 H   0  0  0  0  0  0  0  0  0  0  0  0
    2.9675    1.9483   -3.1309 H   0  0  0  0  0  0  0  0  0  0  0  0
    2.4831   -3.8524   -2.4674 H   0  0  0  0  0  0  0  0  0  0  0  0
  1  2  2  0
  1 10  1  0
  1 23  1  0
  2  3  1  0
  2 11  1  0
  3  4  2  0
  3 24  1  0
  4  5  1  0
  4 25  1  0
  5  6  1  0
  5 10  2  0
  6  7  2  0
  6 26  1  0
  7  8  1  0
  7 27  1  0
  8  9  2  0
  8 28  1  0
  9 10  1  0
  9 29  1  0
 11 12  1  0
 11 30  1  0
 12 13  2  0
 12 14  1  0
 14 15  2  0
 14 19  1  0
 15 16  1  0
 15 20  1  0
 16 17  2  0
 16 31  1  0
 17 18  1  0
 17 32  1  0
 18 19  2  0
 18 33  1  0
 19 34  1  0
 20 21  2  0
 20 22  1  0
 22 35  1  0
M  END

