35
rmsd42.gzmat
C          0.00000        0.00000        0.00000
C          1.37720        0.00000        0.00000
C          2.10200        0.00000        1.23490
C          1.42660       -0.01050        2.42300
C          0.00350       -0.01880        2.45180
C         -0.71400       -0.03830        3.67770
C         -2.08560       -0.04570        3.67840
C         -2.80040       -0.03020        2.45450
C         -2.12980       -0.01070        1.25890
C         -0.70670       -0.00780        1.23180
N          2.16440       -0.04000       -1.17560
C          1.68130        0.20920       -2.44840
O          0.51820        0.45680       -2.68340
C          2.65840        0.05130       -3.57730
C          3.89820        0.68060       -3.68110
C          4.67460        0.51870       -4.83230
C          4.22450       -0.29510       -5.86860
C          2.99160       -0.93630       -5.76260
C          2.20800       -0.75650       -4.62520
C          4.46500        1.51610       -2.60500
O          4.59450        1.23860       -1.43680
O          4.91790        2.69370       -3.09100
H         -0.57630        0.00700       -0.92750
H          3.19100        0.01530        1.21310
H          1.96680       -0.01100        3.36940
H         -0.15570       -0.04740        4.61160
H         -2.64270       -0.06350        4.61200
H         -3.88850       -0.03400        2.48280
H         -2.66880        0.00410        0.31270
H          3.17800       -0.09040       -1.03840
H          5.63260        1.03560       -4.92020
H          4.83330       -0.42400       -6.76280
H          2.63430       -1.57100       -6.57360
H          1.22630       -1.23520       -4.55300
H          5.30380        3.28510       -2.39050
