35

C         -0.00220       -0.35170        0.08740
C          1.30410        0.11110        0.03640
C          1.92820        0.59820        1.22180
C          1.22770        0.60270        2.40660
C         -0.11120        0.13460        2.49230
C         -0.84650        0.13310        3.70820
C         -2.14480       -0.32950        3.74860
C         -2.76510       -0.81250        2.56820
C         -2.07890       -0.82440        1.37280
C         -0.73770       -0.35380        1.29830
N          1.97130        0.07570       -1.20070
C          3.22640        0.53230       -1.52460
O          4.00830        1.04910       -0.74970
C          3.60490        0.26760       -2.96370
C          4.08400        1.29380       -3.80230
C          4.59690        0.97560       -5.06540
C          4.60620       -0.34390       -5.51860
C          4.10700       -1.35990       -4.70130
C          3.61420       -1.05340       -3.43000
C          4.05440        2.74230       -3.43020
O          4.82600        3.56810       -3.85330
O          3.02410        3.04950       -2.62120
H         -0.48520       -0.72580       -0.82040
H          2.95040        0.96240        1.16370
H          1.71090        0.97730        3.31280
H         -0.36240        0.50680        4.61430
H         -2.70050       -0.32590        4.68910
H         -3.79440       -1.17680        2.61020
H         -2.55820       -1.19680        0.46350
H          1.41960       -0.26650       -1.97860
H          4.97730        1.78780       -5.68730
H          5.00290       -0.57830       -6.50880
H          4.11420       -2.39680       -5.04520
H          3.26350       -1.85490       -2.77510
H          3.11320        3.99000       -2.39170
