35

C         -0.07570       -0.01390        0.02900
C          1.29600        0.18630        0.00040
C          2.00570        0.38550        1.22360
C          1.34720        0.37350        2.42860
C         -0.05850        0.16620        2.49470
C         -0.77200        0.14750        3.72250
C         -2.13650       -0.05460        3.74370
C         -2.84540       -0.24670        2.53120
C         -2.17980       -0.23340        1.32360
C         -0.77260       -0.02810        1.26660
N          2.07400        0.20970       -1.16750
C          1.64940        0.14530       -2.45720
O          0.47950       -0.00080       -2.78530
C          2.71340        0.19390       -3.55470
C          3.96880        0.86280       -3.58610
C          4.72510        0.85360       -4.77560
C          4.29710        0.16990       -5.90850
C          3.06980       -0.49290       -5.88070
C          2.29220       -0.45690       -4.72700
C          4.60240        1.58550       -2.44150
O          4.52900        1.28990       -1.26300
O          5.35770        2.62090       -2.83590
H         -0.61760       -0.15800       -0.90190
H          3.08450        0.55550        1.18470
H          1.90380        0.52770        3.35670
H         -0.21920        0.29660        4.65400
H         -2.67520       -0.06710        4.69410
H         -3.92620       -0.40580        2.55740
H         -2.72450       -0.38110        0.38770
H          3.07320        0.37090       -1.02630
H          5.67200        1.39190       -4.79440
H          4.91550        0.16480       -6.80870
H          2.70890       -1.02810       -6.76200
H          1.30900       -0.92650       -4.70490
H          5.77130        2.98480       -2.03390
