rmsd227.gzmat
 OpenBabel08211713383D

 35 37  0  0  0  0  0  0  0  0999 V2000
    0.0000    0.0000    0.0000 C   0  0  0  0  0  0  0  0  0  0  0  0
    1.3772    0.0000    0.0000 C   0  0  0  0  0  0  0  0  0  0  0  0
    2.1023    0.0000    1.2340 C   0  0  0  0  0  0  0  0  0  0  0  0
    1.4268    0.0025    2.4222 C   0  0  0  0  0  0  0  0  0  0  0  0
    0.0037   -0.0007    2.4513 C   0  0  0  0  0  0  0  0  0  0  0  0
   -0.7141   -0.0047    3.6773 C   0  0  0  0  0  0  0  0  0  0  0  0
   -2.0855   -0.0203    3.6778 C   0  0  0  0  0  0  0  0  0  0  0  0
   -2.8001   -0.0321    2.4538 C   0  0  0  0  0  0  0  0  0  0  0  0
   -2.1295   -0.0238    1.2581 C   0  0  0  0  0  0  0  0  0  0  0  0
   -0.7068   -0.0071    1.2315 C   0  0  0  0  0  0  0  0  0  0  0  0
    2.1615    0.0323   -1.1783 N   0  0  0  0  0  0  0  0  0  0  0  0
    1.6834   -0.2862   -2.4374 C   0  0  0  0  0  0  0  0  0  0  0  0
    0.5251   -0.5660   -2.6583 O   0  0  0  0  0  0  0  0  0  0  0  0
    2.6582   -0.1733   -3.5730 C   0  0  0  0  0  0  0  0  0  0  0  0
    3.9028   -0.7981   -3.6437 C   0  0  0  0  0  0  0  0  0  0  0  0
    4.6747   -0.6978   -4.8049 C   0  0  0  0  0  0  0  0  0  0  0  0
    4.2168    0.0539   -5.8839 C   0  0  0  0  0  0  0  0  0  0  0  0
    2.9817    0.6950   -5.8096 C   0  0  0  0  0  0  0  0  0  0  0  0
    2.2010    0.5729   -4.6625 C   0  0  0  0  0  0  0  0  0  0  0  0
    4.4818   -1.5586   -2.5192 C   0  0  0  0  0  0  0  0  0  0  0  0
    4.6270   -1.1979   -1.3759 O   0  0  0  0  0  0  0  0  0  0  0  0
    4.9279   -2.7679   -2.9261 O   0  0  0  0  0  0  0  0  0  0  0  0
   -0.5756    0.0013   -0.9275 H   0  0  0  0  0  0  0  0  0  0  0  0
    3.1915   -0.0108    1.2122 H   0  0  0  0  0  0  0  0  0  0  0  0
    1.9683    0.0002    3.3681 H   0  0  0  0  0  0  0  0  0  0  0  0
   -0.1551    0.0039    4.6111 H   0  0  0  0  0  0  0  0  0  0  0  0
   -2.6435   -0.0253    4.6112 H   0  0  0  0  0  0  0  0  0  0  0  0
   -3.8881   -0.0492    2.4821 H   0  0  0  0  0  0  0  0  0  0  0  0
   -2.6688   -0.0333    0.3119 H   0  0  0  0  0  0  0  0  0  0  0  0
    3.1734    0.1153   -1.0447 H   0  0  0  0  0  0  0  0  0  0  0  0
    5.6358   -1.2131   -4.8659 H   0  0  0  0  0  0  0  0  0  0  0  0
    4.8216    0.1350   -6.7863 H   0  0  0  0  0  0  0  0  0  0  0  0
    2.6207    1.2845   -6.6524 H   0  0  0  0  0  0  0  0  0  0  0  0
    1.2173    1.0498   -4.6144 H   0  0  0  0  0  0  0  0  0  0  0  0
    5.3266   -3.3071   -2.1914 H   0  0  0  0  0  0  0  0  0  0  0  0
  1  2  2  0  0  0  0
  1 10  1  0  0  0  0
  2  3  1  0  0  0  0
  3  4  2  0  0  0  0
  4  5  1  0  0  0  0
  4 25  1  0  0  0  0
  5  6  2  0  0  0  0
  6  7  1  0  0  0  0
  6 26  1  0  0  0  0
  7 27  1  0  0  0  0
  8 28  1  0  0  0  0
  8  7  2  0  0  0  0
  9  8  1  0  0  0  0
 10  9  2  0  0  0  0
 10  5  1  0  0  0  0
 11 30  1  0  0  0  0
 11  2  1  0  0  0  0
 12 11  1  0  0  0  0
 13 12  2  0  0  0  0
 14 12  1  0  0  0  0
 15 14  1  0  0  0  0
 15 20  1  0  0  0  0
 16 15  2  0  0  0  0
 17 18  2  0  0  0  0
 17 16  1  0  0  0  0
 18 19  1  0  0  0  0
 19 34  1  0  0  0  0
 19 14  2  0  0  0  0
 20 21  2  0  0  0  0
 22 20  1  0  0  0  0
 22 35  1  0  0  0  0
 23  1  1  0  0  0  0
 24  3  1  0  0  0  0
 29  9  1  0  0  0  0
 31 16  1  0  0  0  0
 32 17  1  0  0  0  0
 33 18  1  0  0  0  0
M  END
$$$$
