rmsd42.gzmat
 OpenBabel08211713363D

 32 34  0  0  0  0  0  0  0  0999 V2000
    0.0000    0.0000    0.0000 C   0  0  0  0  0  0  0  0  0  0  0  0
    1.4207    0.0000    0.0000 C   0  0  0  0  0  0  0  0  0  0  0  0
    2.0608    0.0000    1.3131 C   0  0  0  0  0  0  0  0  0  0  0  0
    1.3283   -0.2161    2.4512 N   0  0  0  0  0  0  0  0  0  0  0  0
   -0.0137   -0.3128    2.3937 C   0  0  0  0  0  0  0  0  0  0  0  0
   -0.7149   -0.1494    1.2033 N   0  0  0  0  0  0  0  0  0  0  0  0
   -1.7329   -0.1598    1.1712 H   0  0  0  0  0  0  0  0  0  0  0  0
   -0.6934   -0.5477    3.5446 N   0  0  0  0  0  0  0  0  0  0  0  0
    3.3544    0.2456    1.5697 N   0  0  0  0  0  0  0  0  0  0  0  0
    2.0621    0.0164   -1.2561 C   0  0  0  0  0  0  0  0  0  0  0  0
    1.3276    0.1667   -2.4249 C   0  0  0  0  0  0  0  0  0  0  0  0
   -0.0673    0.2520   -2.3889 C   0  0  0  0  0  0  0  0  0  0  0  0
   -0.7407    0.1456   -1.1818 C   0  0  0  0  0  0  0  0  0  0  0  0
    3.8050   -0.2603   -1.3741 S   0  0  0  0  0  0  0  0  0  0  0  0
    4.3051    0.6581   -2.8045 C   0  0  0  0  0  0  0  0  0  0  0  0
    4.2184    2.0502   -2.8150 C   0  0  0  0  0  0  0  0  0  0  0  0
    4.6734    2.7536   -3.9274 C   0  0  0  0  0  0  0  0  0  0  0  0
    5.2181    2.0680   -5.0139 C   0  0  0  0  0  0  0  0  0  0  0  0
    5.3036    0.6770   -4.9924 C   0  0  0  0  0  0  0  0  0  0  0  0
    4.8405   -0.0364   -3.8874 C   0  0  0  0  0  0  0  0  0  0  0  0
   -0.1754   -0.6551    4.4110 H   0  0  0  0  0  0  0  0  0  0  0  0
   -1.6919   -0.6183    3.5885 H   0  0  0  0  0  0  0  0  0  0  0  0
    3.6882    0.2279    2.5305 H   0  0  0  0  0  0  0  0  0  0  0  0
    4.0444    0.4449    0.8555 H   0  0  0  0  0  0  0  0  0  0  0  0
    1.8229    0.2082   -3.4034 H   0  0  0  0  0  0  0  0  0  0  0  0
   -0.6289    0.3836   -3.3225 H   0  0  0  0  0  0  0  0  0  0  0  0
   -1.8316    0.1728   -1.1597 H   0  0  0  0  0  0  0  0  0  0  0  0
    3.8025    2.6014   -1.9710 H   0  0  0  0  0  0  0  0  0  0  0  0
    4.6077    3.8428   -3.9468 H   0  0  0  0  0  0  0  0  0  0  0  0
    5.5800    2.6244   -5.8826 H   0  0  0  0  0  0  0  0  0  0  0  0
    5.7338    0.1426   -5.8417 H   0  0  0  0  0  0  0  0  0  0  0  0
    4.9091   -1.1276   -3.8893 H   0  0  0  0  0  0  0  0  0  0  0  0
  1  2  1  0  0  0  0
  1  6  1  0  0  0  0
  2  3  1  0  0  0  0
  3  9  1  0  0  0  0
  3  4  2  0  0  0  0
  5  4  2  0  0  0  0
  5  8  1  0  0  0  0
  6  5  1  0  0  0  0
  7  6  1  0  0  0  0
  8 22  1  0  0  0  0
  8 21  1  0  0  0  0
  9 23  1  0  0  0  0
 10  2  2  0  0  0  0
 11 12  2  0  0  0  0
 11 10  1  0  0  0  0
 12 13  1  0  0  0  0
 13 27  1  0  0  0  0
 13  1  2  0  0  0  0
 14 10  1  0  0  0  0
 15 14  1  0  0  0  0
 16 15  1  0  0  0  0
 16 28  1  0  0  0  0
 17 16  2  0  0  0  0
 18 19  2  0  0  0  0
 18 17  1  0  0  0  0
 19 20  1  0  0  0  0
 20 15  2  0  0  0  0
 24  9  1  0  0  0  0
 25 11  1  0  0  0  0
 26 12  1  0  0  0  0
 29 17  1  0  0  0  0
 30 18  1  0  0  0  0
 31 19  1  0  0  0  0
 32 20  1  0  0  0  0
M  END
$$$$
