32
rmsd43.gzmat
C          0.00000        0.00000        0.00000
C          1.42100        0.00000        0.00000
C          2.06130        0.00000        1.31340
N          1.32290        0.16450        2.45670
C         -0.02000        0.24330        2.40140
N         -0.71770        0.12490        1.20440
H         -1.73610        0.14240        1.16990
N         -0.70610        0.42050        3.55910
N          3.36400       -0.19150        1.56910
C          2.06050       -0.01870       -1.25760
C          1.32340       -0.15890       -2.42630
C         -0.07230       -0.22510       -2.39140
C         -0.74300       -0.12320       -1.18260
S          3.80500        0.24500       -1.38440
C          4.30050       -0.68430       -2.80960
C          4.56060       -0.01090       -4.00240
C          5.02250       -0.72920       -5.10410
C          5.21670       -2.10670       -5.01030
C          4.95030       -2.77220       -3.81350
C          4.49020       -2.06210       -2.70660
H         -0.19260        0.49520        4.43110
H         -1.70610        0.47500        3.60050
H          3.69380       -0.17680        2.53140
H          4.06470       -0.35330        0.85590
H          1.81750       -0.20700       -3.40530
H         -0.63710       -0.33910       -3.32490
H         -1.83400       -0.13930       -1.16010
H          4.41710        1.06940       -4.09000
H          5.23500       -0.21100       -6.04140
H          5.58060       -2.66640       -5.87580
H          5.10660       -3.85010       -3.74200
H          4.29040       -2.59700       -1.77710
