32
rmsd47.gzmat
C          0.00000        0.00000        0.00000
C          1.42130        0.00000        0.00000
C          2.05750        0.00000        1.31250
N          1.33370        0.27400        2.44380
C         -0.00640        0.39560        2.38160
N         -0.71150        0.18200        1.20120
H         -1.72960        0.19400        1.16910
N         -0.68130        0.70310        3.51840
N          3.33780       -0.30550        1.57570
C          2.06390       -0.00110       -1.25730
C          1.32650       -0.18120       -2.42230
C         -0.06490       -0.28980       -2.38260
C         -0.74080       -0.16860       -1.17640
S          3.78910        0.33260       -1.34460
C          4.25820        0.08920       -3.03260
C          4.45650        1.21210       -3.83550
C          4.91130        1.04400       -5.14220
C          5.15700       -0.23560       -5.63820
C          4.94670       -1.35350       -4.83000
C          4.49780       -1.19530       -3.52070
H         -0.16080        0.84660        4.37750
H         -1.67970        0.77980        3.56160
H          3.67450       -0.27630        2.53520
H          4.01170       -0.56970        0.87150
H          1.81900       -0.23120       -3.40120
H         -0.62550       -0.44850       -3.31250
H         -1.83090       -0.20110       -1.15570
H          4.26840        2.22120       -3.45920
H          5.07870        1.91770       -5.77510
H          5.51930       -0.36380       -6.66200
H          5.14000       -2.35360       -5.22180
H          4.34620       -2.07820       -2.89700
