32
rmsd42.gzmat
C          0.00000        0.00000        0.00000
C          1.42070        0.00000        0.00000
C          2.06080        0.00000        1.31310
N          1.32830       -0.21610        2.45120
C         -0.01370       -0.31280        2.39370
N         -0.71490       -0.14940        1.20330
H         -1.73290       -0.15980        1.17120
N         -0.69340       -0.54770        3.54460
N          3.35440        0.24560        1.56970
C          2.06210        0.01640       -1.25610
C          1.32760        0.16670       -2.42490
C         -0.06730        0.25200       -2.38890
C         -0.74070        0.14560       -1.18180
S          3.80500       -0.26030       -1.37410
C          4.30510        0.65810       -2.80450
C          4.21840        2.05020       -2.81500
C          4.67340        2.75360       -3.92740
C          5.21810        2.06800       -5.01390
C          5.30360        0.67700       -4.99240
C          4.84050       -0.03640       -3.88740
H         -0.17540       -0.65510        4.41100
H         -1.69190       -0.61830        3.58850
H          3.68820        0.22790        2.53050
H          4.04440        0.44490        0.85550
H          1.82290        0.20820       -3.40340
H         -0.62890        0.38360       -3.32250
H         -1.83160        0.17280       -1.15970
H          3.80250        2.60140       -1.97100
H          4.60770        3.84280       -3.94680
H          5.58000        2.62440       -5.88260
H          5.73380        0.14260       -5.84170
H          4.90910       -1.12760       -3.88930
