rmsd2.gzmat
 OpenBabel08211713363D

 32 34  0  0  0  0  0  0  0  0999 V2000
    0.0000    0.0000    0.0000 C   0  0  0  0  0  0  0  0  0  0  0  0
    1.4211    0.0000    0.0000 C   0  0  0  0  0  0  0  0  0  0  0  0
    2.0603    0.0000    1.3130 C   0  0  0  0  0  0  0  0  0  0  0  0
    1.3300    0.2306    2.4499 N   0  0  0  0  0  0  0  0  0  0  0  0
   -0.0117    0.3299    2.3910 C   0  0  0  0  0  0  0  0  0  0  0  0
   -0.7138    0.1500    1.2033 N   0  0  0  0  0  0  0  0  0  0  0  0
   -1.7321    0.1533    1.1741 H   0  0  0  0  0  0  0  0  0  0  0  0
   -0.6928    0.5835    3.5372 N   0  0  0  0  0  0  0  0  0  0  0  0
    3.3516   -0.2568    1.5698 N   0  0  0  0  0  0  0  0  0  0  0  0
    2.0627   -0.0107   -1.2565 C   0  0  0  0  0  0  0  0  0  0  0  0
    1.3263   -0.1530   -2.4259 C   0  0  0  0  0  0  0  0  0  0  0  0
   -0.0676   -0.2379   -2.3905 C   0  0  0  0  0  0  0  0  0  0  0  0
   -0.7410   -0.1404   -1.1820 C   0  0  0  0  0  0  0  0  0  0  0  0
    3.8044    0.2604   -1.3701 S   0  0  0  0  0  0  0  0  0  0  0  0
    4.2874   -0.5130   -2.8888 C   0  0  0  0  0  0  0  0  0  0  0  0
    4.3403   -1.9038   -2.9818 C   0  0  0  0  0  0  0  0  0  0  0  0
    4.7821   -2.4917   -4.1646 C   0  0  0  0  0  0  0  0  0  0  0  0
    5.1749   -1.6925   -5.2390 C   0  0  0  0  0  0  0  0  0  0  0  0
    5.1189   -0.3034   -5.1358 C   0  0  0  0  0  0  0  0  0  0  0  0
    4.6698    0.2934   -3.9593 C   0  0  0  0  0  0  0  0  0  0  0  0
   -0.1765    0.7028    4.4027 H   0  0  0  0  0  0  0  0  0  0  0  0
   -1.6913    0.6619    3.5757 H   0  0  0  0  0  0  0  0  0  0  0  0
    3.6878   -0.2324    2.5295 H   0  0  0  0  0  0  0  0  0  0  0  0
    4.0362   -0.4778    0.8576 H   0  0  0  0  0  0  0  0  0  0  0  0
    1.8198   -0.1889   -3.4055 H   0  0  0  0  0  0  0  0  0  0  0  0
   -0.6295   -0.3608   -3.3248 H   0  0  0  0  0  0  0  0  0  0  0  0
   -1.8313   -0.1678   -1.1623 H   0  0  0  0  0  0  0  0  0  0  0  0
    4.0451   -2.5424   -2.1482 H   0  0  0  0  0  0  0  0  0  0  0  0
    4.8251   -3.5792   -4.2478 H   0  0  0  0  0  0  0  0  0  0  0  0
    5.5283   -2.1578   -6.1629 H   0  0  0  0  0  0  0  0  0  0  0  0
    5.4273    0.3208   -5.9764 H   0  0  0  0  0  0  0  0  0  0  0  0
    4.6290    1.3840   -3.8956 H   0  0  0  0  0  0  0  0  0  0  0  0
  1  2  1  0  0  0  0
  1  6  1  0  0  0  0
  2  3  1  0  0  0  0
  3  9  1  0  0  0  0
  3  4  2  0  0  0  0
  5  4  2  0  0  0  0
  5  8  1  0  0  0  0
  6  5  1  0  0  0  0
  7  6  1  0  0  0  0
  8 22  1  0  0  0  0
  8 21  1  0  0  0  0
  9 23  1  0  0  0  0
 10  2  2  0  0  0  0
 11 12  2  0  0  0  0
 11 10  1  0  0  0  0
 12 13  1  0  0  0  0
 13 27  1  0  0  0  0
 13  1  2  0  0  0  0
 14 10  1  0  0  0  0
 15 14  1  0  0  0  0
 16 15  1  0  0  0  0
 16 28  1  0  0  0  0
 17 16  2  0  0  0  0
 18 19  2  0  0  0  0
 18 17  1  0  0  0  0
 19 20  1  0  0  0  0
 20 32  1  0  0  0  0
 20 15  2  0  0  0  0
 24  9  1  0  0  0  0
 25 11  1  0  0  0  0
 26 12  1  0  0  0  0
 29 17  1  0  0  0  0
 30 18  1  0  0  0  0
 31 19  1  0  0  0  0
M  END
$$$$
