34

N         -0.04600       -0.02910       -0.07790
H          0.97640       -0.16430       -0.07140
C         -0.64240        0.15300       -1.33830
O          0.02430        0.29280       -2.33630
N         -2.01710        0.14280       -1.30580
H         -2.48220        0.27050       -2.20140
C         -2.87930       -0.06240       -0.19580
O         -4.07630       -0.06080       -0.36220
C         -2.15070       -0.24140        1.06420
C         -0.74060       -0.23020        1.06750
N         -0.06240       -0.43360        2.22450
C          1.29380        0.06020        2.47880
C          2.40270       -0.91300        2.07250
H          3.35020       -0.47120        2.41710
O          2.45630       -1.04840        0.65510
C          2.26730       -2.32010        2.68620
H          3.23560       -2.82900        2.53940
O          1.32690       -3.08490        1.94200
C          1.94270       -2.31860        4.18670
H          0.89370       -1.99620        4.31520
O          2.76560       -1.39680        4.86620
C          2.09720       -3.70900        4.80780
O          3.47660       -4.01710        4.95030
N         -2.70080       -0.38680        2.32930
O         -3.91150       -0.43690        2.46050
H         -0.73060       -0.45410        3.00230
H          1.38220        0.26260        3.55410
H          1.45570        1.01560        1.95110
H          2.12210       -1.94370        0.46200
H          0.46150       -2.65810        2.05520
H          3.56410       -1.89520        5.11100
H          1.66850       -3.69760        5.82150
H          1.55720       -4.45800        4.20530
H          3.78810       -4.45750        4.14980
