34
rmsd200.gzmat
N          0.00000        0.00000        0.00000
H          1.03500        0.00000        0.00000
C         -0.62350        0.00000       -1.28240
O          0.09170       -0.02000       -2.26080
N         -2.00160        0.01140       -1.30520
H         -2.46650        0.02830       -2.21750
C         -2.83230        0.00010       -0.12580
O         -4.01830        0.01690       -0.33160
C         -2.13120       -0.03970        1.13370
C         -0.72010       -0.04450        1.17890
N         -0.05150       -0.09600        2.36400
C          1.39930       -0.08080        2.50970
C          1.98040       -1.51500        2.53310
H          1.27860       -2.23790        3.01260
O          3.12060       -1.39130        3.35980
C          2.40960       -2.04180        1.14510
H          1.53500       -2.16670        0.46640
O          2.93890       -3.31750        1.43920
C          3.49030       -1.15000        0.48840
H          4.01180       -0.50810        1.24090
O          2.83180       -0.20890       -0.33490
C          4.50880       -1.94670       -0.33540
O          3.73260       -2.85520       -1.10370
N         -2.79490       -0.07210        2.37280
O         -3.98420       -0.03890        2.41510
H         -0.60800       -0.17010        3.22010
H          1.65580        0.41360        3.48500
H          1.89350        0.55170        1.73680
H          3.61310       -2.24520        3.36960
H          3.14400       -3.79050        0.59700
H          2.63090       -0.58180       -1.22940
H          5.08530       -1.28280       -1.00570
H          5.19820       -2.52400        0.30840
H          4.25910       -3.24120       -1.83190
