
     RDKit          3D

 34 34  0  0  0  0  0  0  0  0999 V2000
    0.0181   -0.1002    0.0220 N   0  0  0  0  0  0  0  0  0  0  0  0
    1.0512   -0.1453    0.0048 H   0  0  0  0  0  0  0  0  0  0  0  0
   -0.5529   -0.1530   -1.2563 C   0  0  0  0  0  0  0  0  0  0  0  0
    0.1391   -0.1490   -2.2507 O   0  0  0  0  0  0  0  0  0  0  0  0
   -1.9253   -0.2088   -1.2591 N   0  0  0  0  0  0  0  0  0  0  0  0
   -2.3686   -0.2458   -2.1731 H   0  0  0  0  0  0  0  0  0  0  0  0
   -2.8073   -0.2427   -0.1512 C   0  0  0  0  0  0  0  0  0  0  0  0
   -3.9992   -0.3095   -0.3398 O   0  0  0  0  0  0  0  0  0  0  0  0
   -2.1182   -0.1843    1.1475 C   0  0  0  0  0  0  0  0  0  0  0  0
   -0.6923   -0.1078    1.1847 C   0  0  0  0  0  0  0  0  0  0  0  0
   -0.0597   -0.0334    2.3546 N   0  0  0  0  0  0  0  0  0  0  0  0
    1.3764    0.0981    2.4993 C   0  0  0  0  0  0  0  0  0  0  0  0
    2.1108   -1.2421    2.3128 C   0  0  2  0  0  0  0  0  0  0  0  0
    1.6419   -1.7933    1.4797 H   0  0  0  0  0  0  0  0  0  0  0  0
    2.0824   -2.0119    3.5017 O   0  0  0  0  0  0  0  0  0  0  0  0
    3.5931   -1.0756    1.9727 C   0  0  2  0  0  0  0  0  0  0  0  0
    3.9796   -2.0976    1.7834 H   0  0  0  0  0  0  0  0  0  0  0  0
    4.2898   -0.4628    3.0344 O   0  0  0  0  0  0  0  0  0  0  0  0
    3.8188   -0.2164    0.7291 C   0  0  2  0  0  0  0  0  0  0  0  0
    3.7530    0.8454    1.0343 H   0  0  0  0  0  0  0  0  0  0  0  0
    2.8103   -0.5167   -0.2277 O   0  0  0  0  0  0  0  0  0  0  0  0
    5.1853   -0.4311    0.1018 C   0  0  0  0  0  0  0  0  0  0  0  0
    5.1940    0.3562   -1.0754 O   0  0  0  0  0  0  0  0  0  0  0  0
   -2.9144   -0.2065    2.2543 N   0  0  0  0  0  0  0  0  0  0  0  0
   -2.3736   -0.1557    3.3814 O   0  0  0  0  0  0  0  0  0  0  0  0
   -0.7543   -0.0380    3.1388 H   0  0  0  0  0  0  0  0  0  0  0  0
    1.5934    0.4811    3.5048 H   0  0  0  0  0  0  0  0  0  0  0  0
    1.7448    0.8506    1.7860 H   0  0  0  0  0  0  0  0  0  0  0  0
    1.1641   -2.2046    3.7327 H   0  0  0  0  0  0  0  0  0  0  0  0
    4.0721   -0.9691    3.8314 H   0  0  0  0  0  0  0  0  0  0  0  0
    3.1186   -0.1699   -1.0828 H   0  0  0  0  0  0  0  0  0  0  0  0
    5.9659   -0.1321    0.8243 H   0  0  0  0  0  0  0  0  0  0  0  0
    5.3121   -1.5067   -0.1281 H   0  0  0  0  0  0  0  0  0  0  0  0
    5.9646    0.1320   -1.6102 H   0  0  0  0  0  0  0  0  0  0  0  0
  1  2  1  0
  1  3  1  0
  1 10  1  0
  3  4  2  0
  3  5  1  0
  5  6  1  0
  5  7  1  0
  7  8  2  0
  7  9  1  0
  9 10  2  0
  9 24  1  0
 10 11  1  0
 11 12  1  0
 11 26  1  0
 12 13  1  0
 12 27  1  0
 12 28  1  0
 13 14  1  6
 13 15  1  0
 13 16  1  0
 15 29  1  0
 16 17  1  6
 16 18  1  0
 16 19  1  0
 18 30  1  0
 19 20  1  1
 19 21  1  0
 19 22  1  0
 21 31  1  0
 22 23  1  0
 22 32  1  0
 22 33  1  0
 23 34  1  0
 24 25  2  0
M  END

