
     RDKit          3D

 34 34  0  0  0  0  0  0  0  0999 V2000
   -0.0614    0.2541   -0.0537 N   0  0  0  0  0  0  0  0  0  0  0  0
    0.9170    0.5520   -0.0571 H   0  0  0  0  0  0  0  0  0  0  0  0
   -0.6812    0.2058   -1.3134 C   0  0  0  0  0  0  0  0  0  0  0  0
   -0.0422    0.3322   -2.3327 O   0  0  0  0  0  0  0  0  0  0  0  0
   -2.0400    0.0192   -1.2529 N   0  0  0  0  0  0  0  0  0  0  0  0
   -2.5232   -0.0234   -2.1466 H   0  0  0  0  0  0  0  0  0  0  0  0
   -2.8763   -0.0593   -0.1040 C   0  0  0  0  0  0  0  0  0  0  0  0
   -4.0696   -0.1877   -0.2502 O   0  0  0  0  0  0  0  0  0  0  0  0
   -2.1287    0.0151    1.1528 C   0  0  0  0  0  0  0  0  0  0  0  0
   -0.7242    0.1795    1.1320 C   0  0  0  0  0  0  0  0  0  0  0  0
   -0.0308    0.2630    2.2799 N   0  0  0  0  0  0  0  0  0  0  0  0
    1.3970    0.0159    2.4261 C   0  0  0  0  0  0  0  0  0  0  0  0
    2.2396    1.2835    2.2882 C   0  0  2  0  0  0  0  0  0  0  0  0
    1.8655    2.0394    2.9987 H   0  0  0  0  0  0  0  0  0  0  0  0
    2.1253    1.8068    0.9510 O   0  0  0  0  0  0  0  0  0  0  0  0
    3.7409    1.1205    2.5723 C   0  0  2  0  0  0  0  0  0  0  0  0
    3.8669    0.8320    3.6292 H   0  0  0  0  0  0  0  0  0  0  0  0
    4.3646    2.3756    2.4048 O   0  0  0  0  0  0  0  0  0  0  0  0
    4.4317    0.0516    1.7183 C   0  0  2  0  0  0  0  0  0  0  0  0
    4.2038    0.2448    0.6490 H   0  0  0  0  0  0  0  0  0  0  0  0
    3.9473   -1.2177    2.1084 O   0  0  0  0  0  0  0  0  0  0  0  0
    5.9467    0.0849    1.8874 C   0  0  0  0  0  0  0  0  0  0  0  0
    6.4284   -1.0640    1.2081 O   0  0  0  0  0  0  0  0  0  0  0  0
   -2.6471   -0.0947    2.4336 N   0  0  0  0  0  0  0  0  0  0  0  0
   -3.8499   -0.2223    2.5907 O   0  0  0  0  0  0  0  0  0  0  0  0
   -0.6565    0.1567    3.0828 H   0  0  0  0  0  0  0  0  0  0  0  0
    1.7368   -0.7344    1.6987 H   0  0  0  0  0  0  0  0  0  0  0  0
    1.5665   -0.4272    3.4173 H   0  0  0  0  0  0  0  0  0  0  0  0
    1.5321    2.5687    0.9576 H   0  0  0  0  0  0  0  0  0  0  0  0
    4.0901    2.6900    1.5292 H   0  0  0  0  0  0  0  0  0  0  0  0
    4.5948   -1.8546    1.7642 H   0  0  0  0  0  0  0  0  0  0  0  0
    6.3560    1.0216    1.4738 H   0  0  0  0  0  0  0  0  0  0  0  0
    6.1908    0.0490    2.9670 H   0  0  0  0  0  0  0  0  0  0  0  0
    7.3565   -1.2022    1.4303 H   0  0  0  0  0  0  0  0  0  0  0  0
  1  2  1  0
  1  3  1  0
  1 10  1  0
  3  4  2  0
  3  5  1  0
  5  6  1  0
  5  7  1  0
  7  8  2  0
  7  9  1  0
  9 10  2  0
  9 24  1  0
 10 11  1  0
 11 12  1  0
 11 26  1  0
 12 13  1  0
 12 27  1  0
 12 28  1  0
 13 14  1  1
 13 15  1  0
 13 16  1  0
 15 29  1  0
 16 17  1  1
 16 18  1  0
 16 19  1  0
 18 30  1  0
 19 20  1  6
 19 21  1  0
 19 22  1  0
 21 31  1  0
 22 23  1  0
 22 32  1  0
 22 33  1  0
 23 34  1  0
 24 25  2  0
M  END

