34

N          0.08600        0.04750        0.08760
H          1.07720        0.31680        0.15200
C         -0.38280       -0.23060       -1.20500
O          0.37590       -0.32670       -2.14330
N         -1.74750       -0.36840       -1.28460
H         -2.12070       -0.57120       -2.20840
C         -2.71700       -0.21130       -0.25690
O         -3.88940       -0.34240       -0.52480
C         -2.12150        0.08580        1.04690
C         -0.71620        0.21600        1.16900
N         -0.17310        0.51050        2.36370
C          1.20040        0.27670        2.78080
C          2.18850        1.35140        2.33200
H          1.72240        2.34230        2.48550
O          2.46100        1.15210        0.95030
C          3.51480        1.34670        3.09460
H          3.31530        1.61070        4.15070
O          4.29490        2.34820        2.46740
C          4.20530       -0.04200        3.08900
H          3.95220       -0.56860        2.15590
O          3.69820       -0.83020        4.14930
C          5.72010        0.08420        3.14860
O          6.02720        0.99310        4.20540
N         -2.79220        0.23040        2.24910
O         -4.01030        0.15740        2.27870
H         -0.90790        0.57120        3.07400
H          1.55090       -0.70720        2.42650
H          1.20240        0.22570        3.87660
H          3.15010        1.78630        0.69700
H          5.09440        2.45300        3.00690
H          4.03180       -0.44280        4.97230
H          6.14540       -0.91680        3.33770
H          6.10500        0.45270        2.18100
H          6.97430        0.96470        4.38930
