rmsd147.gzmat
 OpenBabel08211713423D

 34 34  0  0  1  0  0  0  0  0999 V2000
    0.0000    0.0000    0.0000 N   0  0  0  0  0  0  0  0  0  0  0  0
    1.0289    0.0000    0.0000 H   0  0  0  0  0  0  0  0  0  0  0  0
   -0.6334    0.0000   -1.2743 C   0  0  0  0  0  0  0  0  0  0  0  0
    0.0646    0.0226   -2.2695 O   0  0  0  0  0  0  0  0  0  0  0  0
   -2.0097   -0.0154   -1.2827 N   0  0  0  0  0  0  0  0  0  0  0  0
   -2.4835    0.0570   -2.1891 H   0  0  0  0  0  0  0  0  0  0  0  0
   -2.8371   -0.1426   -0.1045 C   0  0  0  0  0  0  0  0  0  0  0  0
   -4.0208   -0.1201   -0.3100 O   0  0  0  0  0  0  0  0  0  0  0  0
   -2.1185   -0.3014    1.1453 C   0  0  0  0  0  0  0  0  0  0  0  0
   -0.6989   -0.2354    1.1717 C   0  0  0  0  0  0  0  0  0  0  0  0
   -0.0106   -0.4173    2.3248 N   0  0  0  0  0  0  0  0  0  0  0  0
    1.4482   -0.3861    2.4305 C   0  0  0  0  0  0  0  0  0  0  0  0
    2.1046   -1.5983    1.7262 C   0  0  2  0  0  0  0  0  0  0  0  0
    1.4191   -2.0807    0.9946 H   0  0  0  0  0  0  0  0  0  0  0  0
    2.4787   -2.5525    2.6975 O   0  0  0  0  0  0  0  0  0  0  0  0
    3.4527   -1.1954    1.0803 C   0  0  2  0  0  0  0  0  0  0  0  0
    4.2267   -1.0292    1.8721 H   0  0  0  0  0  0  0  0  0  0  0  0
    3.3316    0.0699    0.4763 O   0  0  0  0  0  0  0  0  0  0  0  0
    3.9423   -2.2478    0.0680 C   0  0  2  0  0  0  0  0  0  0  0  0
    4.1273   -3.2229    0.5846 H   0  0  0  0  0  0  0  0  0  0  0  0
    5.2259   -1.8875   -0.3847 O   0  0  0  0  0  0  0  0  0  0  0  0
    3.0356   -2.4579   -1.1667 C   0  0  0  0  0  0  0  0  0  0  0  0
    2.0413   -1.4517   -1.1528 O   0  0  0  0  0  0  0  0  0  0  0  0
   -2.9410   -0.5267    2.2427 N   0  0  0  0  0  0  0  0  0  0  0  0
   -2.4287   -0.6853    3.3224 O   0  0  0  0  0  0  0  0  0  0  0  0
   -0.5644   -0.5585    3.1856 H   0  0  0  0  0  0  0  0  0  0  0  0
    1.7287   -0.3949    3.5128 H   0  0  0  0  0  0  0  0  0  0  0  0
    1.8531    0.5805    2.0331 H   0  0  0  0  0  0  0  0  0  0  0  0
    1.6877   -2.9846    3.0806 H   0  0  0  0  0  0  0  0  0  0  0  0
    2.9726   -0.0187   -0.4415 H   0  0  0  0  0  0  0  0  0  0  0  0
    5.2708   -0.9262   -0.5880 H   0  0  0  0  0  0  0  0  0  0  0  0
    3.6269   -2.3974   -2.0996 H   0  0  0  0  0  0  0  0  0  0  0  0
    2.5080   -3.4288   -1.1250 H   0  0  0  0  0  0  0  0  0  0  0  0
    1.6532   -1.2588   -2.0357 H   0  0  0  0  0  0  0  0  0  0  0  0
  1  2  1  0  0  0  0
  1 10  1  0  0  0  0
  3  1  1  0  0  0  0
  4  3  2  0  0  0  0
  5  3  1  0  0  0  0
  5  7  1  0  0  0  0
  6  5  1  0  0  0  0
  7  9  1  0  0  0  0
  8  7  2  0  0  0  0
  9 10  2  0  0  0  0
  9 24  1  0  0  0  0
 10 11  1  0  0  0  0
 11 12  1  0  0  0  0
 11 26  1  0  0  0  0
 12 27  1  0  0  0  0
 13 14  1  6  0  0  0
 13 12  1  0  0  0  0
 13 15  1  0  0  0  0
 15 29  1  0  0  0  0
 16 13  1  0  0  0  0
 16 17  1  1  0  0  0
 18 16  1  0  0  0  0
 19 20  1  1  0  0  0
 19 16  1  0  0  0  0
 21 19  1  0  0  0  0
 22 23  1  0  0  0  0
 22 33  1  0  0  0  0
 22 19  1  0  0  0  0
 24 25  2  0  0  0  0
 28 12  1  0  0  0  0
 30 18  1  0  0  0  0
 31 21  1  0  0  0  0
 32 22  1  0  0  0  0
 34 23  1  0  0  0  0
M  END
$$$$
