rmsd27.gzmat
 OpenBabel08211713423D

 34 34  0  0  1  0  0  0  0  0999 V2000
    0.0000    0.0000    0.0000 N   0  0  0  0  0  0  0  0  0  0  0  0
    1.0325    0.0000    0.0000 H   0  0  0  0  0  0  0  0  0  0  0  0
   -0.6365    0.0000   -1.2788 C   0  0  0  0  0  0  0  0  0  0  0  0
    0.0511   -0.1177   -2.2665 O   0  0  0  0  0  0  0  0  0  0  0  0
   -2.0105    0.1437   -1.2895 N   0  0  0  0  0  0  0  0  0  0  0  0
   -2.4821    0.1495   -2.1993 H   0  0  0  0  0  0  0  0  0  0  0  0
   -2.8236    0.2960   -0.1123 C   0  0  0  0  0  0  0  0  0  0  0  0
   -4.0042    0.4301   -0.3084 O   0  0  0  0  0  0  0  0  0  0  0  0
   -2.1125    0.2620    1.1433 C   0  0  0  0  0  0  0  0  0  0  0  0
   -0.7085    0.1363    1.1764 C   0  0  0  0  0  0  0  0  0  0  0  0
   -0.0309    0.1858    2.3648 N   0  0  0  0  0  0  0  0  0  0  0  0
    1.3804   -0.1623    2.5244 C   0  0  0  0  0  0  0  0  0  0  0  0
    2.2927    0.9569    1.9670 C   0  0  2  0  0  0  0  0  0  0  0  0
    1.7154    1.8856    1.7347 H   0  0  0  0  0  0  0  0  0  0  0  0
    2.7448    0.5547    0.6920 O   0  0  0  0  0  0  0  0  0  0  0  0
    3.5132    1.2659    2.8535 C   0  0  2  0  0  0  0  0  0  0  0  0
    4.3729    1.5862    2.2049 H   0  0  0  0  0  0  0  0  0  0  0  0
    3.9965    0.0876    3.4451 O   0  0  0  0  0  0  0  0  0  0  0  0
    3.2419    2.3445    3.9209 C   0  0  2  0  0  0  0  0  0  0  0  0
    3.0084    3.3283    3.4443 H   0  0  0  0  0  0  0  0  0  0  0  0
    4.4255    2.6022    4.6400 O   0  0  0  0  0  0  0  0  0  0  0  0
    2.1480    1.9746    4.9373 C   0  0  0  0  0  0  0  0  0  0  0  0
    2.4345    0.7202    5.5320 O   0  0  0  0  0  0  0  0  0  0  0  0
   -2.7641    0.3392    2.3870 N   0  0  0  0  0  0  0  0  0  0  0  0
   -3.9483    0.4536    2.4340 O   0  0  0  0  0  0  0  0  0  0  0  0
   -0.5984    0.2286    3.2168 H   0  0  0  0  0  0  0  0  0  0  0  0
    1.6226   -1.1311    2.0227 H   0  0  0  0  0  0  0  0  0  0  0  0
    1.5716   -0.3429    3.6111 H   0  0  0  0  0  0  0  0  0  0  0  0
    3.4551   -0.1235    0.7556 H   0  0  0  0  0  0  0  0  0  0  0  0
    3.4927   -0.1037    4.2767 H   0  0  0  0  0  0  0  0  0  0  0  0
    4.9818    1.7917    4.7005 H   0  0  0  0  0  0  0  0  0  0  0  0
    2.0647    2.7497    5.7211 H   0  0  0  0  0  0  0  0  0  0  0  0
    1.1592    1.8287    4.4645 H   0  0  0  0  0  0  0  0  0  0  0  0
    3.0597    0.8329    6.2808 H   0  0  0  0  0  0  0  0  0  0  0  0
  1 10  1  0  0  0  0
  2  1  1  0  0  0  0
  3  1  1  0  0  0  0
  4  3  2  0  0  0  0
  5  3  1  0  0  0  0
  5  7  1  0  0  0  0
  6  5  1  0  0  0  0
  7  9  1  0  0  0  0
  8  7  2  0  0  0  0
  9 10  2  0  0  0  0
  9 24  1  0  0  0  0
 10 11  1  0  0  0  0
 11 12  1  0  0  0  0
 11 26  1  0  0  0  0
 12 28  1  0  0  0  0
 13 14  1  6  0  0  0
 13 12  1  0  0  0  0
 13 16  1  0  0  0  0
 15 29  1  0  0  0  0
 15 13  1  0  0  0  0
 16 17  1  6  0  0  0
 16 18  1  0  0  0  0
 16 19  1  0  0  0  0
 18 30  1  0  0  0  0
 19 20  1  6  0  0  0
 19 21  1  0  0  0  0
 19 22  1  0  0  0  0
 21 31  1  0  0  0  0
 22 23  1  0  0  0  0
 22 32  1  0  0  0  0
 23 34  1  0  0  0  0
 24 25  2  0  0  0  0
 27 12  1  0  0  0  0
 33 22  1  0  0  0  0
M  END
$$$$
