34
rmsd86.gzmat
N          0.00000        0.00000        0.00000
H          1.02890        0.00000        0.00000
C         -0.63310        0.00000       -1.28110
O          0.06630        0.01670       -2.26790
N         -2.01310       -0.02490       -1.29350
H         -2.48120       -0.01130       -2.20510
C         -2.83920       -0.07700       -0.11500
O         -4.02620       -0.10110       -0.31470
C         -2.12990       -0.09700        1.14080
C         -0.72010       -0.04650        1.17890
N         -0.05270       -0.06380        2.36840
C          1.39720        0.03820        2.50300
C          2.07610       -1.31890        2.21510
H          1.65320       -1.82400        1.31830
O          1.91720       -2.17010        3.33450
C          3.60660       -1.16520        2.10330
H          4.08390       -2.17010        2.09150
O          4.09420       -0.45520        3.22380
C          4.02660       -0.28330        0.90410
H          4.09450        0.78710        1.22060
O          2.99640       -0.29770       -0.05650
C          5.34230       -0.76110        0.27210
O          5.10110       -1.96530       -0.42370
N         -2.78340       -0.17200        2.38370
O         -3.97210       -0.21350        2.43430
H         -0.61180       -0.07600        3.22450
H          1.64350        0.36290        3.54420
H          1.81230        0.83510        1.83980
H          0.97170       -2.38930        3.47010
H          3.83810       -0.92460        4.05110
H          3.19050       -0.95700       -0.76940
H          5.67850       -0.07490       -0.53240
H          6.14730       -0.87800        1.01640
H          5.07130       -2.72980        0.18640
