34
rmsd7.gzmat
N          0.00000        0.00000        0.00000
H          1.03060        0.00000        0.00000
C         -0.63280        0.00000       -1.27930
O          0.06630        0.05000       -2.26630
N         -2.01090       -0.07000       -1.29350
H         -2.48000       -0.05500       -2.20390
C         -2.83310       -0.18470       -0.11580
O         -4.01820       -0.25210       -0.31720
C         -2.12290       -0.20420        1.13920
C         -0.71870       -0.07280        1.18070
N         -0.05560        0.01510        2.36830
C          1.39520        0.11840        2.49100
C          2.10100       -1.22870        2.21360
H          1.41060       -1.98200        1.76840
O          2.52920       -1.67690        3.47900
C          3.34130       -1.02130        1.30870
H          3.91600       -0.10980        1.59520
O          2.87150       -0.70010        0.01830
C          4.25430       -2.25890        1.26590
H          4.67360       -2.41810        0.24250
O          3.42450       -3.36510        1.56900
C          5.38640       -2.17190        2.30350
O          6.08930       -3.39060        2.11970
N         -2.77270       -0.35630        2.37730
O         -3.95810       -0.45850        2.41980
H         -0.58910       -0.15730        3.22500
H          1.63580        0.44040        3.53830
H          1.78390        0.92700        1.82770
H          2.80550       -2.62370        3.40720
H          2.67210       -1.50590       -0.51230
H          3.97390       -4.18130        1.64720
H          6.06240       -1.32110        2.11160
H          5.00050       -2.12390        3.33840
H          6.84900       -3.44790        2.73290
