
     RDKit          3D

 34 34  0  0  0  0  0  0  0  0999 V2000
    0.0438   -0.0859    0.0365 N   0  0  0  0  0  0  0  0  0  0  0  0
    1.0758   -0.0945    0.0282 H   0  0  0  0  0  0  0  0  0  0  0  0
   -0.5225   -0.2047   -1.2441 C   0  0  0  0  0  0  0  0  0  0  0  0
    0.1751   -0.3072   -2.2283 O   0  0  0  0  0  0  0  0  0  0  0  0
   -1.8948   -0.1969   -1.2522 N   0  0  0  0  0  0  0  0  0  0  0  0
   -2.3352   -0.2749   -2.1655 H   0  0  0  0  0  0  0  0  0  0  0  0
   -2.7891   -0.1188   -0.1487 C   0  0  0  0  0  0  0  0  0  0  0  0
   -3.9812   -0.1324   -0.3517 O   0  0  0  0  0  0  0  0  0  0  0  0
   -2.0984   -0.0365    1.1385 C   0  0  0  0  0  0  0  0  0  0  0  0
   -0.6825   -0.0282    1.1848 C   0  0  0  0  0  0  0  0  0  0  0  0
   -0.0512    0.0347    2.3683 N   0  0  0  0  0  0  0  0  0  0  0  0
    1.3869    0.0731    2.5395 C   0  0  0  0  0  0  0  0  0  0  0  0
    2.0341   -1.3050    2.3144 C   0  0  2  0  0  0  0  0  0  0  0  0
    1.5612   -1.7745    1.4351 H   0  0  0  0  0  0  0  0  0  0  0  0
    1.8921   -2.1327    3.4556 O   0  0  0  0  0  0  0  0  0  0  0  0
    3.5360   -1.2385    2.0400 C   0  0  2  0  0  0  0  0  0  0  0  0
    3.8376   -2.2726    1.7643 H   0  0  0  0  0  0  0  0  0  0  0  0
    4.2428   -0.8002    3.1769 O   0  0  0  0  0  0  0  0  0  0  0  0
    3.8917   -0.2821    0.8927 C   0  0  2  0  0  0  0  0  0  0  0  0
    3.9166    0.7336    1.3197 H   0  0  0  0  0  0  0  0  0  0  0  0
    2.9082   -0.3079   -0.1310 O   0  0  0  0  0  0  0  0  0  0  0  0
    5.2570   -0.5910    0.2790 C   0  0  0  0  0  0  0  0  0  0  0  0
    5.1578   -1.7195   -0.5765 O   0  0  0  0  0  0  0  0  0  0  0  0
   -2.6833    0.0357    2.3913 N   0  0  0  0  0  0  0  0  0  0  0  0
   -3.8995    0.0345    2.4947 O   0  0  0  0  0  0  0  0  0  0  0  0
   -0.7103    0.1149    3.1456 H   0  0  0  0  0  0  0  0  0  0  0  0
    1.6110    0.4051    3.5615 H   0  0  0  0  0  0  0  0  0  0  0  0
    1.8146    0.8261    1.8607 H   0  0  0  0  0  0  0  0  0  0  0  0
    0.9517   -2.2680    3.6319 H   0  0  0  0  0  0  0  0  0  0  0  0
    3.9305   -1.3392    3.9196 H   0  0  0  0  0  0  0  0  0  0  0  0
    3.2065   -0.9561   -0.7946 H   0  0  0  0  0  0  0  0  0  0  0  0
    5.5718    0.2519   -0.3543 H   0  0  0  0  0  0  0  0  0  0  0  0
    6.0032   -0.7249    1.0803 H   0  0  0  0  0  0  0  0  0  0  0  0
    5.2171   -2.5249   -0.0466 H   0  0  0  0  0  0  0  0  0  0  0  0
  1  2  1  0
  1  3  1  0
  1 10  1  0
  3  4  2  0
  3  5  1  0
  5  6  1  0
  5  7  1  0
  7  8  2  0
  7  9  1  0
  9 10  2  0
  9 24  1  0
 10 11  1  0
 11 12  1  0
 11 26  1  0
 12 13  1  0
 12 27  1  0
 12 28  1  0
 13 14  1  6
 13 15  1  0
 13 16  1  0
 15 29  1  0
 16 17  1  6
 16 18  1  0
 16 19  1  0
 18 30  1  0
 19 20  1  1
 19 21  1  0
 19 22  1  0
 21 31  1  0
 22 23  1  0
 22 32  1  0
 22 33  1  0
 23 34  1  0
 24 25  2  0
M  END

