rmsd86.gzmat
 OpenBabel08211713423D

 34 34  0  0  1  0  0  0  0  0999 V2000
    0.0000    0.0000    0.0000 N   0  0  0  0  0  0  0  0  0  0  0  0
    1.0289    0.0000    0.0000 H   0  0  0  0  0  0  0  0  0  0  0  0
   -0.6331    0.0000   -1.2811 C   0  0  0  0  0  0  0  0  0  0  0  0
    0.0663    0.0167   -2.2679 O   0  0  0  0  0  0  0  0  0  0  0  0
   -2.0131   -0.0249   -1.2935 N   0  0  0  0  0  0  0  0  0  0  0  0
   -2.4812   -0.0113   -2.2051 H   0  0  0  0  0  0  0  0  0  0  0  0
   -2.8392   -0.0770   -0.1150 C   0  0  0  0  0  0  0  0  0  0  0  0
   -4.0262   -0.1011   -0.3147 O   0  0  0  0  0  0  0  0  0  0  0  0
   -2.1299   -0.0970    1.1408 C   0  0  0  0  0  0  0  0  0  0  0  0
   -0.7201   -0.0465    1.1789 C   0  0  0  0  0  0  0  0  0  0  0  0
   -0.0527   -0.0638    2.3684 N   0  0  0  0  0  0  0  0  0  0  0  0
    1.3972    0.0382    2.5030 C   0  0  0  0  0  0  0  0  0  0  0  0
    2.0761   -1.3189    2.2151 C   0  0  2  0  0  0  0  0  0  0  0  0
    1.6532   -1.8240    1.3183 H   0  0  0  0  0  0  0  0  0  0  0  0
    1.9172   -2.1701    3.3345 O   0  0  0  0  0  0  0  0  0  0  0  0
    3.6066   -1.1652    2.1033 C   0  0  2  0  0  0  0  0  0  0  0  0
    4.0839   -2.1701    2.0915 H   0  0  0  0  0  0  0  0  0  0  0  0
    4.0942   -0.4552    3.2238 O   0  0  0  0  0  0  0  0  0  0  0  0
    4.0266   -0.2833    0.9041 C   0  0  2  0  0  0  0  0  0  0  0  0
    4.0945    0.7871    1.2206 H   0  0  0  0  0  0  0  0  0  0  0  0
    2.9964   -0.2977   -0.0565 O   0  0  0  0  0  0  0  0  0  0  0  0
    5.3423   -0.7611    0.2721 C   0  0  0  0  0  0  0  0  0  0  0  0
    5.1011   -1.9653   -0.4237 O   0  0  0  0  0  0  0  0  0  0  0  0
   -2.7834   -0.1720    2.3837 N   0  0  0  0  0  0  0  0  0  0  0  0
   -3.9721   -0.2135    2.4343 O   0  0  0  0  0  0  0  0  0  0  0  0
   -0.6118   -0.0760    3.2245 H   0  0  0  0  0  0  0  0  0  0  0  0
    1.6435    0.3629    3.5442 H   0  0  0  0  0  0  0  0  0  0  0  0
    1.8123    0.8351    1.8398 H   0  0  0  0  0  0  0  0  0  0  0  0
    0.9717   -2.3893    3.4701 H   0  0  0  0  0  0  0  0  0  0  0  0
    3.8381   -0.9246    4.0511 H   0  0  0  0  0  0  0  0  0  0  0  0
    3.1905   -0.9570   -0.7694 H   0  0  0  0  0  0  0  0  0  0  0  0
    5.6785   -0.0749   -0.5324 H   0  0  0  0  0  0  0  0  0  0  0  0
    6.1473   -0.8780    1.0164 H   0  0  0  0  0  0  0  0  0  0  0  0
    5.0713   -2.7298    0.1864 H   0  0  0  0  0  0  0  0  0  0  0  0
  1 10  1  0  0  0  0
  2  1  1  0  0  0  0
  3  1  1  0  0  0  0
  4  3  2  0  0  0  0
  5  3  1  0  0  0  0
  5  7  1  0  0  0  0
  6  5  1  0  0  0  0
  7  9  1  0  0  0  0
  8  7  2  0  0  0  0
  9 10  2  0  0  0  0
  9 24  1  0  0  0  0
 10 11  1  0  0  0  0
 11 12  1  0  0  0  0
 11 26  1  0  0  0  0
 12 27  1  0  0  0  0
 13 14  1  6  0  0  0
 13 12  1  0  0  0  0
 13 15  1  0  0  0  0
 15 29  1  0  0  0  0
 16 17  1  6  0  0  0
 16 13  1  0  0  0  0
 16 18  1  0  0  0  0
 18 30  1  0  0  0  0
 19 20  1  1  0  0  0
 19 16  1  0  0  0  0
 21 19  1  0  0  0  0
 22 19  1  0  0  0  0
 22 33  1  0  0  0  0
 23 34  1  0  0  0  0
 23 22  1  0  0  0  0
 24 25  2  0  0  0  0
 28 12  1  0  0  0  0
 31 21  1  0  0  0  0
 32 22  1  0  0  0  0
M  END
$$$$
