rmsd176.gzmat
 OpenBabel08211713423D

 34 34  0  0  1  0  0  0  0  0999 V2000
    0.0000    0.0000    0.0000 N   0  0  0  0  0  0  0  0  0  0  0  0
    1.0299    0.0000    0.0000 H   0  0  0  0  0  0  0  0  0  0  0  0
   -0.6444    0.0000   -1.2740 C   0  0  0  0  0  0  0  0  0  0  0  0
    0.0445   -0.0624   -2.2660 O   0  0  0  0  0  0  0  0  0  0  0  0
   -2.0219    0.0856   -1.2708 N   0  0  0  0  0  0  0  0  0  0  0  0
   -2.5019    0.0821   -2.1768 H   0  0  0  0  0  0  0  0  0  0  0  0
   -2.8330    0.1681   -0.0826 C   0  0  0  0  0  0  0  0  0  0  0  0
   -4.0216    0.2099   -0.2688 O   0  0  0  0  0  0  0  0  0  0  0  0
   -2.1093    0.1904    1.1655 C   0  0  0  0  0  0  0  0  0  0  0  0
   -0.7048    0.0596    1.1889 C   0  0  0  0  0  0  0  0  0  0  0  0
   -0.0169   -0.0028    2.3634 N   0  0  0  0  0  0  0  0  0  0  0  0
    1.4304   -0.1700    2.4531 C   0  0  0  0  0  0  0  0  0  0  0  0
    2.1589    1.1805    2.2947 C   0  0  2  0  0  0  0  0  0  0  0  0
    1.6757    1.9872    2.8879 H   0  0  0  0  0  0  0  0  0  0  0  0
    2.1586    1.5334    0.9218 O   0  0  0  0  0  0  0  0  0  0  0  0
    3.6515    1.0500    2.6650 C   0  0  2  0  0  0  0  0  0  0  0  0
    3.7808    0.7111    3.7192 H   0  0  0  0  0  0  0  0  0  0  0  0
    4.2420    2.3247    2.6529 O   0  0  0  0  0  0  0  0  0  0  0  0
    4.4093    0.1264    1.6870 C   0  0  2  0  0  0  0  0  0  0  0  0
    4.1394    0.3081    0.6207 H   0  0  0  0  0  0  0  0  0  0  0  0
    3.9744   -1.1784    2.0257 O   0  0  0  0  0  0  0  0  0  0  0  0
    5.9250    0.2466    1.9017 C   0  0  0  0  0  0  0  0  0  0  0  0
    6.4681   -0.6411    0.9357 O   0  0  0  0  0  0  0  0  0  0  0  0
   -2.7421    0.3421    2.4122 N   0  0  0  0  0  0  0  0  0  0  0  0
   -3.9234    0.4782    2.4684 O   0  0  0  0  0  0  0  0  0  0  0  0
   -0.5485    0.0645    3.2329 H   0  0  0  0  0  0  0  0  0  0  0  0
    1.8050   -0.9052    1.6935 H   0  0  0  0  0  0  0  0  0  0  0  0
    1.6833   -0.6348    3.4362 H   0  0  0  0  0  0  0  0  0  0  0  0
    1.4523    2.1789    0.7159 H   0  0  0  0  0  0  0  0  0  0  0  0
    4.0777    2.7698    1.7898 H   0  0  0  0  0  0  0  0  0  0  0  0
    4.5920   -1.8379    1.6327 H   0  0  0  0  0  0  0  0  0  0  0  0
    6.2896    1.2694    1.6984 H   0  0  0  0  0  0  0  0  0  0  0  0
    6.2282   -0.0675    2.9146 H   0  0  0  0  0  0  0  0  0  0  0  0
    7.4183   -0.7921    1.1018 H   0  0  0  0  0  0  0  0  0  0  0  0
  1 10  1  0  0  0  0
  2  1  1  0  0  0  0
  3  5  1  0  0  0  0
  3  1  1  0  0  0  0
  4  3  2  0  0  0  0
  5  7  1  0  0  0  0
  6  5  1  0  0  0  0
  7  9  1  0  0  0  0
  8  7  2  0  0  0  0
  9 10  2  0  0  0  0
  9 24  1  0  0  0  0
 10 11  1  0  0  0  0
 11 12  1  0  0  0  0
 11 26  1  0  0  0  0
 12 28  1  0  0  0  0
 13 12  1  0  0  0  0
 13 16  1  0  0  0  0
 13 14  1  1  0  0  0
 15 13  1  0  0  0  0
 16 17  1  1  0  0  0
 18 16  1  0  0  0  0
 19 20  1  6  0  0  0
 19 22  1  0  0  0  0
 19 21  1  0  0  0  0
 19 16  1  0  0  0  0
 22 33  1  0  0  0  0
 23 34  1  0  0  0  0
 23 22  1  0  0  0  0
 24 25  2  0  0  0  0
 27 12  1  0  0  0  0
 29 15  1  0  0  0  0
 30 18  1  0  0  0  0
 31 21  1  0  0  0  0
 32 22  1  0  0  0  0
M  END
$$$$
