34

N         -0.00470       -0.04940        0.04360
H          1.02330       -0.05250        0.03150
C         -0.58380       -0.21660       -1.22350
O          0.10600       -0.33280       -2.21310
N         -1.95430       -0.23920       -1.21030
H         -2.40860       -0.34560       -2.11370
C         -2.83210       -0.18770       -0.08860
O         -4.02600       -0.23650       -0.27480
C         -2.12350       -0.09250        1.18730
C         -0.70880       -0.02980        1.20920
N         -0.04580        0.04670        2.36960
C          1.39370        0.08910        2.49680
C          2.10500       -1.24320        2.18440
H          1.42350       -1.87670        1.58810
O          2.41520       -1.88410        3.39920
C          3.33730       -0.99160        1.28720
H          3.90160       -0.12270        1.66560
O          2.87000       -0.60500       -0.00530
C          4.28980       -2.18750        1.22360
H          4.80990       -2.14420        0.24630
O          3.53210       -3.38630        1.31720
C          5.35940       -2.17110        2.31180
O          6.04570       -3.40410        2.18520
N         -2.68890       -0.06810        2.45150
O         -3.90260       -0.11380        2.57180
H         -0.67010        0.02540        3.17760
H          1.63800        0.35640        3.53360
H          1.79090        0.89200        1.85340
H          2.65600       -2.79200        3.15220
H          2.65940       -1.40140       -0.51710
H          4.18700       -4.09490        1.43240
H          6.03000       -1.30400        2.15780
H          4.87450       -2.06550        3.29800
H          6.58190       -3.55780        2.97200
