34
rmsd147.gzmat
N          0.00000        0.00000        0.00000
H          1.02890        0.00000        0.00000
C         -0.63340        0.00000       -1.27430
O          0.06460        0.02260       -2.26950
N         -2.00970       -0.01540       -1.28270
H         -2.48350        0.05700       -2.18910
C         -2.83710       -0.14260       -0.10450
O         -4.02080       -0.12010       -0.31000
C         -2.11850       -0.30140        1.14530
C         -0.69890       -0.23540        1.17170
N         -0.01060       -0.41730        2.32480
C          1.44820       -0.38610        2.43050
C          2.10460       -1.59830        1.72620
H          1.41910       -2.08070        0.99460
O          2.47870       -2.55250        2.69750
C          3.45270       -1.19540        1.08030
H          4.22670       -1.02920        1.87210
O          3.33160        0.06990        0.47630
C          3.94230       -2.24780        0.06800
H          4.12730       -3.22290        0.58460
O          5.22590       -1.88750       -0.38470
C          3.03560       -2.45790       -1.16670
O          2.04130       -1.45170       -1.15280
N         -2.94100       -0.52670        2.24270
O         -2.42870       -0.68530        3.32240
H         -0.56440       -0.55850        3.18560
H          1.72870       -0.39490        3.51280
H          1.85310        0.58050        2.03310
H          1.68770       -2.98460        3.08060
H          2.97260       -0.01870       -0.44150
H          5.27080       -0.92620       -0.58800
H          3.62690       -2.39740       -2.09960
H          2.50800       -3.42880       -1.12500
H          1.65320       -1.25880       -2.03570
