34
rmsd9.gzmat
N          0.00000        0.00000        0.00000
H          1.03290        0.00000        0.00000
C         -0.64430        0.00000       -1.27390
O          0.04040       -0.06410       -2.26920
N         -2.02380        0.07180       -1.27490
H         -2.50140        0.04700       -2.18070
C         -2.83410        0.20230       -0.09120
O         -4.02110        0.26780       -0.27890
C         -2.11240        0.22600        1.15660
C         -0.70680        0.08980        1.18370
N         -0.03080        0.06560        2.36840
C          1.38770       -0.25320        2.50320
C          2.27750        0.90200        1.99790
H          1.69520        1.83140        1.78700
O          2.79680        0.41710        0.77020
C          3.44360        1.21560        2.95710
H          3.07530        1.62710        3.92560
O          4.16610        2.21510        2.26990
C          4.34830       -0.01650        3.20390
H          4.30980       -0.74280        2.35310
O          3.79610       -0.74930        4.27630
C          5.79680        0.38120        3.51660
O          5.70050        1.50930        4.38010
N         -2.74430        0.37240        2.40330
O         -3.92420        0.52240        2.46400
H         -0.57850        0.16050        3.22640
H          1.64610       -1.19060        1.94370
H          1.60020       -0.48750        3.57600
H          3.44930        1.05670        0.39850
H          4.82380        2.62050        2.88470
H          3.99490       -0.31900        5.13690
H          6.32810       -0.43710        4.03720
H          6.35080        0.67400        2.60450
H          6.57680        1.74970        4.73890
