
     RDKit          3D

 34 34  0  0  0  0  0  0  0  0999 V2000
    0.0927    0.1457    0.0687 N   0  0  0  0  0  0  0  0  0  0  0  0
    1.1253    0.1971    0.0940 H   0  0  0  0  0  0  0  0  0  0  0  0
   -0.4097   -0.0359   -1.2199 C   0  0  0  0  0  0  0  0  0  0  0  0
    0.3464   -0.1469   -2.1692 O   0  0  0  0  0  0  0  0  0  0  0  0
   -1.7742   -0.0834   -1.2868 N   0  0  0  0  0  0  0  0  0  0  0  0
   -2.1826   -0.1916   -2.2118 H   0  0  0  0  0  0  0  0  0  0  0  0
   -2.7056   -0.0790   -0.2019 C   0  0  0  0  0  0  0  0  0  0  0  0
   -3.8877   -0.1337   -0.4479 O   0  0  0  0  0  0  0  0  0  0  0  0
   -2.0593   -0.0461    1.1109 C   0  0  0  0  0  0  0  0  0  0  0  0
   -0.6493    0.0444    1.1994 C   0  0  0  0  0  0  0  0  0  0  0  0
   -0.0258    0.0277    2.3838 N   0  0  0  0  0  0  0  0  0  0  0  0
    1.4036   -0.0348    2.6218 C   0  0  0  0  0  0  0  0  0  0  0  0
    2.0006   -1.4526    2.5654 C   0  0  2  0  0  0  0  0  0  0  0  0
    1.2552   -2.1456    3.0026 H   0  0  0  0  0  0  0  0  0  0  0  0
    3.1741   -1.4205    3.3495 O   0  0  0  0  0  0  0  0  0  0  0  0
    2.3492   -2.0108    1.1744 C   0  0  2  0  0  0  0  0  0  0  0  0
    1.4388   -2.0713    0.5521 H   0  0  0  0  0  0  0  0  0  0  0  0
    2.8510   -3.3096    1.4392 O   0  0  0  0  0  0  0  0  0  0  0  0
    3.3926   -1.1328    0.4211 C   0  0  2  0  0  0  0  0  0  0  0  0
    3.9927   -0.5849    1.1633 H   0  0  0  0  0  0  0  0  0  0  0  0
    2.7508   -0.1482   -0.3827 O   0  0  0  0  0  0  0  0  0  0  0  0
    4.3405   -1.9719   -0.4181 C   0  0  0  0  0  0  0  0  0  0  0  0
    3.5374   -2.8388   -1.2143 O   0  0  0  0  0  0  0  0  0  0  0  0
   -2.6804   -0.1510    2.3448 N   0  0  0  0  0  0  0  0  0  0  0  0
   -3.8965   -0.2298    2.4048 O   0  0  0  0  0  0  0  0  0  0  0  0
   -0.6873   -0.0739    3.1563 H   0  0  0  0  0  0  0  0  0  0  0  0
    1.5858    0.3276    3.6426 H   0  0  0  0  0  0  0  0  0  0  0  0
    1.9387    0.6554    1.9513 H   0  0  0  0  0  0  0  0  0  0  0  0
    3.5851   -2.2934    3.2517 H   0  0  0  0  0  0  0  0  0  0  0  0
    2.9837   -3.7360    0.5775 H   0  0  0  0  0  0  0  0  0  0  0  0
    2.3896   -0.5595   -1.1916 H   0  0  0  0  0  0  0  0  0  0  0  0
    4.9483   -1.2932   -1.0415 H   0  0  0  0  0  0  0  0  0  0  0  0
    5.0162   -2.5430    0.2423 H   0  0  0  0  0  0  0  0  0  0  0  0
    4.0720   -3.2245   -1.9193 H   0  0  0  0  0  0  0  0  0  0  0  0
  1  2  1  0
  1  3  1  0
  1 10  1  0
  3  4  2  0
  3  5  1  0
  5  6  1  0
  5  7  1  0
  7  8  2  0
  7  9  1  0
  9 10  2  0
  9 24  1  0
 10 11  1  0
 11 12  1  0
 11 26  1  0
 12 13  1  0
 12 27  1  0
 12 28  1  0
 13 14  1  1
 13 15  1  0
 13 16  1  0
 15 29  1  0
 16 17  1  6
 16 18  1  0
 16 19  1  0
 18 30  1  0
 19 20  1  1
 19 21  1  0
 19 22  1  0
 21 31  1  0
 22 23  1  0
 22 32  1  0
 22 33  1  0
 23 34  1  0
 24 25  2  0
M  END

