34
rmsd27.gzmat
N          0.00000        0.00000        0.00000
H          1.03250        0.00000        0.00000
C         -0.63650        0.00000       -1.27880
O          0.05110       -0.11770       -2.26650
N         -2.01050        0.14370       -1.28950
H         -2.48210        0.14950       -2.19930
C         -2.82360        0.29600       -0.11230
O         -4.00420        0.43010       -0.30840
C         -2.11250        0.26200        1.14330
C         -0.70850        0.13630        1.17640
N         -0.03090        0.18580        2.36480
C          1.38040       -0.16230        2.52440
C          2.29270        0.95690        1.96700
H          1.71540        1.88560        1.73470
O          2.74480        0.55470        0.69200
C          3.51320        1.26590        2.85350
H          4.37290        1.58620        2.20490
O          3.99650        0.08760        3.44510
C          3.24190        2.34450        3.92090
H          3.00840        3.32830        3.44430
O          4.42550        2.60220        4.64000
C          2.14800        1.97460        4.93730
O          2.43450        0.72020        5.53200
N         -2.76410        0.33920        2.38700
O         -3.94830        0.45360        2.43400
H         -0.59840        0.22860        3.21680
H          1.62260       -1.13110        2.02270
H          1.57160       -0.34290        3.61110
H          3.45510       -0.12350        0.75560
H          3.49270       -0.10370        4.27670
H          4.98180        1.79170        4.70050
H          2.06470        2.74970        5.72110
H          1.15920        1.82870        4.46450
H          3.05970        0.83290        6.28080
