
     RDKit          3D

 59 62  0  0  0  0  0  0  0  0999 V2000
   -0.2608    0.0694   -0.1104 S   0  0  0  0  0  0  0  0  0  0  0  0
    1.1848    0.2564   -0.3583 O   0  0  0  0  0  0  0  0  0  0  0  0
   -1.1966   -0.1124   -1.2292 O   0  0  0  0  0  0  0  0  0  0  0  0
   -0.8460    1.5469    0.8553 C   0  0  2  0  0  0  0  0  0  0  0  0
   -1.8979    1.2982    1.0607 H   0  0  0  0  0  0  0  0  0  0  0  0
   -0.7573    2.6811   -0.1235 C   0  0  0  0  0  0  0  0  0  0  0  0
    0.2107    3.6011   -0.0606 C   0  0  0  0  0  0  0  0  0  0  0  0
    1.2371    3.5928    1.0456 C   0  0  2  0  0  0  0  0  0  0  0  0
    1.6193    4.6083    1.2178 H   0  0  0  0  0  0  0  0  0  0  0  0
    2.3731    2.7820    0.6488 N   0  0  0  0  0  0  0  0  0  0  0  0
    3.6139    3.0482    1.1345 C   0  0  0  0  0  0  0  0  0  0  0  0
    3.8968    4.0172    1.8165 O   0  0  0  0  0  0  0  0  0  0  0  0
    4.4900    2.0953    0.7542 O   0  0  0  0  0  0  0  0  0  0  0  0
    5.8553    2.2735    1.1711 C   0  0  0  0  0  0  0  0  0  0  0  0
    6.6452    3.0962    0.1842 C   0  0  0  0  0  0  0  0  0  0  0  0
    6.6348    4.4983    0.2517 C   0  0  0  0  0  0  0  0  0  0  0  0
    7.3479    5.2542   -0.6809 C   0  0  0  0  0  0  0  0  0  0  0  0
    8.0787    4.6204   -1.6907 C   0  0  0  0  0  0  0  0  0  0  0  0
    8.0930    3.2251   -1.7657 C   0  0  0  0  0  0  0  0  0  0  0  0
    7.3787    2.4697   -0.8327 C   0  0  0  0  0  0  0  0  0  0  0  0
    0.5609    3.0846    2.3545 C   0  0  1  0  0  0  0  0  0  0  0  0
   -0.2511    3.7909    2.5789 H   0  0  0  0  0  0  0  0  0  0  0  0
   -0.0094    1.6824    2.1399 C   0  0  0  0  0  0  0  0  0  0  0  0
    1.5662    3.0790    3.5051 C   0  0  0  0  0  0  0  0  0  0  0  0
    2.1252    2.0419    3.8153 O   0  0  0  0  0  0  0  0  0  0  0  0
    1.8792    4.3605    4.2089 C   0  0  0  0  0  0  0  0  0  0  0  0
    1.1844    5.5582    3.9793 C   0  0  0  0  0  0  0  0  0  0  0  0
    1.5372    6.7226    4.6644 C   0  0  0  0  0  0  0  0  0  0  0  0
    2.5881    6.7015    5.5844 C   0  0  0  0  0  0  0  0  0  0  0  0
    3.2865    5.5112    5.8195 C   0  0  0  0  0  0  0  0  0  0  0  0
    2.9337    4.3510    5.1370 C   0  0  0  0  0  0  0  0  0  0  0  0
   -0.4396   -1.3150    1.0118 C   0  0  0  0  0  0  0  0  0  0  0  0
   -1.6913   -1.9269    1.1201 C   0  0  0  0  0  0  0  0  0  0  0  0
   -1.8432   -2.9894    2.0124 C   0  0  0  0  0  0  0  0  0  0  0  0
   -0.7524   -3.4281    2.7712 C   0  0  0  0  0  0  0  0  0  0  0  0
    0.4972   -2.8147    2.6375 C   0  0  0  0  0  0  0  0  0  0  0  0
    0.6636   -1.7494    1.7501 C   0  0  0  0  0  0  0  0  0  0  0  0
   -1.4767    2.6750   -0.9450 H   0  0  0  0  0  0  0  0  0  0  0  0
    0.2920    4.3727   -0.8307 H   0  0  0  0  0  0  0  0  0  0  0  0
    2.1989    1.8928    0.1763 H   0  0  0  0  0  0  0  0  0  0  0  0
    6.2605    1.2551    1.2383 H   0  0  0  0  0  0  0  0  0  0  0  0
    5.8628    2.7384    2.1662 H   0  0  0  0  0  0  0  0  0  0  0  0
    6.0468    4.9842    1.0323 H   0  0  0  0  0  0  0  0  0  0  0  0
    7.3340    6.3453   -0.6192 H   0  0  0  0  0  0  0  0  0  0  0  0
    8.6375    5.2139   -2.4187 H   0  0  0  0  0  0  0  0  0  0  0  0
    8.6624    2.7237   -2.5523 H   0  0  0  0  0  0  0  0  0  0  0  0
    7.3896    1.3778   -0.8929 H   0  0  0  0  0  0  0  0  0  0  0  0
   -0.6131    1.3821    3.0074 H   0  0  0  0  0  0  0  0  0  0  0  0
    0.8471    0.9972    2.1248 H   0  0  0  0  0  0  0  0  0  0  0  0
    0.3610    5.5960    3.2650 H   0  0  0  0  0  0  0  0  0  0  0  0
    0.9900    7.6496    4.4782 H   0  0  0  0  0  0  0  0  0  0  0  0
    2.8653    7.6139    6.1181 H   0  0  0  0  0  0  0  0  0  0  0  0
    4.1119    5.4943    6.5352 H   0  0  0  0  0  0  0  0  0  0  0  0
    3.4673    3.4128    5.2940 H   0  0  0  0  0  0  0  0  0  0  0  0
   -2.5189   -1.5825    0.4975 H   0  0  0  0  0  0  0  0  0  0  0  0
   -2.8128   -3.4828    2.1095 H   0  0  0  0  0  0  0  0  0  0  0  0
   -0.8763   -4.2606    3.4677 H   0  0  0  0  0  0  0  0  0  0  0  0
    1.3480   -3.1682    3.2239 H   0  0  0  0  0  0  0  0  0  0  0  0
    1.6312   -1.2647    1.6137 H   0  0  0  0  0  0  0  0  0  0  0  0
  1  2  2  0
  1  3  2  0
  1  4  1  0
  1 32  1  0
  4  5  1  1
  4  6  1  0
  4 23  1  0
  6  7  2  0
  6 38  1  0
  7  8  1  0
  7 39  1  0
  8  9  1  1
  8 10  1  0
  8 21  1  0
 10 11  1  0
 10 40  1  0
 11 12  2  0
 11 13  1  0
 13 14  1  0
 14 15  1  0
 14 41  1  0
 14 42  1  0
 15 16  2  0
 15 20  1  0
 16 17  1  0
 16 43  1  0
 17 18  2  0
 17 44  1  0
 18 19  1  0
 18 45  1  0
 19 20  2  0
 19 46  1  0
 20 47  1  0
 21 22  1  1
 21 23  1  0
 21 24  1  0
 23 48  1  0
 23 49  1  0
 24 25  2  0
 24 26  1  0
 26 27  2  0
 26 31  1  0
 27 28  1  0
 27 50  1  0
 28 29  2  0
 28 51  1  0
 29 30  1  0
 29 52  1  0
 30 31  2  0
 30 53  1  0
 31 54  1  0
 32 33  2  0
 32 37  1  0
 33 34  1  0
 33 55  1  0
 34 35  2  0
 34 56  1  0
 35 36  1  0
 35 57  1  0
 36 37  2  0
 36 58  1  0
 37 59  1  0
M  END

