59
rmsd42.gzmat
S          0.00000        0.00000        0.00000
O          1.45120        0.00000        0.00000
O         -0.73510        0.00000       -1.25000
C         -0.47340        1.51850        0.90300
H          0.46270        2.13610        0.98650
C         -0.96170        1.22880        2.28120
C         -1.98420        1.87340        2.85050
C         -2.73200        3.00840        2.20450
H         -2.77470        3.87570        2.92940
N         -4.13460        2.64490        1.95000
C         -4.45330        1.42030        1.40570
O         -3.77860        0.41480        1.39630
O         -5.73350        1.47730        0.90590
C         -6.00500        0.52620       -0.12820
C         -5.26820        0.94550       -1.36450
C         -5.79700        1.93860       -2.18950
C         -5.08480        2.36060       -3.30960
C         -3.83770        1.80580       -3.59660
C         -3.30630        0.81900       -2.76960
C         -4.02690        0.38240       -1.65980
C         -1.98620        3.50370        0.92520
H         -1.08790        4.08050        1.27270
C         -1.51420        2.30390        0.09690
C         -2.83420        4.45890        0.11100
O         -3.85140        4.93190        0.56390
C         -2.38960        4.81790       -1.25540
C         -3.36480        4.93260       -2.24670
C         -2.99070        5.24350       -3.55280
C         -1.64820        5.45110       -3.86070
C         -0.67750        5.36080       -2.86240
C         -1.04650        5.04650       -1.55750
C         -0.52780       -1.37330        0.96270
C          0.40540       -2.09290        1.70880
C         -0.01130       -3.16750        2.49080
C         -1.35960       -3.52530        2.52270
C         -2.28710       -2.81780        1.76280
C         -1.86970       -1.74450        0.97570
H         -0.42560        0.45660        2.83800
H         -2.35020        1.60670        3.84110
H         -4.75350        3.43750        1.76010
H         -7.10600        0.61110       -0.21890
H         -5.73940       -0.49080        0.21760
H         -6.75940        2.38930       -1.95340
H         -5.50130        3.12630       -3.96040
H         -3.27660        2.14630       -4.46410
H         -2.31830        0.39050       -2.97210
H         -3.60520       -0.39320       -1.01700
H         -1.10050        2.62330       -0.88180
H         -2.38530        1.66330       -0.17210
H         -4.41640        4.77260       -1.99510
H         -3.74920        5.32490       -4.32910
H         -1.35430        5.68720       -4.88260
H          0.36940        5.53220       -3.10540
H         -0.28680        4.98290       -0.77990
H          1.46940       -1.82960        1.68270
H          0.71380       -3.72810        3.07520
H         -1.68470       -4.35970        3.14180
H         -3.33950       -3.09240        1.78410
H         -2.61610       -1.20080        0.38210
