rmsd154.gzmat
 OpenBabel08211713403D

 59 62  0  0  1  0  0  0  0  0999 V2000
    0.0000    0.0000    0.0000 S   0  0  0  0  0  0  0  0  0  0  0  0
    1.4477    0.0000    0.0000 O   0  0  0  0  0  0  0  0  0  0  0  0
   -0.7478    0.0000   -1.2397 O   0  0  0  0  0  0  0  0  0  0  0  0
   -0.5098    1.5122    0.8972 C   0  0  2  0  0  0  0  0  0  0  0  0
   -0.2363    2.3852    0.2466 H   0  0  0  0  0  0  0  0  0  0  0  0
    0.2757    1.6130    2.1584 C   0  0  0  0  0  0  0  0  0  0  0  0
   -0.2637    1.8237    3.3602 C   0  0  0  0  0  0  0  0  0  0  0  0
   -1.7455    1.9923    3.5844 C   0  0  2  0  0  0  0  0  0  0  0  0
   -1.9148    2.7805    4.3734 H   0  0  0  0  0  0  0  0  0  0  0  0
   -2.3201    0.7271    4.0754 N   0  0  0  0  0  0  0  0  0  0  0  0
   -1.8758    0.2298    5.2693 C   0  0  0  0  0  0  0  0  0  0  0  0
   -1.0648    0.7586    6.0030 O   0  0  0  0  0  0  0  0  0  0  0  0
   -2.4975   -0.9616    5.5342 O   0  0  0  0  0  0  0  0  0  0  0  0
   -2.0747   -1.6199    6.7315 C   0  0  0  0  0  0  0  0  0  0  0  0
   -0.8797   -2.4757    6.4396 C   0  0  0  0  0  0  0  0  0  0  0  0
    0.3890   -1.8997    6.3552 C   0  0  0  0  0  0  0  0  0  0  0  0
    1.4977   -2.6959    6.0782 C   0  0  0  0  0  0  0  0  0  0  0  0
    1.3428   -4.0696    5.8963 C   0  0  0  0  0  0  0  0  0  0  0  0
    0.0766   -4.6459    5.9841 C   0  0  0  0  0  0  0  0  0  0  0  0
   -1.0355   -3.8496    6.2509 C   0  0  0  0  0  0  0  0  0  0  0  0
   -2.4236    2.4411    2.2646 C   0  0  1  0  0  0  0  0  0  0  0  0
   -2.0644    3.4755    2.0382 H   0  0  0  0  0  0  0  0  0  0  0  0
   -2.0271    1.5154    1.1043 C   0  0  0  0  0  0  0  0  0  0  0  0
   -3.9377    2.4184    2.3904 C   0  0  0  0  0  0  0  0  0  0  0  0
   -4.5316    1.3656    2.4281 O   0  0  0  0  0  0  0  0  0  0  0  0
   -4.6631    3.7075    2.4091 C   0  0  0  0  0  0  0  0  0  0  0  0
   -5.9087    3.7687    1.7809 C   0  0  0  0  0  0  0  0  0  0  0  0
   -6.6241    4.9640    1.7747 C   0  0  0  0  0  0  0  0  0  0  0  0
   -6.1000    6.0908    2.4059 C   0  0  0  0  0  0  0  0  0  0  0  0
   -4.8617    6.0241    3.0454 C   0  0  0  0  0  0  0  0  0  0  0  0
   -4.1414    4.8324    3.0484 C   0  0  0  0  0  0  0  0  0  0  0  0
   -0.5763   -1.3237    1.0040 C   0  0  0  0  0  0  0  0  0  0  0  0
   -1.8186   -1.9017    0.7475 C   0  0  0  0  0  0  0  0  0  0  0  0
   -2.3122   -2.8923    1.5940 C   0  0  0  0  0  0  0  0  0  0  0  0
   -1.5531   -3.3174    2.6832 C   0  0  0  0  0  0  0  0  0  0  0  0
   -0.2949   -2.7652    2.9132 C   0  0  0  0  0  0  0  0  0  0  0  0
    0.1963   -1.7668    2.0750 C   0  0  0  0  0  0  0  0  0  0  0  0
    1.3638    1.5275    2.0417 H   0  0  0  0  0  0  0  0  0  0  0  0
    0.3340    1.8686    4.2720 H   0  0  0  0  0  0  0  0  0  0  0  0
   -3.0206    0.2579    3.5144 H   0  0  0  0  0  0  0  0  0  0  0  0
   -2.9826   -2.2036    6.9860 H   0  0  0  0  0  0  0  0  0  0  0  0
   -1.8769   -0.8803    7.5337 H   0  0  0  0  0  0  0  0  0  0  0  0
    0.5108   -0.8227    6.5048 H   0  0  0  0  0  0  0  0  0  0  0  0
    2.4855   -2.2446    6.0073 H   0  0  0  0  0  0  0  0  0  0  0  0
    2.2103   -4.6926    5.6872 H   0  0  0  0  0  0  0  0  0  0  0  0
   -0.0431   -5.7182    5.8455 H   0  0  0  0  0  0  0  0  0  0  0  0
   -2.0234   -4.3022    6.3143 H   0  0  0  0  0  0  0  0  0  0  0  0
   -2.5390    1.8339    0.1707 H   0  0  0  0  0  0  0  0  0  0  0  0
   -2.4262    0.4993    1.3177 H   0  0  0  0  0  0  0  0  0  0  0  0
   -6.3199    2.8759    1.3036 H   0  0  0  0  0  0  0  0  0  0  0  0
   -7.5933    5.0146    1.2814 H   0  0  0  0  0  0  0  0  0  0  0  0
   -6.6609    7.0245    2.4043 H   0  0  0  0  0  0  0  0  0  0  0  0
   -4.4594    6.9042    3.5442 H   0  0  0  0  0  0  0  0  0  0  0  0
   -3.1805    4.7836    3.5593 H   0  0  0  0  0  0  0  0  0  0  0  0
   -2.4149   -1.5936   -0.1188 H   0  0  0  0  0  0  0  0  0  0  0  0
   -3.2893   -3.3324    1.4056 H   0  0  0  0  0  0  0  0  0  0  0  0
   -1.9409   -4.0803    3.3573 H   0  0  0  0  0  0  0  0  0  0  0  0
    0.3025   -3.1071    3.7590 H   0  0  0  0  0  0  0  0  0  0  0  0
    1.1878   -1.3464    2.2714 H   0  0  0  0  0  0  0  0  0  0  0  0
  1  4  1  0  0  0  0
  1 32  1  0  0  0  0
  2  1  2  0  0  0  0
  3  1  2  0  0  0  0
  4  5  1  6  0  0  0
  4 23  1  0  0  0  0
  4  6  1  0  0  0  0
  6  7  2  0  0  0  0
  7  8  1  0  0  0  0
  7 39  1  0  0  0  0
  8 21  1  0  0  0  0
  8 10  1  0  0  0  0
  8  9  1  1  0  0  0
 10 11  1  0  0  0  0
 11 13  1  0  0  0  0
 11 12  2  0  0  0  0
 13 14  1  0  0  0  0
 14 41  1  0  0  0  0
 14 42  1  0  0  0  0
 15 14  1  0  0  0  0
 16 15  1  0  0  0  0
 16 43  1  0  0  0  0
 17 16  2  0  0  0  0
 18 19  2  0  0  0  0
 18 17  1  0  0  0  0
 19 20  1  0  0  0  0
 20 47  1  0  0  0  0
 20 15  2  0  0  0  0
 21 22  1  6  0  0  0
 21 24  1  0  0  0  0
 23 49  1  0  0  0  0
 23 21  1  0  0  0  0
 24 26  1  0  0  0  0
 24 25  2  0  0  0  0
 26 31  2  0  0  0  0
 27 26  1  0  0  0  0
 28 27  2  0  0  0  0
 28 29  1  0  0  0  0
 29 30  2  0  0  0  0
 30 31  1  0  0  0  0
 30 53  1  0  0  0  0
 31 54  1  0  0  0  0
 32 37  1  0  0  0  0
 33 32  2  0  0  0  0
 33 34  1  0  0  0  0
 34 35  2  0  0  0  0
 35 36  1  0  0  0  0
 35 57  1  0  0  0  0
 36 58  1  0  0  0  0
 37 59  1  0  0  0  0
 37 36  2  0  0  0  0
 38  6  1  0  0  0  0
 40 10  1  0  0  0  0
 44 17  1  0  0  0  0
 45 18  1  0  0  0  0
 46 19  1  0  0  0  0
 48 23  1  0  0  0  0
 50 27  1  0  0  0  0
 51 28  1  0  0  0  0
 52 29  1  0  0  0  0
 55 33  1  0  0  0  0
 56 34  1  0  0  0  0
M  END
$$$$
