59
rmsd6.gzmat
S          0.00000        0.00000        0.00000
O          1.44800        0.00000        0.00000
O         -0.74930        0.00000       -1.23820
C         -0.50380        1.51180        0.90410
H         -0.15740        2.38820        0.29510
C          0.21860        1.53430        2.20570
C         -0.37980        1.66260        3.39080
C         -1.86740        1.83990        3.54520
H         -2.06530        2.56460        4.38820
N         -2.49840        0.55720        3.89840
C         -2.25250        0.03190        5.13730
O         -1.56920        0.54210        6.00160
O         -2.92390       -1.15350        5.27170
C         -2.69320       -1.85270        6.49770
C         -1.47920       -2.71760        6.34730
C         -0.20710       -2.16170        6.49190
C          0.92300       -2.96020        6.33340
C          0.78360       -4.31570        6.03660
C         -0.48690       -4.87170        5.89730
C         -1.61930       -4.07350        6.04930
C         -2.47540        2.40060        2.23420
H         -2.11470        3.45000        2.10710
C         -2.03000        1.57200        1.02080
C         -3.99340        2.36740        2.32780
O         -4.59330        1.36340        2.01850
C         -4.71580        3.57200        2.79060
C         -6.04640        3.72450        2.39120
C         -6.77730        4.83250        2.81380
C         -6.18330        5.78090        3.64460
C         -4.85860        5.62390        4.05210
C         -4.12320        4.52130        3.62490
C         -0.56970       -1.32570        1.00590
C          0.21630       -1.77240        2.06640
C         -0.25990       -2.77810        2.90420
C         -1.51540       -3.33890        2.67830
C         -2.29040       -2.90660        1.60360
C         -1.81280       -1.90510        0.76000
H          1.31110        1.45500        2.13590
H          0.16820        1.63690        4.33330
H         -3.06800        0.08300        3.20930
H         -3.63670       -2.42650        6.59810
H         -2.60540       -1.14010        7.34270
H         -0.10130       -1.09820        6.72540
H          1.91450       -2.52540        6.44570
H          1.66620       -4.94090        5.91640
H         -0.59520       -5.93040        5.67080
H         -2.61030       -4.50980        5.93590
H         -2.46580        2.00060        0.09200
H         -2.48790        0.56080        1.09670
H         -6.50940        2.96670        1.75330
H         -7.81260        4.95430        2.50030
H         -6.75580        6.64510        3.98000
H         -4.39990        6.36260        4.70700
H         -3.09240        4.40570        3.95740
H          1.20850       -1.34890        2.25340
H          0.34480       -3.12090        3.74410
H         -1.88980       -4.11370        3.34720
H         -3.26780       -3.34950        1.42390
H         -2.42210       -1.59320       -0.09610
