rmsd185.gzmat
 OpenBabel08211713403D

 59 62  0  0  1  0  0  0  0  0999 V2000
    0.0000    0.0000    0.0000 S   0  0  0  0  0  0  0  0  0  0  0  0
    1.4486    0.0000    0.0000 O   0  0  0  0  0  0  0  0  0  0  0  0
   -0.7348    0.0000   -1.2519 O   0  0  0  0  0  0  0  0  0  0  0  0
   -0.4897    1.5307    0.8561 C   0  0  2  0  0  0  0  0  0  0  0  0
   -0.2764    2.3600    0.1264 H   0  0  0  0  0  0  0  0  0  0  0  0
    0.3375    1.7646    2.0743 C   0  0  0  0  0  0  0  0  0  0  0  0
   -0.1423    2.3545    3.1721 C   0  0  0  0  0  0  0  0  0  0  0  0
   -1.5446    2.8842    3.3000 C   0  0  2  0  0  0  0  0  0  0  0  0
   -1.4948    3.9670    3.6241 H   0  0  0  0  0  0  0  0  0  0  0  0
   -2.2670    2.1881    4.3759 N   0  0  0  0  0  0  0  0  0  0  0  0
   -2.2333    0.8163    4.4714 C   0  0  0  0  0  0  0  0  0  0  0  0
   -1.4420    0.0514    3.9646 O   0  0  0  0  0  0  0  0  0  0  0  0
   -3.2399    0.4116    5.3178 O   0  0  0  0  0  0  0  0  0  0  0  0
   -3.6799   -0.9325    5.1178 C   0  0  0  0  0  0  0  0  0  0  0  0
   -4.5189   -0.9747    3.8756 C   0  0  0  0  0  0  0  0  0  0  0  0
   -3.9191   -1.2357    2.6441 C   0  0  0  0  0  0  0  0  0  0  0  0
   -4.6844   -1.2442    1.4813 C   0  0  0  0  0  0  0  0  0  0  0  0
   -6.0546   -1.0002    1.5507 C   0  0  0  0  0  0  0  0  0  0  0  0
   -6.6547   -0.7322    2.7805 C   0  0  0  0  0  0  0  0  0  0  0  0
   -5.8872   -0.7120    3.9432 C   0  0  0  0  0  0  0  0  0  0  0  0
   -2.3001    2.8474    1.9314 C   0  0  1  0  0  0  0  0  0  0  0  0
   -1.9126    3.7086    1.3219 H   0  0  0  0  0  0  0  0  0  0  0  0
   -1.9853    1.5438    1.1884 C   0  0  0  0  0  0  0  0  0  0  0  0
   -3.7853    3.0867    2.1142 C   0  0  0  0  0  0  0  0  0  0  0  0
   -4.2114    3.5432    3.1514 O   0  0  0  0  0  0  0  0  0  0  0  0
   -4.7199    2.7890    1.0054 C   0  0  0  0  0  0  0  0  0  0  0  0
   -5.9752    2.2772    1.3391 C   0  0  0  0  0  0  0  0  0  0  0  0
   -6.8933    1.9822    0.3332 C   0  0  0  0  0  0  0  0  0  0  0  0
   -6.5588    2.2079   -1.0003 C   0  0  0  0  0  0  0  0  0  0  0  0
   -5.3108    2.7374   -1.3305 C   0  0  0  0  0  0  0  0  0  0  0  0
   -4.3910    3.0334   -0.3285 C   0  0  0  0  0  0  0  0  0  0  0  0
   -0.5592   -1.3772    0.9384 C   0  0  0  0  0  0  0  0  0  0  0  0
   -1.3770   -2.3255    0.3234 C   0  0  0  0  0  0  0  0  0  0  0  0
   -1.7840   -3.4553    1.0290 C   0  0  0  0  0  0  0  0  0  0  0  0
   -1.3753   -3.6361    2.3508 C   0  0  0  0  0  0  0  0  0  0  0  0
   -0.5628   -2.6865    2.9654 C   0  0  0  0  0  0  0  0  0  0  0  0
   -0.1512   -1.5555    2.2581 C   0  0  0  0  0  0  0  0  0  0  0  0
    1.3873    1.4542    2.0185 H   0  0  0  0  0  0  0  0  0  0  0  0
    0.4647    2.4862    4.0668 H   0  0  0  0  0  0  0  0  0  0  0  0
   -3.0870    2.6821    4.7366 H   0  0  0  0  0  0  0  0  0  0  0  0
   -4.2540   -1.1168    6.0476 H   0  0  0  0  0  0  0  0  0  0  0  0
   -2.8115   -1.6180    5.0778 H   0  0  0  0  0  0  0  0  0  0  0  0
   -2.8443   -1.4349    2.5952 H   0  0  0  0  0  0  0  0  0  0  0  0
   -4.2110   -1.4429    0.5206 H   0  0  0  0  0  0  0  0  0  0  0  0
   -6.6555   -1.0161    0.6434 H   0  0  0  0  0  0  0  0  0  0  0  0
   -7.7243   -0.5398    2.8338 H   0  0  0  0  0  0  0  0  0  0  0  0
   -6.3540   -0.4876    4.9012 H   0  0  0  0  0  0  0  0  0  0  0  0
   -2.5945    1.4479    0.2656 H   0  0  0  0  0  0  0  0  0  0  0  0
   -2.2688    0.6755    1.8224 H   0  0  0  0  0  0  0  0  0  0  0  0
   -6.2316    2.1086    2.3885 H   0  0  0  0  0  0  0  0  0  0  0  0
   -7.8709    1.5797    0.5918 H   0  0  0  0  0  0  0  0  0  0  0  0
   -7.2749    1.9760   -1.7874 H   0  0  0  0  0  0  0  0  0  0  0  0
   -5.0542    2.9167   -2.3732 H   0  0  0  0  0  0  0  0  0  0  0  0
   -3.4222    3.4582   -0.5912 H   0  0  0  0  0  0  0  0  0  0  0  0
   -1.7025   -2.1954   -0.7160 H   0  0  0  0  0  0  0  0  0  0  0  0
   -2.4180   -4.1974    0.5498 H   0  0  0  0  0  0  0  0  0  0  0  0
   -1.6946   -4.5187    2.9016 H   0  0  0  0  0  0  0  0  0  0  0  0
   -0.2514   -2.8148    4.0000 H   0  0  0  0  0  0  0  0  0  0  0  0
    0.4812   -0.8197    2.7672 H   0  0  0  0  0  0  0  0  0  0  0  0
  1  2  2  0  0  0  0
  1  4  1  0  0  0  0
  1 32  1  0  0  0  0
  3  1  2  0  0  0  0
  4  5  1  6  0  0  0
  4 23  1  0  0  0  0
  4  6  1  0  0  0  0
  6  7  2  0  0  0  0
  7  8  1  0  0  0  0
  7 39  1  0  0  0  0
  8 21  1  0  0  0  0
  8  9  1  1  0  0  0
  8 10  1  0  0  0  0
 10 11  1  0  0  0  0
 10 40  1  0  0  0  0
 11 13  1  0  0  0  0
 12 11  2  0  0  0  0
 14 13  1  0  0  0  0
 14 41  1  0  0  0  0
 15 20  1  0  0  0  0
 15 14  1  0  0  0  0
 16 15  2  0  0  0  0
 17 18  2  0  0  0  0
 17 16  1  0  0  0  0
 18 19  1  0  0  0  0
 19 46  1  0  0  0  0
 19 20  2  0  0  0  0
 20 47  1  0  0  0  0
 21 22  1  6  0  0  0
 21 24  1  0  0  0  0
 23 49  1  0  0  0  0
 23 21  1  0  0  0  0
 24 25  2  0  0  0  0
 26 27  1  0  0  0  0
 26 24  1  0  0  0  0
 27 50  1  0  0  0  0
 28 51  1  0  0  0  0
 28 27  2  0  0  0  0
 29 28  1  0  0  0  0
 30 29  2  0  0  0  0
 30 31  1  0  0  0  0
 31 26  2  0  0  0  0
 32 37  1  0  0  0  0
 33 32  2  0  0  0  0
 33 34  1  0  0  0  0
 34 35  2  0  0  0  0
 35 57  1  0  0  0  0
 35 36  1  0  0  0  0
 36 58  1  0  0  0  0
 37 59  1  0  0  0  0
 37 36  2  0  0  0  0
 38  6  1  0  0  0  0
 42 14  1  0  0  0  0
 43 16  1  0  0  0  0
 44 17  1  0  0  0  0
 45 18  1  0  0  0  0
 48 23  1  0  0  0  0
 52 29  1  0  0  0  0
 53 30  1  0  0  0  0
 54 31  1  0  0  0  0
 55 33  1  0  0  0  0
 56 34  1  0  0  0  0
M  END
$$$$
