59
rmsd174.gzmat
S          0.00000        0.00000        0.00000
O          1.44800        0.00000        0.00000
O         -0.74930        0.00000       -1.23630
C         -0.49590        1.50790        0.91140
H         -0.30910        2.37190        0.21660
C          0.40300        1.67340        2.08900
C         -0.01850        1.77750        3.35290
C         -1.48100        1.71090        3.71060
H         -1.71170        2.31830        4.63040
N         -1.79300        0.30190        3.98550
C         -2.80210       -0.04150        4.84370
O         -3.54460        0.71890        5.42570
O         -2.82610       -1.40740        4.98060
C         -4.10040       -1.96380        5.31590
C         -4.79860       -2.29000        4.03040
C         -4.99440       -3.61600        3.64530
C         -5.58590       -3.89920        2.41520
C         -5.97220       -2.86190        1.56770
C         -5.78700       -1.53680        1.95900
C         -5.21100       -1.25220        3.19400
C         -2.28640        2.29080        2.51220
H         -1.94370        3.34660        2.36230
C         -1.99380        1.48650        1.24220
C         -3.77510        2.30920        2.80410
O         -4.54070        1.63000        2.16290
C         -4.24900        3.18890        3.89620
C         -5.23650        2.69950        4.75340
C         -5.69370        3.49100        5.80630
C         -5.17340        4.76900        5.99240
C         -4.19820        5.26300        5.12470
C         -3.73490        4.47370        4.07580
C         -0.56140       -1.33820        0.99780
C          0.22500       -1.79250        2.05500
C         -0.24480       -2.81320        2.87900
C         -1.49080       -3.38950        2.63260
C         -2.25890       -2.95620        1.55380
C         -1.79290       -1.93280        0.73110
H          1.47350        1.73440        1.84910
H          0.66040        1.89980        4.19130
H         -1.26880       -0.41140        3.49040
H         -4.68170       -1.27180        5.95880
H         -3.81220       -2.85510        5.90650
H         -4.68680       -4.42910        4.29900
H         -5.74340       -4.93280        2.11450
H         -6.42260       -3.08600        0.60290
H         -6.08590       -0.71760        1.30370
H         -5.07710       -0.21240        3.50060
H         -2.58400        1.89410        0.39250
H         -2.39930        0.46100        1.37950
H         -5.63750        1.69370        4.60620
H         -6.45310        3.10460        6.48310
H         -5.52690        5.38430        6.81780
H         -3.79840        6.26390        5.26960
H         -2.98130        4.86890        3.39810
H          1.21660       -1.36640        2.24150
H          0.36070       -3.16380        3.71260
H         -1.86530       -4.17850        3.28420
H         -3.23240       -3.40880        1.35970
H         -2.40390       -1.61230       -0.12210
