rmsd42.gzmat
 OpenBabel08211713403D

 59 62  0  0  1  0  0  0  0  0999 V2000
    0.0000    0.0000    0.0000 S   0  0  0  0  0  0  0  0  0  0  0  0
    1.4512    0.0000    0.0000 O   0  0  0  0  0  0  0  0  0  0  0  0
   -0.7351    0.0000   -1.2500 O   0  0  0  0  0  0  0  0  0  0  0  0
   -0.4734    1.5185    0.9030 C   0  0  2  0  0  0  0  0  0  0  0  0
    0.4627    2.1361    0.9865 H   0  0  0  0  0  0  0  0  0  0  0  0
   -0.9617    1.2288    2.2812 C   0  0  0  0  0  0  0  0  0  0  0  0
   -1.9842    1.8734    2.8505 C   0  0  0  0  0  0  0  0  0  0  0  0
   -2.7320    3.0084    2.2045 C   0  0  2  0  0  0  0  0  0  0  0  0
   -2.7747    3.8757    2.9294 H   0  0  0  0  0  0  0  0  0  0  0  0
   -4.1346    2.6449    1.9500 N   0  0  0  0  0  0  0  0  0  0  0  0
   -4.4533    1.4203    1.4057 C   0  0  0  0  0  0  0  0  0  0  0  0
   -3.7786    0.4148    1.3963 O   0  0  0  0  0  0  0  0  0  0  0  0
   -5.7335    1.4773    0.9059 O   0  0  0  0  0  0  0  0  0  0  0  0
   -6.0050    0.5262   -0.1282 C   0  0  0  0  0  0  0  0  0  0  0  0
   -5.2682    0.9455   -1.3645 C   0  0  0  0  0  0  0  0  0  0  0  0
   -5.7970    1.9386   -2.1895 C   0  0  0  0  0  0  0  0  0  0  0  0
   -5.0848    2.3606   -3.3096 C   0  0  0  0  0  0  0  0  0  0  0  0
   -3.8377    1.8058   -3.5966 C   0  0  0  0  0  0  0  0  0  0  0  0
   -3.3063    0.8190   -2.7696 C   0  0  0  0  0  0  0  0  0  0  0  0
   -4.0269    0.3824   -1.6598 C   0  0  0  0  0  0  0  0  0  0  0  0
   -1.9862    3.5037    0.9252 C   0  0  1  0  0  0  0  0  0  0  0  0
   -1.0879    4.0805    1.2727 H   0  0  0  0  0  0  0  0  0  0  0  0
   -1.5142    2.3039    0.0969 C   0  0  0  0  0  0  0  0  0  0  0  0
   -2.8342    4.4589    0.1110 C   0  0  0  0  0  0  0  0  0  0  0  0
   -3.8514    4.9319    0.5639 O   0  0  0  0  0  0  0  0  0  0  0  0
   -2.3896    4.8179   -1.2554 C   0  0  0  0  0  0  0  0  0  0  0  0
   -3.3648    4.9326   -2.2467 C   0  0  0  0  0  0  0  0  0  0  0  0
   -2.9907    5.2435   -3.5528 C   0  0  0  0  0  0  0  0  0  0  0  0
   -1.6482    5.4511   -3.8607 C   0  0  0  0  0  0  0  0  0  0  0  0
   -0.6775    5.3608   -2.8624 C   0  0  0  0  0  0  0  0  0  0  0  0
   -1.0465    5.0465   -1.5575 C   0  0  0  0  0  0  0  0  0  0  0  0
   -0.5278   -1.3733    0.9627 C   0  0  0  0  0  0  0  0  0  0  0  0
    0.4054   -2.0929    1.7088 C   0  0  0  0  0  0  0  0  0  0  0  0
   -0.0113   -3.1675    2.4908 C   0  0  0  0  0  0  0  0  0  0  0  0
   -1.3596   -3.5253    2.5227 C   0  0  0  0  0  0  0  0  0  0  0  0
   -2.2871   -2.8178    1.7628 C   0  0  0  0  0  0  0  0  0  0  0  0
   -1.8697   -1.7445    0.9757 C   0  0  0  0  0  0  0  0  0  0  0  0
   -0.4256    0.4566    2.8380 H   0  0  0  0  0  0  0  0  0  0  0  0
   -2.3502    1.6067    3.8411 H   0  0  0  0  0  0  0  0  0  0  0  0
   -4.7535    3.4375    1.7601 H   0  0  0  0  0  0  0  0  0  0  0  0
   -7.1060    0.6111   -0.2189 H   0  0  0  0  0  0  0  0  0  0  0  0
   -5.7394   -0.4908    0.2176 H   0  0  0  0  0  0  0  0  0  0  0  0
   -6.7594    2.3893   -1.9534 H   0  0  0  0  0  0  0  0  0  0  0  0
   -5.5013    3.1263   -3.9604 H   0  0  0  0  0  0  0  0  0  0  0  0
   -3.2766    2.1463   -4.4641 H   0  0  0  0  0  0  0  0  0  0  0  0
   -2.3183    0.3905   -2.9721 H   0  0  0  0  0  0  0  0  0  0  0  0
   -3.6052   -0.3932   -1.0170 H   0  0  0  0  0  0  0  0  0  0  0  0
   -1.1005    2.6233   -0.8818 H   0  0  0  0  0  0  0  0  0  0  0  0
   -2.3853    1.6633   -0.1721 H   0  0  0  0  0  0  0  0  0  0  0  0
   -4.4164    4.7726   -1.9951 H   0  0  0  0  0  0  0  0  0  0  0  0
   -3.7492    5.3249   -4.3291 H   0  0  0  0  0  0  0  0  0  0  0  0
   -1.3543    5.6872   -4.8826 H   0  0  0  0  0  0  0  0  0  0  0  0
    0.3694    5.5322   -3.1054 H   0  0  0  0  0  0  0  0  0  0  0  0
   -0.2868    4.9829   -0.7799 H   0  0  0  0  0  0  0  0  0  0  0  0
    1.4694   -1.8296    1.6827 H   0  0  0  0  0  0  0  0  0  0  0  0
    0.7138   -3.7281    3.0752 H   0  0  0  0  0  0  0  0  0  0  0  0
   -1.6847   -4.3597    3.1418 H   0  0  0  0  0  0  0  0  0  0  0  0
   -3.3395   -3.0924    1.7841 H   0  0  0  0  0  0  0  0  0  0  0  0
   -2.6161   -1.2008    0.3821 H   0  0  0  0  0  0  0  0  0  0  0  0
  1  2  2  0  0  0  0
  1  4  1  0  0  0  0
  1 32  1  0  0  0  0
  3  1  2  0  0  0  0
  4  5  1  1  0  0  0
  4  6  1  0  0  0  0
  6 38  1  0  0  0  0
  6  7  2  0  0  0  0
  7 39  1  0  0  0  0
  8 21  1  0  0  0  0
  8  7  1  0  0  0  0
  8  9  1  1  0  0  0
 10  8  1  0  0  0  0
 11 10  1  0  0  0  0
 12 11  2  0  0  0  0
 13 11  1  0  0  0  0
 14 42  1  0  0  0  0
 14 13  1  0  0  0  0
 15 14  1  0  0  0  0
 16 43  1  0  0  0  0
 16 15  2  0  0  0  0
 17 16  1  0  0  0  0
 18 17  2  0  0  0  0
 18 19  1  0  0  0  0
 19 20  2  0  0  0  0
 20 15  1  0  0  0  0
 20 47  1  0  0  0  0
 21 22  1  1  0  0  0
 23  4  1  0  0  0  0
 23 21  1  0  0  0  0
 24 25  2  0  0  0  0
 24 21  1  0  0  0  0
 26 24  1  0  0  0  0
 27 50  1  0  0  0  0
 27 26  2  0  0  0  0
 28 27  1  0  0  0  0
 29 28  2  0  0  0  0
 29 30  1  0  0  0  0
 30 31  2  0  0  0  0
 31 26  1  0  0  0  0
 31 54  1  0  0  0  0
 32 37  2  0  0  0  0
 32 33  1  0  0  0  0
 33 34  2  0  0  0  0
 34 35  1  0  0  0  0
 34 56  1  0  0  0  0
 35 57  1  0  0  0  0
 36 58  1  0  0  0  0
 36 35  2  0  0  0  0
 37 36  1  0  0  0  0
 40 10  1  0  0  0  0
 41 14  1  0  0  0  0
 44 17  1  0  0  0  0
 45 18  1  0  0  0  0
 46 19  1  0  0  0  0
 48 23  1  0  0  0  0
 49 23  1  0  0  0  0
 51 28  1  0  0  0  0
 52 29  1  0  0  0  0
 53 30  1  0  0  0  0
 55 33  1  0  0  0  0
 59 37  1  0  0  0  0
M  END
$$$$
