rmsd217.gzmat
 OpenBabel08211713403D

 59 62  0  0  1  0  0  0  0  0999 V2000
    0.0000    0.0000    0.0000 S   0  0  0  0  0  0  0  0  0  0  0  0
    1.4475    0.0000    0.0000 O   0  0  0  0  0  0  0  0  0  0  0  0
   -0.7528    0.0000   -1.2353 O   0  0  0  0  0  0  0  0  0  0  0  0
   -0.5016    1.5178    0.8951 C   0  0  2  0  0  0  0  0  0  0  0  0
   -0.3187    2.3728    0.1875 H   0  0  0  0  0  0  0  0  0  0  0  0
    0.4001    1.7068    2.0653 C   0  0  0  0  0  0  0  0  0  0  0  0
   -0.0167    1.8125    3.3297 C   0  0  0  0  0  0  0  0  0  0  0  0
   -1.4736    1.7086    3.6990 C   0  0  2  0  0  0  0  0  0  0  0  0
   -1.7067    2.3135    4.6198 H   0  0  0  0  0  0  0  0  0  0  0  0
   -1.7397    0.2940    3.9779 N   0  0  0  0  0  0  0  0  0  0  0  0
   -2.5959   -0.0790    4.9806 C   0  0  0  0  0  0  0  0  0  0  0  0
   -3.1622    0.6492    5.7672 O   0  0  0  0  0  0  0  0  0  0  0  0
   -2.6763   -1.4429    4.9805 O   0  0  0  0  0  0  0  0  0  0  0  0
   -3.6873   -2.0141    5.8238 C   0  0  0  0  0  0  0  0  0  0  0  0
   -4.0968   -3.2358    5.0582 C   0  0  0  0  0  0  0  0  0  0  0  0
   -3.6451   -4.4972    5.4460 C   0  0  0  0  0  0  0  0  0  0  0  0
   -3.9851   -5.6166    4.6890 C   0  0  0  0  0  0  0  0  0  0  0  0
   -4.7709   -5.4744    3.5463 C   0  0  0  0  0  0  0  0  0  0  0  0
   -5.2213   -4.2125    3.1602 C   0  0  0  0  0  0  0  0  0  0  0  0
   -4.8846   -3.0911    3.9152 C   0  0  0  0  0  0  0  0  0  0  0  0
   -2.3184    2.2529    2.5114 C   0  0  1  0  0  0  0  0  0  0  0  0
   -2.0532    3.3317    2.3833 H   0  0  0  0  0  0  0  0  0  0  0  0
   -1.9995    1.4920    1.2209 C   0  0  0  0  0  0  0  0  0  0  0  0
   -3.7988    2.1258    2.8320 C   0  0  0  0  0  0  0  0  0  0  0  0
   -4.4335    1.1515    2.5176 O   0  0  0  0  0  0  0  0  0  0  0  0
   -4.4058    3.2715    3.5505 C   0  0  0  0  0  0  0  0  0  0  0  0
   -4.4869    4.5180    2.9294 C   0  0  0  0  0  0  0  0  0  0  0  0
   -5.0556    5.5902    3.6121 C   0  0  0  0  0  0  0  0  0  0  0  0
   -5.5340    5.4145    4.9110 C   0  0  0  0  0  0  0  0  0  0  0  0
   -5.4567    4.1653    5.5233 C   0  0  0  0  0  0  0  0  0  0  0  0
   -4.8986    3.0854    4.8402 C   0  0  0  0  0  0  0  0  0  0  0  0
   -0.5653   -1.3409    0.9926 C   0  0  0  0  0  0  0  0  0  0  0  0
   -1.8162   -1.9048    0.7441 C   0  0  0  0  0  0  0  0  0  0  0  0
   -2.2854   -2.9360    1.5548 C   0  0  0  0  0  0  0  0  0  0  0  0
   -1.4982   -3.4138    2.6014 C   0  0  0  0  0  0  0  0  0  0  0  0
   -0.2336   -2.8721    2.8268 C   0  0  0  0  0  0  0  0  0  0  0  0
    0.2367   -1.8393    2.0175 C   0  0  0  0  0  0  0  0  0  0  0  0
    1.4676    1.7848    1.8191 H   0  0  0  0  0  0  0  0  0  0  0  0
    0.6642    1.9535    4.1640 H   0  0  0  0  0  0  0  0  0  0  0  0
   -1.3833   -0.3942    3.3228 H   0  0  0  0  0  0  0  0  0  0  0  0
   -4.5218   -1.3033    5.9867 H   0  0  0  0  0  0  0  0  0  0  0  0
   -3.2005   -2.2256    6.7932 H   0  0  0  0  0  0  0  0  0  0  0  0
   -3.0246   -4.6085    6.3334 H   0  0  0  0  0  0  0  0  0  0  0  0
   -3.6364   -6.6024    4.9895 H   0  0  0  0  0  0  0  0  0  0  0  0
   -5.0334   -6.3504    2.9564 H   0  0  0  0  0  0  0  0  0  0  0  0
   -5.8383   -4.1021    2.2704 H   0  0  0  0  0  0  0  0  0  0  0  0
   -5.2245   -2.1002    3.6092 H   0  0  0  0  0  0  0  0  0  0  0  0
   -2.5767    1.9276    0.3765 H   0  0  0  0  0  0  0  0  0  0  0  0
   -2.4079    0.4619    1.3200 H   0  0  0  0  0  0  0  0  0  0  0  0
   -4.1189    4.6526    1.9140 H   0  0  0  0  0  0  0  0  0  0  0  0
   -5.1279    6.5639    3.1319 H   0  0  0  0  0  0  0  0  0  0  0  0
   -5.9719    6.2555    5.4457 H   0  0  0  0  0  0  0  0  0  0  0  0
   -5.8322    4.0286    6.5355 H   0  0  0  0  0  0  0  0  0  0  0  0
   -4.8402    2.1011    5.3158 H   0  0  0  0  0  0  0  0  0  0  0  0
   -2.4389   -1.5545   -0.0885 H   0  0  0  0  0  0  0  0  0  0  0  0
   -3.2706   -3.3662    1.3772 H   0  0  0  0  0  0  0  0  0  0  0  0
   -1.8770   -4.2089    3.2466 H   0  0  0  0  0  0  0  0  0  0  0  0
    0.3854   -3.2573    3.6349 H   0  0  0  0  0  0  0  0  0  0  0  0
    1.2410   -1.4387    2.1924 H   0  0  0  0  0  0  0  0  0  0  0  0
  1  4  1  0  0  0  0
  1 32  1  0  0  0  0
  2  1  2  0  0  0  0
  3  1  2  0  0  0  0
  4  5  1  6  0  0  0
  4 23  1  0  0  0  0
  4  6  1  0  0  0  0
  6  7  2  0  0  0  0
  7  8  1  0  0  0  0
  7 39  1  0  0  0  0
  8 21  1  0  0  0  0
  8 10  1  0  0  0  0
  8  9  1  1  0  0  0
 10 11  1  0  0  0  0
 11 12  2  0  0  0  0
 13 11  1  0  0  0  0
 13 14  1  0  0  0  0
 14 41  1  0  0  0  0
 14 42  1  0  0  0  0
 15 16  1  0  0  0  0
 15 14  1  0  0  0  0
 16 43  1  0  0  0  0
 17 44  1  0  0  0  0
 17 16  2  0  0  0  0
 18 17  1  0  0  0  0
 19 18  2  0  0  0  0
 19 20  1  0  0  0  0
 20 15  2  0  0  0  0
 21 22  1  6  0  0  0
 21 24  1  0  0  0  0
 23 49  1  0  0  0  0
 23 21  1  0  0  0  0
 24 26  1  0  0  0  0
 25 24  2  0  0  0  0
 26 31  1  0  0  0  0
 27 26  2  0  0  0  0
 27 28  1  0  0  0  0
 28 29  2  0  0  0  0
 29 52  1  0  0  0  0
 29 30  1  0  0  0  0
 30 53  1  0  0  0  0
 31 54  1  0  0  0  0
 31 30  2  0  0  0  0
 32 37  1  0  0  0  0
 33 32  2  0  0  0  0
 33 34  1  0  0  0  0
 34 35  2  0  0  0  0
 35 36  1  0  0  0  0
 35 57  1  0  0  0  0
 36 58  1  0  0  0  0
 37 59  1  0  0  0  0
 37 36  2  0  0  0  0
 38  6  1  0  0  0  0
 40 10  1  0  0  0  0
 45 18  1  0  0  0  0
 46 19  1  0  0  0  0
 47 20  1  0  0  0  0
 48 23  1  0  0  0  0
 50 27  1  0  0  0  0
 51 28  1  0  0  0  0
 55 33  1  0  0  0  0
 56 34  1  0  0  0  0
M  END
$$$$
