rmsd223.gzmat
 OpenBabel08211713403D

 59 62  0  0  1  0  0  0  0  0999 V2000
    0.0000    0.0000    0.0000 S   0  0  0  0  0  0  0  0  0  0  0  0
    1.4480    0.0000    0.0000 O   0  0  0  0  0  0  0  0  0  0  0  0
   -0.7515    0.0000   -1.2350 O   0  0  0  0  0  0  0  0  0  0  0  0
   -0.4966    1.5078    0.9121 C   0  0  2  0  0  0  0  0  0  0  0  0
   -0.2820    2.3754    0.2299 H   0  0  0  0  0  0  0  0  0  0  0  0
    0.3760    1.6530    2.1120 C   0  0  0  0  0  0  0  0  0  0  0  0
   -0.0741    1.7398    3.3672 C   0  0  0  0  0  0  0  0  0  0  0  0
   -1.5451    1.6692    3.6900 C   0  0  2  0  0  0  0  0  0  0  0  0
   -1.7953    2.2584    4.6160 H   0  0  0  0  0  0  0  0  0  0  0  0
   -1.8638    0.2555    3.9283 N   0  0  0  0  0  0  0  0  0  0  0  0
   -2.8816   -0.1058    4.7689 C   0  0  0  0  0  0  0  0  0  0  0  0
   -3.6181    0.6444    5.3719 O   0  0  0  0  0  0  0  0  0  0  0  0
   -2.9108   -1.4737    4.8702 O   0  0  0  0  0  0  0  0  0  0  0  0
   -4.1765   -2.0383    5.2251 C   0  0  0  0  0  0  0  0  0  0  0  0
   -4.9042   -2.3395    3.9505 C   0  0  0  0  0  0  0  0  0  0  0  0
   -5.0697   -3.6570    3.5242 C   0  0  0  0  0  0  0  0  0  0  0  0
   -5.6892   -3.9166    2.3031 C   0  0  0  0  0  0  0  0  0  0  0  0
   -6.1348   -2.8632    1.5058 C   0  0  0  0  0  0  0  0  0  0  0  0
   -5.9781   -1.5474    1.9383 C   0  0  0  0  0  0  0  0  0  0  0  0
   -5.3735   -1.2865    3.1652 C   0  0  0  0  0  0  0  0  0  0  0  0
   -2.3193    2.2780    2.4850 C   0  0  1  0  0  0  0  0  0  0  0  0
   -1.9671    3.3345    2.3691 H   0  0  0  0  0  0  0  0  0  0  0  0
   -2.0021    1.5003    1.2048 C   0  0  0  0  0  0  0  0  0  0  0  0
   -3.8140    2.2864    2.7458 C   0  0  0  0  0  0  0  0  0  0  0  0
   -4.5492    1.5060    2.1923 O   0  0  0  0  0  0  0  0  0  0  0  0
   -4.3277    3.2983    3.6983 C   0  0  0  0  0  0  0  0  0  0  0  0
   -3.9664    4.6415    3.5857 C   0  0  0  0  0  0  0  0  0  0  0  0
   -4.4691    5.5704    4.4927 C   0  0  0  0  0  0  0  0  0  0  0  0
   -5.3269    5.1560    5.5124 C   0  0  0  0  0  0  0  0  0  0  0  0
   -5.6917    3.8160    5.6189 C   0  0  0  0  0  0  0  0  0  0  0  0
   -5.2005    2.8843    4.7047 C   0  0  0  0  0  0  0  0  0  0  0  0
   -0.5593   -1.3361    1.0014 C   0  0  0  0  0  0  0  0  0  0  0  0
   -1.8091   -1.9070    0.7683 C   0  0  0  0  0  0  0  0  0  0  0  0
   -2.2711   -2.9240    1.6014 C   0  0  0  0  0  0  0  0  0  0  0  0
   -1.4806   -3.3747    2.6568 C   0  0  0  0  0  0  0  0  0  0  0  0
   -0.2170   -2.8231    2.8683 C   0  0  0  0  0  0  0  0  0  0  0  0
    0.2484   -1.8092    2.0334 C   0  0  0  0  0  0  0  0  0  0  0  0
    1.4513    1.7155    1.8966 H   0  0  0  0  0  0  0  0  0  0  0  0
    0.5854    1.8502    4.2226 H   0  0  0  0  0  0  0  0  0  0  0  0
   -1.3500   -0.4456    3.4054 H   0  0  0  0  0  0  0  0  0  0  0  0
   -4.7431   -1.3624    5.8967 H   0  0  0  0  0  0  0  0  0  0  0  0
   -3.8725   -2.9410    5.7896 H   0  0  0  0  0  0  0  0  0  0  0  0
   -4.7170   -4.4819    4.1393 H   0  0  0  0  0  0  0  0  0  0  0  0
   -5.8238   -4.9435    1.9713 H   0  0  0  0  0  0  0  0  0  0  0  0
   -6.6087   -3.0685    0.5481 H   0  0  0  0  0  0  0  0  0  0  0  0
   -6.3207   -0.7167    1.3207 H   0  0  0  0  0  0  0  0  0  0  0  0
   -5.2603   -0.2541    3.5047 H   0  0  0  0  0  0  0  0  0  0  0  0
   -2.5628    1.9346    0.3489 H   0  0  0  0  0  0  0  0  0  0  0  0
   -2.4261    0.4777    1.3074 H   0  0  0  0  0  0  0  0  0  0  0  0
   -3.3051    4.9720    2.7874 H   0  0  0  0  0  0  0  0  0  0  0  0
   -4.1940    6.6194    4.4062 H   0  0  0  0  0  0  0  0  0  0  0  0
   -5.7123    5.8841    6.2241 H   0  0  0  0  0  0  0  0  0  0  0  0
   -6.3603    3.4909    6.4138 H   0  0  0  0  0  0  0  0  0  0  0  0
   -5.4885    1.8317    4.7819 H   0  0  0  0  0  0  0  0  0  0  0  0
   -2.4387   -1.5725   -0.0655 H   0  0  0  0  0  0  0  0  0  0  0  0
   -3.2586   -3.3581    1.4352 H   0  0  0  0  0  0  0  0  0  0  0  0
   -1.8518   -4.1570    3.3184 H   0  0  0  0  0  0  0  0  0  0  0  0
    0.4055   -3.1858    3.6839 H   0  0  0  0  0  0  0  0  0  0  0  0
    1.2531   -1.4032    2.1941 H   0  0  0  0  0  0  0  0  0  0  0  0
  1  4  1  0  0  0  0
  1 32  1  0  0  0  0
  2  1  2  0  0  0  0
  3  1  2  0  0  0  0
  4  5  1  6  0  0  0
  4 23  1  0  0  0  0
  4  6  1  0  0  0  0
  6  7  2  0  0  0  0
  7  8  1  0  0  0  0
  7 39  1  0  0  0  0
  8 21  1  0  0  0  0
  8 10  1  0  0  0  0
  8  9  1  1  0  0  0
 10 11  1  0  0  0  0
 11 13  1  0  0  0  0
 11 12  2  0  0  0  0
 13 14  1  0  0  0  0
 14 42  1  0  0  0  0
 14 41  1  0  0  0  0
 15 14  1  0  0  0  0
 16 15  1  0  0  0  0
 16 43  1  0  0  0  0
 17 16  2  0  0  0  0
 18 19  2  0  0  0  0
 18 17  1  0  0  0  0
 19 20  1  0  0  0  0
 20 47  1  0  0  0  0
 20 15  2  0  0  0  0
 21 22  1  6  0  0  0
 21 24  1  0  0  0  0
 23 49  1  0  0  0  0
 23 21  1  0  0  0  0
 24 26  1  0  0  0  0
 25 24  2  0  0  0  0
 26 31  1  0  0  0  0
 27 26  2  0  0  0  0
 27 28  1  0  0  0  0
 28 29  2  0  0  0  0
 29 30  1  0  0  0  0
 29 52  1  0  0  0  0
 30 53  1  0  0  0  0
 31 54  1  0  0  0  0
 31 30  2  0  0  0  0
 32 37  1  0  0  0  0
 33 32  2  0  0  0  0
 33 34  1  0  0  0  0
 34 35  2  0  0  0  0
 35 36  1  0  0  0  0
 35 57  1  0  0  0  0
 36 58  1  0  0  0  0
 37 59  1  0  0  0  0
 37 36  2  0  0  0  0
 38  6  1  0  0  0  0
 40 10  1  0  0  0  0
 44 17  1  0  0  0  0
 45 18  1  0  0  0  0
 46 19  1  0  0  0  0
 48 23  1  0  0  0  0
 50 27  1  0  0  0  0
 51 28  1  0  0  0  0
 55 33  1  0  0  0  0
 56 34  1  0  0  0  0
M  END
$$$$
