59

S          0.16470       -0.11490       -0.13080
O          1.62750       -0.24210       -0.03950
O         -0.52710       -0.15230       -1.42850
C         -0.28820        1.49770        0.67090
H          0.18840        2.18780       -0.04680
C          0.39510        1.57600        1.99870
C         -0.26690        1.70640        3.15230
C         -1.76970        1.84910        3.22300
H         -2.01000        2.52660        4.05350
N         -2.42710        0.58760        3.55450
C         -2.44400        0.15370        4.84170
O         -2.02010        0.78690        5.79010
O         -3.00840       -1.07320        4.92760
C         -2.95600       -1.71620        6.21370
C         -1.70120       -2.54130        6.35620
C         -0.46950       -1.92200        6.62400
C          0.70180       -2.67920        6.68650
C          0.65820       -4.06340        6.48780
C         -0.56540       -4.68920        6.23390
C         -1.73680       -3.92940        6.17030
C         -2.32490        2.43080        1.90300
H         -1.96780        3.47000        1.84850
C         -1.81350        1.65230        0.68830
C         -3.85470        2.41790        1.94440
O         -4.47590        1.58480        1.31110
C         -4.56540        3.40440        2.81670
C         -5.94860        3.23260        3.00090
C         -6.67000        4.11090        3.80510
C         -6.01860        5.17820        4.43440
C         -4.64530        5.36240        4.25430
C         -3.92110        4.48020        3.45050
C         -0.58470       -1.34230        0.94420
C          0.09220       -1.74620        2.09850
C         -0.53290       -2.64050        2.96900
C         -1.81250       -3.12160        2.67500
C         -2.46910       -2.72780        1.50530
C         -1.85350       -1.83380        0.62550
H          1.48280        1.47220        1.98320
H          0.26690        1.70010        4.10610
H         -2.64400       -0.08330        2.82400
H         -3.84920       -2.35340        6.25290
H         -3.01780       -0.94670        6.99490
H         -0.44180       -0.84030        6.76760
H          1.65540       -2.18720        6.89300
H          1.57610       -4.65400        6.53540
H         -0.60750       -5.77050        6.08330
H         -2.69300       -4.42070        5.96940
H         -2.15210        2.12770       -0.24120
H         -2.30570        0.67150        0.69380
H         -6.43190        2.39380        2.49760
H         -7.74380        3.96670        3.94500
H         -6.58320        5.86820        5.06610
H         -4.13530        6.19630        4.74140
H         -2.85130        4.64470        3.31740
H          1.09310       -1.36440        2.29990
H         -0.02900       -2.95850        3.88260
H         -2.29870       -3.80760        3.36960
H         -3.46350       -3.11630        1.27520
H         -2.33520       -1.51820       -0.30110
