rmsd201.gzmat
 OpenBabel08211713403D

 59 62  0  0  1  0  0  0  0  0999 V2000
    0.0000    0.0000    0.0000 S   0  0  0  0  0  0  0  0  0  0  0  0
    1.4476    0.0000    0.0000 O   0  0  0  0  0  0  0  0  0  0  0  0
   -0.7517    0.0000   -1.2349 O   0  0  0  0  0  0  0  0  0  0  0  0
   -0.5009    1.5015    0.9219 C   0  0  2  0  0  0  0  0  0  0  0  0
   -0.1777    2.3823    0.3053 H   0  0  0  0  0  0  0  0  0  0  0  0
    0.2697    1.5245    2.1958 C   0  0  0  0  0  0  0  0  0  0  0  0
   -0.2848    1.5507    3.4091 C   0  0  0  0  0  0  0  0  0  0  0  0
   -1.7743    1.5913    3.6149 C   0  0  2  0  0  0  0  0  0  0  0  0
   -2.0169    2.2040    4.5337 H   0  0  0  0  0  0  0  0  0  0  0  0
   -2.2945    0.2297    3.8211 N   0  0  0  0  0  0  0  0  0  0  0  0
   -2.3674   -0.2576    5.1019 C   0  0  0  0  0  0  0  0  0  0  0  0
   -2.1638    0.3682    6.1196 O   0  0  0  0  0  0  0  0  0  0  0  0
   -2.7782   -1.5654    5.0648 O   0  0  0  0  0  0  0  0  0  0  0  0
   -2.5839   -2.2984    6.2776 C   0  0  0  0  0  0  0  0  0  0  0  0
   -1.2007   -2.8751    6.2490 C   0  0  0  0  0  0  0  0  0  0  0  0
   -0.1014   -2.0415    6.4631 C   0  0  0  0  0  0  0  0  0  0  0  0
    1.1889   -2.5551    6.3650 C   0  0  0  0  0  0  0  0  0  0  0  0
    1.3820   -3.9045    6.0710 C   0  0  0  0  0  0  0  0  0  0  0  0
    0.2839   -4.7416    5.8806 C   0  0  0  0  0  0  0  0  0  0  0  0
   -1.0089   -4.2281    5.9674 C   0  0  0  0  0  0  0  0  0  0  0  0
   -2.4518    2.2411    2.3826 C   0  0  1  0  0  0  0  0  0  0  0  0
   -2.1427    3.3166    2.3562 H   0  0  0  0  0  0  0  0  0  0  0  0
   -2.0246    1.5612    1.0776 C   0  0  0  0  0  0  0  0  0  0  0  0
   -3.9632    2.1707    2.5441 C   0  0  0  0  0  0  0  0  0  0  0  0
   -4.6547    1.5498    1.7799 O   0  0  0  0  0  0  0  0  0  0  0  0
   -4.5183    2.9038    3.7083 C   0  0  0  0  0  0  0  0  0  0  0  0
   -4.5341    4.2972    3.7175 C   0  0  0  0  0  0  0  0  0  0  0  0
   -5.0412    4.9692    4.8276 C   0  0  0  0  0  0  0  0  0  0  0  0
   -5.5236    4.2489    5.9201 C   0  0  0  0  0  0  0  0  0  0  0  0
   -5.5127    2.8552    5.9008 C   0  0  0  0  0  0  0  0  0  0  0  0
   -5.0164    2.1779    4.7886 C   0  0  0  0  0  0  0  0  0  0  0  0
   -0.5629   -1.3347    1.0018 C   0  0  0  0  0  0  0  0  0  0  0  0
   -1.8257   -1.8834    0.7868 C   0  0  0  0  0  0  0  0  0  0  0  0
   -2.2919   -2.8973    1.6210 C   0  0  0  0  0  0  0  0  0  0  0  0
   -1.4837   -3.3777    2.6502 C   0  0  0  0  0  0  0  0  0  0  0  0
   -0.2076   -2.8511    2.8408 C   0  0  0  0  0  0  0  0  0  0  0  0
    0.2555   -1.8288    2.0153 C   0  0  0  0  0  0  0  0  0  0  0  0
    1.3613    1.5345    2.0782 H   0  0  0  0  0  0  0  0  0  0  0  0
    0.3039    1.5451    4.3234 H   0  0  0  0  0  0  0  0  0  0  0  0
   -2.3431   -0.3941    3.0237 H   0  0  0  0  0  0  0  0  0  0  0  0
   -3.3867   -3.0589    6.2091 H   0  0  0  0  0  0  0  0  0  0  0  0
   -2.7624   -1.6547    7.1630 H   0  0  0  0  0  0  0  0  0  0  0  0
   -0.2554   -0.9870    6.7054 H   0  0  0  0  0  0  0  0  0  0  0  0
    2.0461   -1.9024    6.5206 H   0  0  0  0  0  0  0  0  0  0  0  0
    2.3910   -4.3054    5.9950 H   0  0  0  0  0  0  0  0  0  0  0  0
    0.4352   -5.7972    5.6626 H   0  0  0  0  0  0  0  0  0  0  0  0
   -1.8645   -4.8832    5.8146 H   0  0  0  0  0  0  0  0  0  0  0  0
   -2.4733    2.1020    0.2142 H   0  0  0  0  0  0  0  0  0  0  0  0
   -2.5050    0.5608    1.0258 H   0  0  0  0  0  0  0  0  0  0  0  0
   -4.1631    4.8587    2.8624 H   0  0  0  0  0  0  0  0  0  0  0  0
   -5.0602    6.0568    4.8421 H   0  0  0  0  0  0  0  0  0  0  0  0
   -5.9107    4.7771    6.7896 H   0  0  0  0  0  0  0  0  0  0  0  0
   -5.8872    2.2933    6.7547 H   0  0  0  0  0  0  0  0  0  0  0  0
   -5.0101    1.0871    4.7667 H   0  0  0  0  0  0  0  0  0  0  0  0
   -2.4590   -1.5394   -0.0404 H   0  0  0  0  0  0  0  0  0  0  0  0
   -3.2846   -3.3170    1.4662 H   0  0  0  0  0  0  0  0  0  0  0  0
   -1.8487   -4.1644    3.3101 H   0  0  0  0  0  0  0  0  0  0  0  0
    0.4242   -3.2340    3.6432 H   0  0  0  0  0  0  0  0  0  0  0  0
    1.2642   -1.4319    2.1727 H   0  0  0  0  0  0  0  0  0  0  0  0
  1  4  1  0  0  0  0
  1 32  1  0  0  0  0
  2  1  2  0  0  0  0
  3  1  2  0  0  0  0
  4  5  1  6  0  0  0
  4 23  1  0  0  0  0
  4  6  1  0  0  0  0
  6  7  2  0  0  0  0
  7  8  1  0  0  0  0
  7 39  1  0  0  0  0
  8 21  1  0  0  0  0
  8 10  1  0  0  0  0
  8  9  1  1  0  0  0
 10 11  1  0  0  0  0
 11 12  2  0  0  0  0
 13 11  1  0  0  0  0
 13 14  1  0  0  0  0
 14 42  1  0  0  0  0
 15 14  1  0  0  0  0
 15 16  2  0  0  0  0
 16 43  1  0  0  0  0
 17 16  1  0  0  0  0
 17 44  1  0  0  0  0
 18 17  2  0  0  0  0
 19 20  2  0  0  0  0
 19 18  1  0  0  0  0
 20 15  1  0  0  0  0
 21 22  1  6  0  0  0
 21 24  1  0  0  0  0
 23 21  1  0  0  0  0
 24 26  1  0  0  0  0
 25 24  2  0  0  0  0
 26 27  2  0  0  0  0
 26 31  1  0  0  0  0
 27 28  1  0  0  0  0
 28 51  1  0  0  0  0
 28 29  2  0  0  0  0
 29 52  1  0  0  0  0
 30 29  1  0  0  0  0
 30 53  1  0  0  0  0
 31 30  2  0  0  0  0
 32 37  1  0  0  0  0
 33 32  2  0  0  0  0
 33 34  1  0  0  0  0
 34 35  2  0  0  0  0
 35 36  1  0  0  0  0
 35 57  1  0  0  0  0
 36 58  1  0  0  0  0
 37 59  1  0  0  0  0
 37 36  2  0  0  0  0
 38  6  1  0  0  0  0
 40 10  1  0  0  0  0
 41 14  1  0  0  0  0
 45 18  1  0  0  0  0
 46 19  1  0  0  0  0
 47 20  1  0  0  0  0
 48 23  1  0  0  0  0
 49 23  1  0  0  0  0
 50 27  1  0  0  0  0
 54 31  1  0  0  0  0
 55 33  1  0  0  0  0
 56 34  1  0  0  0  0
M  END
$$$$
