rmsd174.gzmat
 OpenBabel08211713403D

 59 62  0  0  1  0  0  0  0  0999 V2000
    0.0000    0.0000    0.0000 S   0  0  0  0  0  0  0  0  0  0  0  0
    1.4480    0.0000    0.0000 O   0  0  0  0  0  0  0  0  0  0  0  0
   -0.7493    0.0000   -1.2363 O   0  0  0  0  0  0  0  0  0  0  0  0
   -0.4959    1.5079    0.9114 C   0  0  2  0  0  0  0  0  0  0  0  0
   -0.3091    2.3719    0.2166 H   0  0  0  0  0  0  0  0  0  0  0  0
    0.4030    1.6734    2.0890 C   0  0  0  0  0  0  0  0  0  0  0  0
   -0.0185    1.7775    3.3529 C   0  0  0  0  0  0  0  0  0  0  0  0
   -1.4810    1.7109    3.7106 C   0  0  2  0  0  0  0  0  0  0  0  0
   -1.7117    2.3183    4.6304 H   0  0  0  0  0  0  0  0  0  0  0  0
   -1.7930    0.3019    3.9855 N   0  0  0  0  0  0  0  0  0  0  0  0
   -2.8021   -0.0415    4.8437 C   0  0  0  0  0  0  0  0  0  0  0  0
   -3.5446    0.7189    5.4257 O   0  0  0  0  0  0  0  0  0  0  0  0
   -2.8261   -1.4074    4.9806 O   0  0  0  0  0  0  0  0  0  0  0  0
   -4.1004   -1.9638    5.3159 C   0  0  0  0  0  0  0  0  0  0  0  0
   -4.7986   -2.2900    4.0304 C   0  0  0  0  0  0  0  0  0  0  0  0
   -4.9944   -3.6160    3.6453 C   0  0  0  0  0  0  0  0  0  0  0  0
   -5.5859   -3.8992    2.4152 C   0  0  0  0  0  0  0  0  0  0  0  0
   -5.9722   -2.8619    1.5677 C   0  0  0  0  0  0  0  0  0  0  0  0
   -5.7870   -1.5368    1.9590 C   0  0  0  0  0  0  0  0  0  0  0  0
   -5.2110   -1.2522    3.1940 C   0  0  0  0  0  0  0  0  0  0  0  0
   -2.2864    2.2908    2.5122 C   0  0  1  0  0  0  0  0  0  0  0  0
   -1.9437    3.3466    2.3623 H   0  0  0  0  0  0  0  0  0  0  0  0
   -1.9938    1.4865    1.2422 C   0  0  0  0  0  0  0  0  0  0  0  0
   -3.7751    2.3092    2.8041 C   0  0  0  0  0  0  0  0  0  0  0  0
   -4.5407    1.6300    2.1629 O   0  0  0  0  0  0  0  0  0  0  0  0
   -4.2490    3.1889    3.8962 C   0  0  0  0  0  0  0  0  0  0  0  0
   -5.2365    2.6995    4.7534 C   0  0  0  0  0  0  0  0  0  0  0  0
   -5.6937    3.4910    5.8063 C   0  0  0  0  0  0  0  0  0  0  0  0
   -5.1734    4.7690    5.9924 C   0  0  0  0  0  0  0  0  0  0  0  0
   -4.1982    5.2630    5.1247 C   0  0  0  0  0  0  0  0  0  0  0  0
   -3.7349    4.4737    4.0758 C   0  0  0  0  0  0  0  0  0  0  0  0
   -0.5614   -1.3382    0.9978 C   0  0  0  0  0  0  0  0  0  0  0  0
    0.2250   -1.7925    2.0550 C   0  0  0  0  0  0  0  0  0  0  0  0
   -0.2448   -2.8132    2.8790 C   0  0  0  0  0  0  0  0  0  0  0  0
   -1.4908   -3.3895    2.6326 C   0  0  0  0  0  0  0  0  0  0  0  0
   -2.2589   -2.9562    1.5538 C   0  0  0  0  0  0  0  0  0  0  0  0
   -1.7929   -1.9328    0.7311 C   0  0  0  0  0  0  0  0  0  0  0  0
    1.4735    1.7344    1.8491 H   0  0  0  0  0  0  0  0  0  0  0  0
    0.6604    1.8998    4.1913 H   0  0  0  0  0  0  0  0  0  0  0  0
   -1.2688   -0.4114    3.4904 H   0  0  0  0  0  0  0  0  0  0  0  0
   -4.6817   -1.2718    5.9588 H   0  0  0  0  0  0  0  0  0  0  0  0
   -3.8122   -2.8551    5.9065 H   0  0  0  0  0  0  0  0  0  0  0  0
   -4.6868   -4.4291    4.2990 H   0  0  0  0  0  0  0  0  0  0  0  0
   -5.7434   -4.9328    2.1145 H   0  0  0  0  0  0  0  0  0  0  0  0
   -6.4226   -3.0860    0.6029 H   0  0  0  0  0  0  0  0  0  0  0  0
   -6.0859   -0.7176    1.3037 H   0  0  0  0  0  0  0  0  0  0  0  0
   -5.0771   -0.2124    3.5006 H   0  0  0  0  0  0  0  0  0  0  0  0
   -2.5840    1.8941    0.3925 H   0  0  0  0  0  0  0  0  0  0  0  0
   -2.3993    0.4610    1.3795 H   0  0  0  0  0  0  0  0  0  0  0  0
   -5.6375    1.6937    4.6062 H   0  0  0  0  0  0  0  0  0  0  0  0
   -6.4531    3.1046    6.4831 H   0  0  0  0  0  0  0  0  0  0  0  0
   -5.5269    5.3843    6.8178 H   0  0  0  0  0  0  0  0  0  0  0  0
   -3.7984    6.2639    5.2696 H   0  0  0  0  0  0  0  0  0  0  0  0
   -2.9813    4.8689    3.3981 H   0  0  0  0  0  0  0  0  0  0  0  0
    1.2166   -1.3664    2.2415 H   0  0  0  0  0  0  0  0  0  0  0  0
    0.3607   -3.1638    3.7126 H   0  0  0  0  0  0  0  0  0  0  0  0
   -1.8653   -4.1785    3.2842 H   0  0  0  0  0  0  0  0  0  0  0  0
   -3.2324   -3.4088    1.3597 H   0  0  0  0  0  0  0  0  0  0  0  0
   -2.4039   -1.6123   -0.1221 H   0  0  0  0  0  0  0  0  0  0  0  0
  1  2  2  0  0  0  0
  1  4  1  0  0  0  0
  1 32  1  0  0  0  0
  3  1  2  0  0  0  0
  4  5  1  6  0  0  0
  4 23  1  0  0  0  0
  4  6  1  0  0  0  0
  6  7  2  0  0  0  0
  7  8  1  0  0  0  0
  7 39  1  0  0  0  0
  8 21  1  0  0  0  0
  8 10  1  0  0  0  0
  8  9  1  1  0  0  0
 10 11  1  0  0  0  0
 11 13  1  0  0  0  0
 11 12  2  0  0  0  0
 13 14  1  0  0  0  0
 14 42  1  0  0  0  0
 14 41  1  0  0  0  0
 15 14  1  0  0  0  0
 16 15  1  0  0  0  0
 16 43  1  0  0  0  0
 17 16  2  0  0  0  0
 18 19  2  0  0  0  0
 18 17  1  0  0  0  0
 19 20  1  0  0  0  0
 20 47  1  0  0  0  0
 20 15  2  0  0  0  0
 21 22  1  6  0  0  0
 21 24  1  0  0  0  0
 23 49  1  0  0  0  0
 23 21  1  0  0  0  0
 24 26  1  0  0  0  0
 25 24  2  0  0  0  0
 26 31  2  0  0  0  0
 26 27  1  0  0  0  0
 27 28  2  0  0  0  0
 28 29  1  0  0  0  0
 28 51  1  0  0  0  0
 29 52  1  0  0  0  0
 30 53  1  0  0  0  0
 30 29  2  0  0  0  0
 31 30  1  0  0  0  0
 32 33  1  0  0  0  0
 33 55  1  0  0  0  0
 33 34  2  0  0  0  0
 34 56  1  0  0  0  0
 35 34  1  0  0  0  0
 35 57  1  0  0  0  0
 36 35  2  0  0  0  0
 37 32  2  0  0  0  0
 37 36  1  0  0  0  0
 38  6  1  0  0  0  0
 40 10  1  0  0  0  0
 44 17  1  0  0  0  0
 45 18  1  0  0  0  0
 46 19  1  0  0  0  0
 48 23  1  0  0  0  0
 50 27  1  0  0  0  0
 54 31  1  0  0  0  0
 58 36  1  0  0  0  0
 59 37  1  0  0  0  0
M  END
$$$$
