59
rmsd96.gzmat
S          0.00000        0.00000        0.00000
O          1.44790        0.00000        0.00000
O         -0.75040        0.00000       -1.23620
C         -0.49690        1.51000        0.90760
H         -0.33670        2.36900        0.19970
C          0.42420        1.70350        2.06380
C          0.02710        1.82650        3.33380
C         -1.42650        1.74480        3.72350
H         -1.64690        2.36600        4.63640
N         -1.70950        0.33650        4.03000
C         -2.66900       -0.00680        4.94330
O         -3.39580        0.75270        5.54630
O         -2.65500       -1.36830        5.11280
C         -3.89410       -1.94550        5.53390
C         -4.63800       -2.34650        4.29620
C         -4.78080       -3.69280        3.96080
C         -5.41830       -4.04640        2.77310
C         -5.90140       -3.05760        1.91680
C         -5.76640       -1.71290        2.25780
C         -5.14540       -1.35790        3.45250
C         -2.26570        2.29110        2.53250
H         -1.94260        3.34940        2.36060
C         -1.98690        1.47160        1.26970
C         -3.74690        2.28180        2.86090
O         -4.49610        1.48650        2.34840
C         -4.22810        3.29320        3.83020
C         -3.85260        4.63310        3.72330
C         -4.31620        5.55740        4.65540
C         -5.15440        5.14260        5.69140
C         -5.53800        3.80730        5.78930
C         -5.08010        2.87920        4.85450
C         -0.56130       -1.33840        0.99690
C         -1.79700       -1.92670        0.73540
C         -2.26200       -2.95220        1.55600
C         -1.48830       -3.39330        2.62760
C         -0.23900       -2.82220        2.86930
C          0.22940       -1.79900        2.04750
H          1.48880        1.77160        1.80140
H          0.72120        1.97550        4.15530
H         -1.19680       -0.37730        3.52390
H         -4.46710       -1.24380        6.17370
H         -3.55200       -2.80150        6.14700
H         -4.39610       -4.46710        4.62110
H         -5.53840       -5.09600        2.51350
H         -6.38920       -3.33620        0.98500
H         -6.13960       -0.93240        1.59420
H         -5.05020       -0.30270        3.71970
H         -2.59950        1.85670        0.42560
H         -2.37410        0.44250        1.43390
H         -3.21020        4.96420        2.91010
H         -4.02610        6.60270        4.57550
H         -5.51100        5.86640        6.42210
H         -6.19270        3.48270        6.59580
H         -5.37570        1.82890        4.92960
H         -2.41230       -1.60040       -0.11220
H         -3.23820       -3.40130        1.36780
H         -1.86250       -4.18360        3.27780
H          0.37020       -3.17880        3.69770
H          1.22340       -1.37740        2.23180
