37

S         -0.11400       -0.19900        0.08890
N          1.56280        0.05410        0.09390
C          2.01630        0.16610        1.31380
N          3.35950        0.40370        1.55740
N          4.23460        0.41140        0.48330
C          4.55820        1.66060       -0.07930
C          5.08770        1.70110       -1.38030
C          5.47440        2.91540       -1.94470
C          5.34080        4.10900       -1.22770
C          4.81080        4.06690        0.06440
C          4.42080        2.85670        0.64090
C          1.04100        0.04030        2.38630
C         -0.23930       -0.18770        1.83340
C         -1.35830       -0.34770        2.66500
C         -1.17730       -0.27040        4.03970
C          0.09470       -0.02500        4.61120
C          1.20050        0.12660        3.77950
C          0.23620        0.04320        6.11920
C         -0.09720       -1.30220        6.73580
O         -1.20980       -1.67210        7.02120
O          1.00000       -2.06420        6.87640
C          0.78610       -3.38680        7.37210
H          3.73790       -0.03240        2.39320
H          3.97580       -0.28090       -0.21990
H          5.19210        0.77230       -1.94790
H          5.88060        2.92840       -2.95940
H          5.64250        5.05930       -1.67300
H          4.69420        4.99100        0.63670
H          4.00060        2.82550        1.64620
H         -2.35020       -0.52820        2.24590
H         -2.03170       -0.40840        4.70630
H          2.18410        0.32440        4.21290
H         -0.47010        0.77550        6.53740
H          1.25880        0.33270        6.39400
H          1.77470       -3.85860        7.42220
H          0.12510       -3.95150        6.69760
H          0.32310       -3.35930        8.36980
