rmsd159.gzmat
 OpenBabel08211713383D

 37 39  0  0  0  0  0  0  0  0999 V2000
    0.0000    0.0000    0.0000 S   0  0  0  0  0  0  0  0  0  0  0  0
    1.7540    0.0000    0.0000 N   0  0  0  0  0  0  0  0  0  0  0  0
    2.2048    0.0000    1.2318 C   0  0  0  0  0  0  0  0  0  0  0  0
    3.5803   -0.1260    1.5361 N   0  0  0  0  0  0  0  0  0  0  0  0
    4.5128    0.2346    0.5448 N   0  0  0  0  0  0  0  0  0  0  0  0
    4.5100    1.5995    0.1006 C   0  0  0  0  0  0  0  0  0  0  0  0
    4.1998    2.6556    0.9663 C   0  0  0  0  0  0  0  0  0  0  0  0
    4.3448    3.9678    0.5241 C   0  0  0  0  0  0  0  0  0  0  0  0
    4.7964    4.2342   -0.7663 C   0  0  0  0  0  0  0  0  0  0  0  0
    5.1035    3.1790   -1.6255 C   0  0  0  0  0  0  0  0  0  0  0  0
    4.9593    1.8627   -1.2033 C   0  0  0  0  0  0  0  0  0  0  0  0
    1.1934    0.0048    2.3013 C   0  0  0  0  0  0  0  0  0  0  0  0
   -0.1056    0.0148    1.7550 C   0  0  0  0  0  0  0  0  0  0  0  0
   -1.2229    0.0447    2.5815 C   0  0  0  0  0  0  0  0  0  0  0  0
   -1.0283    0.0729    3.9583 C   0  0  0  0  0  0  0  0  0  0  0  0
    0.2640    0.0601    4.5060 C   0  0  0  0  0  0  0  0  0  0  0  0
    1.3835    0.0146    3.6780 C   0  0  0  0  0  0  0  0  0  0  0  0
    0.4474    0.0933    5.9908 C   0  0  0  0  0  0  0  0  0  0  0  0
    1.3301    1.2486    6.3781 C   0  0  0  0  0  0  0  0  0  0  0  0
    2.3791    1.5741    5.8881 O   0  0  0  0  0  0  0  0  0  0  0  0
    0.7725    1.9023    7.4274 O   0  0  0  0  0  0  0  0  0  0  0  0
    1.4824    3.0399    7.9082 C   0  0  0  0  0  0  0  0  0  0  0  0
    3.8527    0.2908    2.4371 H   0  0  0  0  0  0  0  0  0  0  0  0
    4.4214   -0.4419   -0.2329 H   0  0  0  0  0  0  0  0  0  0  0  0
    3.8496    2.4693    1.9774 H   0  0  0  0  0  0  0  0  0  0  0  0
    4.1032    4.7906    1.1963 H   0  0  0  0  0  0  0  0  0  0  0  0
    4.9065    5.2607   -1.1046 H   0  0  0  0  0  0  0  0  0  0  0  0
    5.4523    3.3863   -2.6368 H   0  0  0  0  0  0  0  0  0  0  0  0
    5.1868    1.0441   -1.8820 H   0  0  0  0  0  0  0  0  0  0  0  0
   -2.2307    0.0510    2.1694 H   0  0  0  0  0  0  0  0  0  0  0  0
   -1.8932    0.1086    4.6210 H   0  0  0  0  0  0  0  0  0  0  0  0
    2.3879   -0.0005    4.1075 H   0  0  0  0  0  0  0  0  0  0  0  0
    0.9184   -0.8548    6.3450 H   0  0  0  0  0  0  0  0  0  0  0  0
   -0.5271    0.1470    6.5275 H   0  0  0  0  0  0  0  0  0  0  0  0
    0.9035    3.3382    8.7897 H   0  0  0  0  0  0  0  0  0  0  0  0
    1.4821    3.8245    7.1443 H   0  0  0  0  0  0  0  0  0  0  0  0
    2.5089    2.7681    8.1775 H   0  0  0  0  0  0  0  0  0  0  0  0
  1 13  1  0  0  0  0
  2  1  1  0  0  0  0
  2  3  2  0  0  0  0
  3  4  1  0  0  0  0
  3 12  1  0  0  0  0
  4 23  1  0  0  0  0
  5  4  1  0  0  0  0
  6  5  1  0  0  0  0
  6  7  2  0  0  0  0
  7 25  1  0  0  0  0
  8  7  1  0  0  0  0
  8 26  1  0  0  0  0
  9  8  2  0  0  0  0
 10 11  2  0  0  0  0
 10  9  1  0  0  0  0
 11  6  1  0  0  0  0
 12 17  1  0  0  0  0
 13 12  2  0  0  0  0
 13 14  1  0  0  0  0
 14 15  2  0  0  0  0
 15 16  1  0  0  0  0
 15 31  1  0  0  0  0
 16 18  1  0  0  0  0
 17 32  1  0  0  0  0
 17 16  2  0  0  0  0
 18 33  1  0  0  0  0
 18 19  1  0  0  0  0
 18 34  1  0  0  0  0
 19 21  1  0  0  0  0
 20 19  2  0  0  0  0
 21 22  1  0  0  0  0
 22 37  1  0  0  0  0
 22 35  1  0  0  0  0
 24  5  1  0  0  0  0
 27  9  1  0  0  0  0
 28 10  1  0  0  0  0
 29 11  1  0  0  0  0
 30 14  1  0  0  0  0
 36 22  1  0  0  0  0
M  END
$$$$
