rmsd134.gzmat
 OpenBabel08211713383D

 37 39  0  0  0  0  0  0  0  0999 V2000
    0.0000    0.0000    0.0000 S   0  0  0  0  0  0  0  0  0  0  0  0
    1.7524    0.0000    0.0000 N   0  0  0  0  0  0  0  0  0  0  0  0
    2.2052    0.0000    1.2312 C   0  0  0  0  0  0  0  0  0  0  0  0
    3.5826   -0.1286    1.5298 N   0  0  0  0  0  0  0  0  0  0  0  0
    4.5140    0.1291    0.5063 N   0  0  0  0  0  0  0  0  0  0  0  0
    4.5433    1.4443   -0.0657 C   0  0  0  0  0  0  0  0  0  0  0  0
    4.0977    2.5768    0.6254 C   0  0  0  0  0  0  0  0  0  0  0  0
    4.2752    3.8373    0.0596 C   0  0  0  0  0  0  0  0  0  0  0  0
    4.8951    3.9770   -1.1794 C   0  0  0  0  0  0  0  0  0  0  0  0
    5.3409    2.8451   -1.8630 C   0  0  0  0  0  0  0  0  0  0  0  0
    5.1648    1.5795   -1.3181 C   0  0  0  0  0  0  0  0  0  0  0  0
    1.1956   -0.0021    2.3026 C   0  0  0  0  0  0  0  0  0  0  0  0
   -0.1021    0.0067    1.7539 C   0  0  0  0  0  0  0  0  0  0  0  0
   -1.2246    0.0185    2.5764 C   0  0  0  0  0  0  0  0  0  0  0  0
   -1.0345    0.0122    3.9515 C   0  0  0  0  0  0  0  0  0  0  0  0
    0.2582   -0.0134    4.5043 C   0  0  0  0  0  0  0  0  0  0  0  0
    1.3811   -0.0182    3.6829 C   0  0  0  0  0  0  0  0  0  0  0  0
    0.4166   -0.0282    5.9929 C   0  0  0  0  0  0  0  0  0  0  0  0
    0.0164    1.3201    6.5306 C   0  0  0  0  0  0  0  0  0  0  0  0
   -1.0942    1.7038    6.7832 O   0  0  0  0  0  0  0  0  0  0  0  0
    1.1232    2.0844    6.6996 O   0  0  0  0  0  0  0  0  0  0  0  0
    0.9012    3.4194    7.1443 C   0  0  0  0  0  0  0  0  0  0  0  0
    3.8769    0.3525    2.3893 H   0  0  0  0  0  0  0  0  0  0  0  0
    4.4089   -0.6138   -0.2072 H   0  0  0  0  0  0  0  0  0  0  0  0
    3.6084    2.4908    1.5899 H   0  0  0  0  0  0  0  0  0  0  0  0
    3.9210    4.7190    0.5934 H   0  0  0  0  0  0  0  0  0  0  0  0
    5.0273    4.9634   -1.6159 H   0  0  0  0  0  0  0  0  0  0  0  0
    5.8241    2.9531   -2.8339 H   0  0  0  0  0  0  0  0  0  0  0  0
    5.5054    0.6998   -1.8589 H   0  0  0  0  0  0  0  0  0  0  0  0
   -2.2314    0.0339    2.1606 H   0  0  0  0  0  0  0  0  0  0  0  0
   -1.8977    0.0380    4.6217 H   0  0  0  0  0  0  0  0  0  0  0  0
    2.3826   -0.0401    4.1093 H   0  0  0  0  0  0  0  0  0  0  0  0
    1.4564   -0.2833    6.2971 H   0  0  0  0  0  0  0  0  0  0  0  0
   -0.2289   -0.8119    6.4532 H   0  0  0  0  0  0  0  0  0  0  0  0
    1.9114    3.8454    7.1565 H   0  0  0  0  0  0  0  0  0  0  0  0
    0.4552    3.4135    8.1441 H   0  0  0  0  0  0  0  0  0  0  0  0
    0.2529    3.9512    6.4394 H   0  0  0  0  0  0  0  0  0  0  0  0
  1  2  1  0  0  0  0
  1 13  1  0  0  0  0
  2  3  2  0  0  0  0
  3  4  1  0  0  0  0
  3 12  1  0  0  0  0
  4 23  1  0  0  0  0
  5  4  1  0  0  0  0
  6  5  1  0  0  0  0
  6  7  2  0  0  0  0
  7 25  1  0  0  0  0
  8 26  1  0  0  0  0
  8  7  1  0  0  0  0
  9  8  2  0  0  0  0
 10 11  2  0  0  0  0
 10  9  1  0  0  0  0
 11  6  1  0  0  0  0
 12 17  1  0  0  0  0
 13 12  2  0  0  0  0
 13 14  1  0  0  0  0
 14 15  2  0  0  0  0
 15 16  1  0  0  0  0
 15 31  1  0  0  0  0
 16 18  1  0  0  0  0
 17 32  1  0  0  0  0
 17 16  2  0  0  0  0
 18 33  1  0  0  0  0
 18 34  1  0  0  0  0
 18 19  1  0  0  0  0
 19 21  1  0  0  0  0
 19 20  2  0  0  0  0
 21 22  1  0  0  0  0
 22 35  1  0  0  0  0
 22 36  1  0  0  0  0
 24  5  1  0  0  0  0
 27  9  1  0  0  0  0
 28 10  1  0  0  0  0
 29 11  1  0  0  0  0
 30 14  1  0  0  0  0
 37 22  1  0  0  0  0
M  END
$$$$
