rmsd98.gzmat
 OpenBabel08211713383D

 37 39  0  0  0  0  0  0  0  0999 V2000
    0.0000    0.0000    0.0000 S   0  0  0  0  0  0  0  0  0  0  0  0
    1.7541    0.0000    0.0000 N   0  0  0  0  0  0  0  0  0  0  0  0
    2.2053    0.0000    1.2316 C   0  0  0  0  0  0  0  0  0  0  0  0
    3.5800   -0.1216    1.5398 N   0  0  0  0  0  0  0  0  0  0  0  0
    4.5181    0.1891    0.5379 N   0  0  0  0  0  0  0  0  0  0  0  0
    4.5109    1.5198    0.0017 C   0  0  0  0  0  0  0  0  0  0  0  0
    4.0758    2.6238    0.7443 C   0  0  0  0  0  0  0  0  0  0  0  0
    4.2178    3.9034    0.2135 C   0  0  0  0  0  0  0  0  0  0  0  0
    4.7901    4.0905   -1.0423 C   0  0  0  0  0  0  0  0  0  0  0  0
    5.2215    2.9872   -1.7788 C   0  0  0  0  0  0  0  0  0  0  0  0
    5.0817    1.7025   -1.2681 C   0  0  0  0  0  0  0  0  0  0  0  0
    1.1940   -0.0025    2.3018 C   0  0  0  0  0  0  0  0  0  0  0  0
   -0.1047    0.0072    1.7549 C   0  0  0  0  0  0  0  0  0  0  0  0
   -1.2226    0.0238    2.5810 C   0  0  0  0  0  0  0  0  0  0  0  0
   -1.0297    0.0283    3.9584 C   0  0  0  0  0  0  0  0  0  0  0  0
    0.2622    0.0062    4.5066 C   0  0  0  0  0  0  0  0  0  0  0  0
    1.3831   -0.0135    3.6787 C   0  0  0  0  0  0  0  0  0  0  0  0
    0.4441   -0.0106    5.9919 C   0  0  0  0  0  0  0  0  0  0  0  0
    1.3060    1.1462    6.4200 C   0  0  0  0  0  0  0  0  0  0  0  0
    2.4110    1.4229    6.0336 O   0  0  0  0  0  0  0  0  0  0  0  0
    0.6492    1.8676    7.3614 O   0  0  0  0  0  0  0  0  0  0  0  0
    1.3433    2.9918    7.8942 C   0  0  0  0  0  0  0  0  0  0  0  0
    3.8562    0.3275    2.4242 H   0  0  0  0  0  0  0  0  0  0  0  0
    4.4441   -0.5375   -0.1953 H   0  0  0  0  0  0  0  0  0  0  0  0
    3.6260    2.5004    1.7247 H   0  0  0  0  0  0  0  0  0  0  0  0
    3.8752    4.7641    0.7869 H   0  0  0  0  0  0  0  0  0  0  0  0
    4.8970    5.0924   -1.4488 H   0  0  0  0  0  0  0  0  0  0  0  0
    5.6644    3.1318   -2.7635 H   0  0  0  0  0  0  0  0  0  0  0  0
    5.4096    0.8449   -1.8501 H   0  0  0  0  0  0  0  0  0  0  0  0
   -2.2300    0.0345    2.1679 H   0  0  0  0  0  0  0  0  0  0  0  0
   -1.8956    0.0500    4.6208 H   0  0  0  0  0  0  0  0  0  0  0  0
    2.3875   -0.0308    4.1091 H   0  0  0  0  0  0  0  0  0  0  0  0
    0.9368   -0.9617    6.3087 H   0  0  0  0  0  0  0  0  0  0  0  0
   -0.5307    0.0039    6.5300 H   0  0  0  0  0  0  0  0  0  0  0  0
    0.5639    3.5220    8.4542 H   0  0  0  0  0  0  0  0  0  0  0  0
    1.7531    3.6154    7.0914 H   0  0  0  0  0  0  0  0  0  0  0  0
    2.1436    2.6432    8.5551 H   0  0  0  0  0  0  0  0  0  0  0  0
  1  2  1  0  0  0  0
  1 13  1  0  0  0  0
  2  3  2  0  0  0  0
  3  4  1  0  0  0  0
  3 12  1  0  0  0  0
  4 23  1  0  0  0  0
  5  4  1  0  0  0  0
  6  5  1  0  0  0  0
  6  7  2  0  0  0  0
  7 25  1  0  0  0  0
  8  7  1  0  0  0  0
  8 26  1  0  0  0  0
  9  8  2  0  0  0  0
 10 11  2  0  0  0  0
 10  9  1  0  0  0  0
 11  6  1  0  0  0  0
 12 17  1  0  0  0  0
 13 12  2  0  0  0  0
 13 14  1  0  0  0  0
 14 15  2  0  0  0  0
 15 16  1  0  0  0  0
 15 31  1  0  0  0  0
 16 18  1  0  0  0  0
 17 32  1  0  0  0  0
 17 16  2  0  0  0  0
 18 33  1  0  0  0  0
 18 19  1  0  0  0  0
 18 34  1  0  0  0  0
 19 21  1  0  0  0  0
 20 19  2  0  0  0  0
 21 22  1  0  0  0  0
 22 35  1  0  0  0  0
 22 37  1  0  0  0  0
 24  5  1  0  0  0  0
 27  9  1  0  0  0  0
 28 10  1  0  0  0  0
 29 11  1  0  0  0  0
 30 14  1  0  0  0  0
 36 22  1  0  0  0  0
M  END
$$$$
