37
rmsd159.gzmat
S          0.00000        0.00000        0.00000
N          1.75400        0.00000        0.00000
C          2.20480        0.00000        1.23180
N          3.58030       -0.12600        1.53610
N          4.51280        0.23460        0.54480
C          4.51000        1.59950        0.10060
C          4.19980        2.65560        0.96630
C          4.34480        3.96780        0.52410
C          4.79640        4.23420       -0.76630
C          5.10350        3.17900       -1.62550
C          4.95930        1.86270       -1.20330
C          1.19340        0.00480        2.30130
C         -0.10560        0.01480        1.75500
C         -1.22290        0.04470        2.58150
C         -1.02830        0.07290        3.95830
C          0.26400        0.06010        4.50600
C          1.38350        0.01460        3.67800
C          0.44740        0.09330        5.99080
C          1.33010        1.24860        6.37810
O          2.37910        1.57410        5.88810
O          0.77250        1.90230        7.42740
C          1.48240        3.03990        7.90820
H          3.85270        0.29080        2.43710
H          4.42140       -0.44190       -0.23290
H          3.84960        2.46930        1.97740
H          4.10320        4.79060        1.19630
H          4.90650        5.26070       -1.10460
H          5.45230        3.38630       -2.63680
H          5.18680        1.04410       -1.88200
H         -2.23070        0.05100        2.16940
H         -1.89320        0.10860        4.62100
H          2.38790       -0.00050        4.10750
H          0.91840       -0.85480        6.34500
H         -0.52710        0.14700        6.52750
H          0.90350        3.33820        8.78970
H          1.48210        3.82450        7.14430
H          2.50890        2.76810        8.17750
