rmsd35.gzmat
 OpenBabel08211713383D

 37 39  0  0  0  0  0  0  0  0999 V2000
    0.0000    0.0000    0.0000 S   0  0  0  0  0  0  0  0  0  0  0  0
    1.7522    0.0000    0.0000 N   0  0  0  0  0  0  0  0  0  0  0  0
    2.2047    0.0000    1.2313 C   0  0  0  0  0  0  0  0  0  0  0  0
    3.5847   -0.1084    1.5280 N   0  0  0  0  0  0  0  0  0  0  0  0
    4.5099    0.1872    0.5091 N   0  0  0  0  0  0  0  0  0  0  0  0
    4.4939    1.5048   -0.0585 C   0  0  0  0  0  0  0  0  0  0  0  0
    3.9291    2.6064    0.5939 C   0  0  0  0  0  0  0  0  0  0  0  0
    4.0576    3.8749    0.0321 C   0  0  0  0  0  0  0  0  0  0  0  0
    4.7478    4.0534   -1.1638 C   0  0  0  0  0  0  0  0  0  0  0  0
    5.3145    2.9524   -1.8078 C   0  0  0  0  0  0  0  0  0  0  0  0
    5.1885    1.6788   -1.2676 C   0  0  0  0  0  0  0  0  0  0  0  0
    1.1957   -0.0103    2.3028 C   0  0  0  0  0  0  0  0  0  0  0  0
   -0.1019    0.0058    1.7546 C   0  0  0  0  0  0  0  0  0  0  0  0
   -1.2239    0.0239    2.5777 C   0  0  0  0  0  0  0  0  0  0  0  0
   -1.0337    0.0074    3.9528 C   0  0  0  0  0  0  0  0  0  0  0  0
    0.2591   -0.0378    4.5047 C   0  0  0  0  0  0  0  0  0  0  0  0
    1.3816   -0.0409    3.6829 C   0  0  0  0  0  0  0  0  0  0  0  0
    0.4218   -0.0919    5.9913 C   0  0  0  0  0  0  0  0  0  0  0  0
   -0.0805    1.1888    6.6006 C   0  0  0  0  0  0  0  0  0  0  0  0
   -1.2027    1.6188    6.5855 O   0  0  0  0  0  0  0  0  0  0  0  0
    0.9476    1.8222    7.2183 O   0  0  0  0  0  0  0  0  0  0  0  0
    0.6334    3.0537    7.8613 C   0  0  0  0  0  0  0  0  0  0  0  0
    3.8699    0.3686    2.3933 H   0  0  0  0  0  0  0  0  0  0  0  0
    4.4341   -0.5560   -0.2081 H   0  0  0  0  0  0  0  0  0  0  0  0
    3.3800    2.4897    1.5224 H   0  0  0  0  0  0  0  0  0  0  0  0
    3.6084    4.7313    0.5350 H   0  0  0  0  0  0  0  0  0  0  0  0
    4.8429    5.0455   -1.5968 H   0  0  0  0  0  0  0  0  0  0  0  0
    5.8545    3.0913   -2.7438 H   0  0  0  0  0  0  0  0  0  0  0  0
    5.6256    0.8225   -1.7752 H   0  0  0  0  0  0  0  0  0  0  0  0
   -2.2305    0.0532    2.1621 H   0  0  0  0  0  0  0  0  0  0  0  0
   -1.8966    0.0430    4.6242 H   0  0  0  0  0  0  0  0  0  0  0  0
    2.3833   -0.0757    4.1081 H   0  0  0  0  0  0  0  0  0  0  0  0
    1.4794   -0.2829    6.2849 H   0  0  0  0  0  0  0  0  0  0  0  0
   -0.1573   -0.9448    6.4178 H   0  0  0  0  0  0  0  0  0  0  0  0
    1.5991    3.3697    8.2736 H   0  0  0  0  0  0  0  0  0  0  0  0
   -0.1048    2.8887    8.6533 H   0  0  0  0  0  0  0  0  0  0  0  0
    0.2560    3.7764    7.1296 H   0  0  0  0  0  0  0  0  0  0  0  0
  1 13  1  0  0  0  0
  2  1  1  0  0  0  0
  2  3  2  0  0  0  0
  3  4  1  0  0  0  0
  3 12  1  0  0  0  0
  4 23  1  0  0  0  0
  5  4  1  0  0  0  0
  6  5  1  0  0  0  0
  6  7  2  0  0  0  0
  7 25  1  0  0  0  0
  8 26  1  0  0  0  0
  8  7  1  0  0  0  0
  9  8  2  0  0  0  0
 10 11  2  0  0  0  0
 10  9  1  0  0  0  0
 11  6  1  0  0  0  0
 12 17  1  0  0  0  0
 13 12  2  0  0  0  0
 13 14  1  0  0  0  0
 14 15  2  0  0  0  0
 15 16  1  0  0  0  0
 15 31  1  0  0  0  0
 16 18  1  0  0  0  0
 17 32  1  0  0  0  0
 17 16  2  0  0  0  0
 18 33  1  0  0  0  0
 18 34  1  0  0  0  0
 18 19  1  0  0  0  0
 19 21  1  0  0  0  0
 20 19  2  0  0  0  0
 21 22  1  0  0  0  0
 22 35  1  0  0  0  0
 22 36  1  0  0  0  0
 24  5  1  0  0  0  0
 27  9  1  0  0  0  0
 28 10  1  0  0  0  0
 29 11  1  0  0  0  0
 30 14  1  0  0  0  0
 37 22  1  0  0  0  0
M  END
$$$$
