rmsd137.gzmat
 OpenBabel08211713403D

 26 27  0  0  0  0  0  0  0  0999 V2000
    0.0000    0.0000    0.0000 S   0  0  0  0  0  0  0  0  0  0  0  0
    1.4317    0.0000    0.0000 O   0  0  0  0  0  0  0  0  0  0  0  0
   -0.7350    0.0000   -1.2335 O   0  0  0  0  0  0  0  0  0  0  0  0
   -0.6564    1.1636    1.1490 C   0  0  0  0  0  0  0  0  0  0  0  0
   -0.5686    2.5393    1.1328 C   0  0  0  0  0  0  0  0  0  0  0  0
   -1.1755    3.2621    2.1737 C   0  0  0  0  0  0  0  0  0  0  0  0
   -1.8509    2.6068    3.1960 C   0  0  0  0  0  0  0  0  0  0  0  0
   -1.9374    1.2065    3.2102 C   0  0  0  0  0  0  0  0  0  0  0  0
   -1.3354    0.5029    2.1856 C   0  0  0  0  0  0  0  0  0  0  0  0
   -1.3388   -0.9910    2.0734 C   0  0  0  0  0  0  0  0  0  0  0  0
   -1.8874   -1.7618    2.8197 O   0  0  0  0  0  0  0  0  0  0  0  0
   -0.5853   -1.3686    0.9615 N   0  0  0  0  0  0  0  0  0  0  0  0
   -0.4969   -2.7655    0.5525 C   0  0  0  0  0  0  0  0  0  0  0  0
   -1.6124   -3.1154   -0.4528 C   0  0  0  0  0  0  0  0  0  0  0  0
   -1.3495   -4.4556   -1.0470 C   0  0  0  0  0  0  0  0  0  0  0  0
   -0.3235   -5.0842   -1.0635 O   0  0  0  0  0  0  0  0  0  0  0  0
   -2.4737   -4.9493   -1.6271 O   0  0  0  0  0  0  0  0  0  0  0  0
   -0.0437    3.0765    0.3400 H   0  0  0  0  0  0  0  0  0  0  0  0
   -1.1120    4.3503    2.1745 H   0  0  0  0  0  0  0  0  0  0  0  0
   -2.3186    3.1799    3.9973 H   0  0  0  0  0  0  0  0  0  0  0  0
   -2.4656    0.6833    4.0100 H   0  0  0  0  0  0  0  0  0  0  0  0
   -0.5774   -3.4233    1.4549 H   0  0  0  0  0  0  0  0  0  0  0  0
    0.5115   -2.9658    0.1111 H   0  0  0  0  0  0  0  0  0  0  0  0
   -1.6787   -2.3526   -1.2683 H   0  0  0  0  0  0  0  0  0  0  0  0
   -2.6100   -3.0807    0.0386 H   0  0  0  0  0  0  0  0  0  0  0  0
   -2.3451   -5.8328   -2.0533 H   0  0  0  0  0  0  0  0  0  0  0  0
  1 12  1  0  0  0  0
  1  4  1  0  0  0  0
  2  1  2  0  0  0  0
  3  1  2  0  0  0  0
  4  9  1  0  0  0  0
  5  4  2  0  0  0  0
  5  6  1  0  0  0  0
  6 19  1  0  0  0  0
  6  7  2  0  0  0  0
  7  8  1  0  0  0  0
  7 20  1  0  0  0  0
  8 21  1  0  0  0  0
  9  8  2  0  0  0  0
 10  9  1  0  0  0  0
 10 11  2  0  0  0  0
 12 10  1  0  0  0  0
 13 12  1  0  0  0  0
 13 22  1  0  0  0  0
 14 25  1  0  0  0  0
 14 13  1  0  0  0  0
 15 14  1  0  0  0  0
 16 15  2  0  0  0  0
 17 15  1  0  0  0  0
 18  5  1  0  0  0  0
 23 13  1  0  0  0  0
 24 14  1  0  0  0  0
 26 17  1  0  0  0  0
M  END
$$$$
