26
rmsd94.gzmat
S          0.00000        0.00000        0.00000
O          1.43590        0.00000        0.00000
O         -0.73150        0.00000       -1.23100
C         -0.65340        1.16360        1.15020
C         -0.67340        2.53970        1.07160
C         -1.26300        3.26280        2.12220
C         -1.81400        2.60710        3.21650
C         -1.79150        1.20640        3.29390
C         -1.21080        0.50300        2.25680
C         -1.11250       -0.99080        2.20310
O         -1.48240       -1.76120        3.05250
N         -0.52630       -1.36850        0.99430
C         -0.19850       -2.76330        0.72280
C          1.24660       -3.08150        1.15590
C          1.60780       -4.45910        0.72050
O          1.02850       -5.18510       -0.04490
O          2.75970       -4.86010        1.31950
H         -0.24710        3.07700        0.22170
H         -1.28600        4.35150        2.07280
H         -2.27000        3.18040        4.02450
H         -2.22120        0.68240        4.15040
H         -0.34300       -2.98120       -0.36440
H         -0.91530       -3.42820        1.26900
H          1.36250       -2.96820        2.25710
H          1.97300       -2.34640        0.72740
H          3.04620       -5.77040        1.05910
