rmsd83.gzmat
 OpenBabel08211713403D

 26 27  0  0  0  0  0  0  0  0999 V2000
    0.0000    0.0000    0.0000 S   0  0  0  0  0  0  0  0  0  0  0  0
    1.4319    0.0000    0.0000 O   0  0  0  0  0  0  0  0  0  0  0  0
   -0.7342    0.0000   -1.2340 O   0  0  0  0  0  0  0  0  0  0  0  0
   -0.6536    1.1650    1.1493 C   0  0  0  0  0  0  0  0  0  0  0  0
   -0.5865    2.5414    1.1190 C   0  0  0  0  0  0  0  0  0  0  0  0
   -1.1946    3.2653    2.1586 C   0  0  0  0  0  0  0  0  0  0  0  0
   -1.8452    2.6103    3.1970 C   0  0  0  0  0  0  0  0  0  0  0  0
   -1.9063    1.2091    3.2284 C   0  0  0  0  0  0  0  0  0  0  0  0
   -1.3099    0.5050    2.2009 C   0  0  0  0  0  0  0  0  0  0  0  0
   -1.3108   -0.9890    2.0926 C   0  0  0  0  0  0  0  0  0  0  0  0
   -1.8421   -1.7592    2.8516 O   0  0  0  0  0  0  0  0  0  0  0  0
   -0.5853   -1.3679    0.9621 N   0  0  0  0  0  0  0  0  0  0  0  0
   -0.5459   -2.7601    0.5299 C   0  0  0  0  0  0  0  0  0  0  0  0
   -1.6904   -3.0566   -0.4596 C   0  0  0  0  0  0  0  0  0  0  0  0
   -1.5449   -4.4375   -0.9973 C   0  0  0  0  0  0  0  0  0  0  0  0
   -0.6275   -5.2053   -0.8686 O   0  0  0  0  0  0  0  0  0  0  0  0
   -2.6441   -4.7844   -1.7167 O   0  0  0  0  0  0  0  0  0  0  0  0
   -0.0787    3.0808    0.3167 H   0  0  0  0  0  0  0  0  0  0  0  0
   -1.1527    4.3544    2.1430 H   0  0  0  0  0  0  0  0  0  0  0  0
   -2.3152    3.1832    3.9964 H   0  0  0  0  0  0  0  0  0  0  0  0
   -2.4125    0.6857    4.0426 H   0  0  0  0  0  0  0  0  0  0  0  0
   -0.6291   -3.4312    1.4226 H   0  0  0  0  0  0  0  0  0  0  0  0
    0.4468   -2.9856    0.0675 H   0  0  0  0  0  0  0  0  0  0  0  0
   -1.7020   -2.3202   -1.3017 H   0  0  0  0  0  0  0  0  0  0  0  0
   -2.6804   -2.9261    0.0317 H   0  0  0  0  0  0  0  0  0  0  0  0
   -2.5927   -5.6918   -2.1067 H   0  0  0  0  0  0  0  0  0  0  0  0
  1 12  1  0  0  0  0
  1  4  1  0  0  0  0
  2  1  2  0  0  0  0
  3  1  2  0  0  0  0
  4  9  1  0  0  0  0
  5  4  2  0  0  0  0
  5  6  1  0  0  0  0
  6  7  2  0  0  0  0
  7  8  1  0  0  0  0
  7 20  1  0  0  0  0
  8 21  1  0  0  0  0
  9  8  2  0  0  0  0
 10  9  1  0  0  0  0
 10 11  2  0  0  0  0
 12 10  1  0  0  0  0
 13 12  1  0  0  0  0
 13 22  1  0  0  0  0
 14 25  1  0  0  0  0
 14 13  1  0  0  0  0
 15 16  2  0  0  0  0
 15 14  1  0  0  0  0
 17 15  1  0  0  0  0
 18  5  1  0  0  0  0
 19  6  1  0  0  0  0
 23 13  1  0  0  0  0
 24 14  1  0  0  0  0
 26 17  1  0  0  0  0
M  END
$$$$
