26
rmsd141.gzmat
S          0.00000        0.00000        0.00000
O          1.43590        0.00000        0.00000
O         -0.73080        0.00000       -1.23130
C         -0.65290        1.16510        1.14930
C         -0.67430        2.54100        1.06800
C         -1.25630        3.26590        2.12170
C         -1.79930        2.61170        3.22110
C         -1.77960        1.21100        3.29920
C         -1.20480        0.50600        2.25990
C         -1.10250       -0.98760        2.20930
O         -1.45830       -1.75710        3.06580
N         -0.52640       -1.36770        0.99610
C         -0.18670       -2.76200        0.73560
C          1.24540       -3.07390        1.21300
C          1.60030       -4.47550        0.85610
O          0.99560       -5.25560        0.16770
O          2.78010       -4.82680        1.43160
H         -0.25430        3.07740        0.21460
H         -1.27830        4.35460        2.07080
H         -2.24590        3.18610        4.03330
H         -2.20640        0.68920        4.15840
H         -0.29810       -2.98160       -0.35440
H         -0.91750       -3.42850        1.26170
H          1.33790       -2.91290        2.31070
H          1.98710       -2.36600        0.76630
H          3.06850       -5.74790        1.21650
