rmsd164.gzmat
 OpenBabel08211713403D

 26 27  0  0  0  0  0  0  0  0999 V2000
    0.0000    0.0000    0.0000 S   0  0  0  0  0  0  0  0  0  0  0  0
    1.4360    0.0000    0.0000 O   0  0  0  0  0  0  0  0  0  0  0  0
   -0.7300    0.0000   -1.2324 O   0  0  0  0  0  0  0  0  0  0  0  0
   -0.6567    1.1634    1.1493 C   0  0  0  0  0  0  0  0  0  0  0  0
   -0.6602    2.5404    1.0823 C   0  0  0  0  0  0  0  0  0  0  0  0
   -1.2485    3.2616    2.1351 C   0  0  0  0  0  0  0  0  0  0  0  0
   -1.8182    2.6035    3.2181 C   0  0  0  0  0  0  0  0  0  0  0  0
   -1.8151    1.2020    3.2824 C   0  0  0  0  0  0  0  0  0  0  0  0
   -1.2323    0.5007    2.2452 C   0  0  0  0  0  0  0  0  0  0  0  0
   -1.1400   -0.9933    2.1869 C   0  0  0  0  0  0  0  0  0  0  0  0
   -1.5290   -1.7646    3.0269 O   0  0  0  0  0  0  0  0  0  0  0  0
   -0.5275   -1.3694    0.9911 N   0  0  0  0  0  0  0  0  0  0  0  0
   -0.1727   -2.7618    0.7335 C   0  0  0  0  0  0  0  0  0  0  0  0
    1.2566   -3.0557    1.2300 C   0  0  0  0  0  0  0  0  0  0  0  0
    1.6664   -4.4665    0.9841 C   0  0  0  0  0  0  0  0  0  0  0  0
    2.6394   -5.0412    1.3953 O   0  0  0  0  0  0  0  0  0  0  0  0
    0.7769   -5.1130    0.1816 O   0  0  0  0  0  0  0  0  0  0  0  0
   -0.2208    3.0802    0.2410 H   0  0  0  0  0  0  0  0  0  0  0  0
   -1.2537    4.3511    2.0976 H   0  0  0  0  0  0  0  0  0  0  0  0
   -2.2721    3.1748    4.0284 H   0  0  0  0  0  0  0  0  0  0  0  0
   -2.2591    0.6761    4.1303 H   0  0  0  0  0  0  0  0  0  0  0  0
   -0.2670   -2.9783   -0.3584 H   0  0  0  0  0  0  0  0  0  0  0  0
   -0.9036   -3.4347    1.2502 H   0  0  0  0  0  0  0  0  0  0  0  0
    1.3406   -2.8329    2.3195 H   0  0  0  0  0  0  0  0  0  0  0  0
    1.9965   -2.3691    0.7453 H   0  0  0  0  0  0  0  0  0  0  0  0
    1.0197   -6.0538   -0.0011 H   0  0  0  0  0  0  0  0  0  0  0  0
  1  2  2  0  0  0  0
  1 12  1  0  0  0  0
  1  4  1  0  0  0  0
  3  1  2  0  0  0  0
  4  9  1  0  0  0  0
  5  4  2  0  0  0  0
  5  6  1  0  0  0  0
  6  7  2  0  0  0  0
  7  8  1  0  0  0  0
  7 20  1  0  0  0  0
  8 21  1  0  0  0  0
  9  8  2  0  0  0  0
 10  9  1  0  0  0  0
 10 11  2  0  0  0  0
 12 10  1  0  0  0  0
 13 12  1  0  0  0  0
 13 14  1  0  0  0  0
 13 23  1  0  0  0  0
 14 24  1  0  0  0  0
 15 14  1  0  0  0  0
 15 16  2  0  0  0  0
 17 15  1  0  0  0  0
 18  5  1  0  0  0  0
 19  6  1  0  0  0  0
 22 13  1  0  0  0  0
 25 14  1  0  0  0  0
 26 17  1  0  0  0  0
M  END
$$$$
