
     RDKit          3D

 26 27  0  0  0  0  0  0  0  0999 V2000
    0.0121   -0.0369    0.0550 S   0  0  0  0  0  0  0  0  0  0  0  0
    1.4727    0.0229    0.0390 O   0  0  0  0  0  0  0  0  0  0  0  0
   -0.7185   -0.0738   -1.2062 O   0  0  0  0  0  0  0  0  0  0  0  0
   -0.6804    1.1481    1.1947 C   0  0  0  0  0  0  0  0  0  0  0  0
   -0.6999    2.5292    1.0526 C   0  0  0  0  0  0  0  0  0  0  0  0
   -1.2917    3.2684    2.0846 C   0  0  0  0  0  0  0  0  0  0  0  0
   -1.8375    2.6304    3.2075 C   0  0  0  0  0  0  0  0  0  0  0  0
   -1.8066    1.2368    3.3272 C   0  0  0  0  0  0  0  0  0  0  0  0
   -1.2197    0.4963    2.3039 C   0  0  0  0  0  0  0  0  0  0  0  0
   -1.0937   -0.9933    2.2499 C   0  0  0  0  0  0  0  0  0  0  0  0
   -1.4542   -1.7788    3.0984 O   0  0  0  0  0  0  0  0  0  0  0  0
   -0.4906   -1.3488    1.0523 N   0  0  0  0  0  0  0  0  0  0  0  0
   -0.1446   -2.7139    0.6876 C   0  0  0  0  0  0  0  0  0  0  0  0
    1.2506   -3.1027    1.1724 C   0  0  0  0  0  0  0  0  0  0  0  0
    1.6184   -4.5026    0.7486 C   0  0  0  0  0  0  0  0  0  0  0  0
    0.9394   -5.2190    0.0547 O   0  0  0  0  0  0  0  0  0  0  0  0
    2.8164   -4.8755    1.2348 O   0  0  0  0  0  0  0  0  0  0  0  0
   -0.2731    3.0169    0.1746 H   0  0  0  0  0  0  0  0  0  0  0  0
   -1.3274    4.3575    2.0115 H   0  0  0  0  0  0  0  0  0  0  0  0
   -2.2931    3.2312    3.9975 H   0  0  0  0  0  0  0  0  0  0  0  0
   -2.2270    0.7197    4.1918 H   0  0  0  0  0  0  0  0  0  0  0  0
   -0.2251   -2.8138   -0.4045 H   0  0  0  0  0  0  0  0  0  0  0  0
   -0.9071   -3.3682    1.1317 H   0  0  0  0  0  0  0  0  0  0  0  0
    1.3130   -3.0390    2.2706 H   0  0  0  0  0  0  0  0  0  0  0  0
    2.0058   -2.4033    0.7791 H   0  0  0  0  0  0  0  0  0  0  0  0
    2.9823   -5.7781    0.9122 H   0  0  0  0  0  0  0  0  0  0  0  0
  1  2  2  0
  1  3  2  0
  1  4  1  0
  1 12  1  0
  4  5  2  0
  4  9  1  0
  5  6  1  0
  5 18  1  0
  6  7  2  0
  6 19  1  0
  7  8  1  0
  7 20  1  0
  8  9  2  0
  8 21  1  0
  9 10  1  0
 10 11  2  0
 10 12  1  0
 12 13  1  0
 13 14  1  0
 13 22  1  0
 13 23  1  0
 14 15  1  0
 14 24  1  0
 14 25  1  0
 15 16  2  0
 15 17  1  0
 17 26  1  0
M  END

