rmsd151.gzmat
 OpenBabel08211713403D

 26 27  0  0  0  0  0  0  0  0999 V2000
    0.0000    0.0000    0.0000 S   0  0  0  0  0  0  0  0  0  0  0  0
    1.4357    0.0000    0.0000 O   0  0  0  0  0  0  0  0  0  0  0  0
   -0.7306    0.0000   -1.2315 O   0  0  0  0  0  0  0  0  0  0  0  0
   -0.6544    1.1632    1.1507 C   0  0  0  0  0  0  0  0  0  0  0  0
   -0.6789    2.5393    1.0723 C   0  0  0  0  0  0  0  0  0  0  0  0
   -1.2645    3.2606    2.1265 C   0  0  0  0  0  0  0  0  0  0  0  0
   -1.8089    2.6037    3.2234 C   0  0  0  0  0  0  0  0  0  0  0  0
   -1.7845    1.2032    3.2995 C   0  0  0  0  0  0  0  0  0  0  0  0
   -1.2072    0.5015    2.2595 C   0  0  0  0  0  0  0  0  0  0  0  0
   -1.1061   -0.9920    2.2058 C   0  0  0  0  0  0  0  0  0  0  0  0
   -1.4667   -1.7631    3.0587 O   0  0  0  0  0  0  0  0  0  0  0  0
   -0.5271   -1.3694    0.9934 N   0  0  0  0  0  0  0  0  0  0  0  0
   -0.1878   -2.7629    0.7284 C   0  0  0  0  0  0  0  0  0  0  0  0
    1.2448   -3.0748    1.2041 C   0  0  0  0  0  0  0  0  0  0  0  0
    1.5884   -4.4844    0.8699 C   0  0  0  0  0  0  0  0  0  0  0  0
    0.9470   -5.2911    0.2487 O   0  0  0  0  0  0  0  0  0  0  0  0
    2.8057   -4.8091    1.3787 O   0  0  0  0  0  0  0  0  0  0  0  0
   -0.2597    3.0789    0.2204 H   0  0  0  0  0  0  0  0  0  0  0  0
   -1.2897    4.3493    2.0782 H   0  0  0  0  0  0  0  0  0  0  0  0
   -2.2602    3.1757    4.0347 H   0  0  0  0  0  0  0  0  0  0  0  0
   -2.2094    0.6776    4.1575 H   0  0  0  0  0  0  0  0  0  0  0  0
   -0.2988   -2.9791   -0.3621 H   0  0  0  0  0  0  0  0  0  0  0  0
   -0.9184   -3.4316    1.2523 H   0  0  0  0  0  0  0  0  0  0  0  0
    1.3436   -2.8987    2.2990 H   0  0  0  0  0  0  0  0  0  0  0  0
    1.9872   -2.3752    0.7477 H   0  0  0  0  0  0  0  0  0  0  0  0
    3.0816   -5.7393    1.1857 H   0  0  0  0  0  0  0  0  0  0  0  0
  1 12  1  0  0  0  0
  1  4  1  0  0  0  0
  2  1  2  0  0  0  0
  3  1  2  0  0  0  0
  4  9  1  0  0  0  0
  5  4  2  0  0  0  0
  5  6  1  0  0  0  0
  6  7  2  0  0  0  0
  7  8  1  0  0  0  0
  7 20  1  0  0  0  0
  8 21  1  0  0  0  0
  9  8  2  0  0  0  0
 10  9  1  0  0  0  0
 10 11  2  0  0  0  0
 12 10  1  0  0  0  0
 13 12  1  0  0  0  0
 13 14  1  0  0  0  0
 13 23  1  0  0  0  0
 14 24  1  0  0  0  0
 15 14  1  0  0  0  0
 15 17  1  0  0  0  0
 16 15  2  0  0  0  0
 18  5  1  0  0  0  0
 19  6  1  0  0  0  0
 22 13  1  0  0  0  0
 25 14  1  0  0  0  0
 26 17  1  0  0  0  0
M  END
$$$$
