26
rmsd137.gzmat
S          0.00000        0.00000        0.00000
O          1.43170        0.00000        0.00000
O         -0.73500        0.00000       -1.23350
C         -0.65640        1.16360        1.14900
C         -0.56860        2.53930        1.13280
C         -1.17550        3.26210        2.17370
C         -1.85090        2.60680        3.19600
C         -1.93740        1.20650        3.21020
C         -1.33540        0.50290        2.18560
C         -1.33880       -0.99100        2.07340
O         -1.88740       -1.76180        2.81970
N         -0.58530       -1.36860        0.96150
C         -0.49690       -2.76550        0.55250
C         -1.61240       -3.11540       -0.45280
C         -1.34950       -4.45560       -1.04700
O         -0.32350       -5.08420       -1.06350
O         -2.47370       -4.94930       -1.62710
H         -0.04370        3.07650        0.34000
H         -1.11200        4.35030        2.17450
H         -2.31860        3.17990        3.99730
H         -2.46560        0.68330        4.01000
H         -0.57740       -3.42330        1.45490
H          0.51150       -2.96580        0.11110
H         -1.67870       -2.35260       -1.26830
H         -2.61000       -3.08070        0.03860
H         -2.34510       -5.83280       -2.05330
