38

C         -0.06530       -0.05130        0.13770
C          1.32580        0.05590        0.05590
C          2.13310       -0.03280        1.21330
C          1.50590       -0.29350        2.43760
C          0.12030       -0.40520        2.54460
C         -0.64170       -0.27180        1.38720
F         -1.97310       -0.37290        1.46290
C          3.63440        0.11400        1.22270
O          4.32120       -0.42900        2.07540
N          4.15920        0.95310        0.27730
C          5.58270        1.09450        0.07540
C          6.00730        0.45790       -1.22570
N          5.82410        1.00690       -2.39260
C          6.20580        0.16990       -3.41910
C          6.70760       -1.08580       -2.99670
S          6.67910       -1.16790       -1.25410
C          7.12050       -2.03160       -3.93710
F          7.59490       -3.21160       -3.52990
C          7.03100       -1.74120       -5.29050
C          6.52840       -0.49800       -5.70330
F          6.44740       -0.22990       -7.00590
C          6.11600        0.46570       -4.78860
F          5.64930        1.63980       -5.19760
O          1.97750        0.19730       -1.12410
C          1.38640        0.74690       -2.28710
C          2.60190        1.15580       -3.11930
O          2.91030        0.65450       -4.16770
O          3.32200        2.07350       -2.46000
H         -0.70230        0.00230       -0.74490
H          2.14350       -0.39690        3.31710
H         -0.37380       -0.59090        3.49880
H          3.55690        1.29510       -0.46500
H          6.08760        0.62330        0.92860
H          5.86580        2.15880        0.03800
H          7.34560       -2.47090       -6.03690
H          0.75880        1.62130       -2.04110
H          0.79680        0.00010       -2.84000
H          4.27450        2.01510       -2.73500
