
     RDKit          3D

 38 40  0  0  0  0  0  0  0  0999 V2000
   -0.0653   -0.0513    0.1377 C   0  0  0  0  0  0  0  0  0  0  0  0
    1.3258    0.0559    0.0559 C   0  0  0  0  0  0  0  0  0  0  0  0
    2.1331   -0.0328    1.2133 C   0  0  0  0  0  0  0  0  0  0  0  0
    1.5059   -0.2935    2.4376 C   0  0  0  0  0  0  0  0  0  0  0  0
    0.1203   -0.4052    2.5446 C   0  0  0  0  0  0  0  0  0  0  0  0
   -0.6417   -0.2718    1.3872 C   0  0  0  0  0  0  0  0  0  0  0  0
   -1.9731   -0.3729    1.4629 F   0  0  0  0  0  0  0  0  0  0  0  0
    3.6344    0.1140    1.2227 C   0  0  0  0  0  0  0  0  0  0  0  0
    4.3212   -0.4290    2.0754 O   0  0  0  0  0  0  0  0  0  0  0  0
    4.1592    0.9531    0.2773 N   0  0  0  0  0  0  0  0  0  0  0  0
    5.5827    1.0945    0.0754 C   0  0  0  0  0  0  0  0  0  0  0  0
    6.0073    0.4579   -1.2257 C   0  0  0  0  0  0  0  0  0  0  0  0
    5.8241    1.0069   -2.3926 N   0  0  0  0  0  0  0  0  0  0  0  0
    6.2058    0.1699   -3.4191 C   0  0  0  0  0  0  0  0  0  0  0  0
    6.7076   -1.0858   -2.9967 C   0  0  0  0  0  0  0  0  0  0  0  0
    6.6791   -1.1679   -1.2541 S   0  0  0  0  0  0  0  0  0  0  0  0
    7.1205   -2.0316   -3.9371 C   0  0  0  0  0  0  0  0  0  0  0  0
    7.5949   -3.2116   -3.5299 F   0  0  0  0  0  0  0  0  0  0  0  0
    7.0310   -1.7412   -5.2905 C   0  0  0  0  0  0  0  0  0  0  0  0
    6.5284   -0.4980   -5.7033 C   0  0  0  0  0  0  0  0  0  0  0  0
    6.4474   -0.2299   -7.0059 F   0  0  0  0  0  0  0  0  0  0  0  0
    6.1160    0.4657   -4.7886 C   0  0  0  0  0  0  0  0  0  0  0  0
    5.6493    1.6398   -5.1976 F   0  0  0  0  0  0  0  0  0  0  0  0
    1.9775    0.1973   -1.1241 O   0  0  0  0  0  0  0  0  0  0  0  0
    1.3864    0.7469   -2.2871 C   0  0  0  0  0  0  0  0  0  0  0  0
    2.6019    1.1558   -3.1193 C   0  0  0  0  0  0  0  0  0  0  0  0
    2.9103    0.6545   -4.1677 O   0  0  0  0  0  0  0  0  0  0  0  0
    3.3220    2.0735   -2.4600 O   0  0  0  0  0  0  0  0  0  0  0  0
   -0.7023    0.0023   -0.7449 H   0  0  0  0  0  0  0  0  0  0  0  0
    2.1435   -0.3969    3.3171 H   0  0  0  0  0  0  0  0  0  0  0  0
   -0.3738   -0.5909    3.4988 H   0  0  0  0  0  0  0  0  0  0  0  0
    3.5569    1.2951   -0.4650 H   0  0  0  0  0  0  0  0  0  0  0  0
    6.0876    0.6233    0.9286 H   0  0  0  0  0  0  0  0  0  0  0  0
    5.8658    2.1588    0.0380 H   0  0  0  0  0  0  0  0  0  0  0  0
    7.3456   -2.4709   -6.0369 H   0  0  0  0  0  0  0  0  0  0  0  0
    0.7588    1.6213   -2.0411 H   0  0  0  0  0  0  0  0  0  0  0  0
    0.7968    0.0001   -2.8400 H   0  0  0  0  0  0  0  0  0  0  0  0
    4.2745    2.0151   -2.7350 H   0  0  0  0  0  0  0  0  0  0  0  0
  1  2  2  0
  1  6  1  0
  1 29  1  0
  2  3  1  0
  2 24  1  0
  3  4  2  0
  3  8  1  0
  4  5  1  0
  4 30  1  0
  5  6  2  0
  5 31  1  0
  6  7  1  0
  8  9  2  0
  8 10  1  0
 10 11  1  0
 10 32  1  0
 11 12  1  0
 11 33  1  0
 11 34  1  0
 12 13  2  0
 12 16  1  0
 13 14  1  0
 14 15  2  0
 14 22  1  0
 15 16  1  0
 15 17  1  0
 17 18  1  0
 17 19  2  0
 19 20  1  0
 19 35  1  0
 20 21  1  0
 20 22  2  0
 22 23  1  0
 24 25  1  0
 25 26  1  0
 25 36  1  0
 25 37  1  0
 26 27  2  0
 26 28  1  0
 28 38  1  0
M  END

