38

C         -0.07600       -0.13030        0.09270
C          1.32050       -0.06650        0.03670
C          2.08160       -0.04440        1.22180
C          1.41560       -0.00740        2.45160
C          0.02470       -0.06840        2.52960
C         -0.69490       -0.14030        1.34010
F         -2.03230       -0.20220        1.38530
C          3.58680       -0.02900        1.21740
O          4.22660        0.71190        1.94920
N          4.16230       -0.94900        0.38970
C          5.56910       -0.92330        0.11560
C          5.85610       -0.69700       -1.34700
N          4.99360       -0.85260       -2.29840
C          5.55750       -0.63370       -3.53460
C          6.93540       -0.29550       -3.51330
S          7.49830       -0.25420       -1.86280
C          7.62300       -0.04920       -4.70220
F          8.91920        0.27000       -4.66780
C          6.95970       -0.13860       -5.91870
C          5.59920       -0.47440       -5.93900
F          4.96350       -0.56040       -7.10860
C          4.89220       -0.72620       -4.76690
F          3.59380       -1.04350       -4.81900
O          2.00460        0.06670       -1.13740
C          1.57000       -0.58450       -2.29430
C          1.81610       -2.08080       -2.21750
O          2.39500       -2.64340       -1.31990
O          1.31690       -2.70950       -3.28550
H         -0.69690       -0.13870       -0.80250
H          2.01840        0.05490        3.35940
H         -0.50430       -0.06280        3.48320
H          3.56700       -1.51600       -0.21500
H          6.06230       -1.86880        0.41400
H          6.01530       -0.12520        0.72890
H          7.48580        0.05110       -6.85450
H          2.17590       -0.20230       -3.12700
H          0.51080       -0.39950       -2.54160
H          1.54260       -3.65250       -3.20420
