38
rmsd48.gzmat
C          0.00000        0.00000        0.00000
C          1.39300        0.00000        0.00000
C          2.13030        0.00000        1.19380
C          1.45700       -0.05240        2.41360
C          0.06460       -0.05770        2.45460
C         -0.62880       -0.02430        1.24500
F         -1.95070       -0.02160        1.27400
C          3.61550        0.03710        1.20680
O          4.29400       -0.71100        1.88070
N          4.18780        1.04510        0.45480
C          5.63750        1.14280        0.34470
C          6.10570        0.68940       -1.00210
N          6.99180        1.33820       -1.70500
C          7.25170        0.71340       -2.93090
C          6.50860       -0.47410       -3.16800
S          5.48400       -0.80920       -1.79330
C          6.67920       -1.16280       -4.36620
F          5.97800       -2.26150       -4.58140
C          7.56590       -0.72430       -5.34220
C          8.29380        0.44500       -5.08840
F          9.14350        0.88070       -5.99950
C          8.15230        1.16870       -3.90430
F          8.85950        2.26260       -3.71180
O          2.17060       -0.08340       -1.11990
C          1.65990        0.44870       -2.32510
C          1.83090        1.94880       -2.30020
O          2.48400        2.60860       -1.53660
O          1.11930        2.50900       -3.30200
H         -0.57920        0.00430       -0.91830
H          2.03540       -0.08640        3.34390
H         -0.46270       -0.08860        3.40660
H          3.63330        1.62600       -0.16750
H          6.13690        0.53640        1.15250
H          5.94960        2.20850        0.52150
H          7.69790       -1.27070       -6.27900
H          0.61890        0.13900       -2.53470
H          2.32550       -0.01530       -3.09200
H          1.21080        3.49660       -3.35810
