38
rmsd239.gzmat
C          0.00000        0.00000        0.00000
C          1.39350        0.00000        0.00000
C          2.13090        0.00000        1.19260
C          1.45410        0.04440        2.41300
C          0.06220        0.04740        2.45380
C         -0.63070        0.02120        1.24380
F         -1.95260        0.02020        1.27110
C          3.61580       -0.03490        1.23380
O          4.26790        0.64630        2.00060
N          4.22170       -0.95110        0.39930
C          5.67180       -1.10030        0.40380
C          6.05740       -2.42040        0.99080
N          7.04040       -3.14580        0.53130
C          7.20540       -4.32700        1.26450
C          6.29070       -4.49930        2.33800
S          5.20640       -3.13160        2.41040
C          6.36920       -5.64290        3.12940
F          5.51790       -5.79250        4.12840
C          7.31970       -6.62930        2.89760
C          8.21070       -6.44370        1.83260
F          9.12130       -7.36840        1.59130
C          8.17050       -5.31360        1.01640
F          9.03080       -5.18310        0.02800
O          2.16410        0.08510       -1.12610
C          1.64900       -0.46230       -2.32280
C          1.86260       -1.95740       -2.30020
O          2.59100       -2.59230       -1.58530
O          1.09490       -2.54380       -3.24360
H         -0.57890       -0.00180       -0.91890
H          2.03310        0.07530        3.34440
H         -0.46570        0.07050        3.40590
H          3.69660       -1.48990       -0.28080
H          6.15440       -0.26680        0.99060
H          6.07020       -1.01050       -0.64150
H          7.37630       -7.52350        3.52230
H          2.28850        0.01760       -3.10040
H          0.59600       -0.18250       -2.51650
H          1.20490       -3.53030       -3.29740
