rmsd82.gzmat
 OpenBabel08211713373D

 38 40  0  0  1  0  0  0  0  0999 V2000
    0.0000    0.0000    0.0000 C   0  0  0  0  0  0  0  0  0  0  0  0
    1.3935    0.0000    0.0000 C   0  0  0  0  0  0  0  0  0  0  0  0
    2.1308    0.0000    1.1928 C   0  0  0  0  0  0  0  0  0  0  0  0
    1.4533    0.0449    2.4129 C   0  0  0  0  0  0  0  0  0  0  0  0
    0.0616    0.0502    2.4534 C   0  0  0  0  0  0  0  0  0  0  0  0
   -0.6309    0.0228    1.2433 C   0  0  0  0  0  0  0  0  0  0  0  0
   -1.9527    0.0233    1.2693 F   0  0  0  0  0  0  0  0  0  0  0  0
    3.6155   -0.0324    1.2382 C   0  0  0  0  0  0  0  0  0  0  0  0
    4.2624    0.6416    2.0158 O   0  0  0  0  0  0  0  0  0  0  0  0
    4.2285   -0.9378    0.3971 N   0  0  0  0  0  0  0  0  0  0  0  0
    5.6793   -1.0791    0.4054 C   0  0  0  0  0  0  0  0  0  0  0  0
    6.0724   -2.4107    0.9592 C   0  0  0  0  0  0  0  0  0  0  0  0
    7.1205   -3.0711    0.5478 N   0  0  0  0  0  0  0  0  0  0  0  0
    7.2783   -4.2807    1.2343 C   0  0  0  0  0  0  0  0  0  0  0  0
    6.2875   -4.5458    2.2177 C   0  0  1  0  0  0  0  0  0  0  0  0
    5.1429   -3.2268    2.2689 S   0  0  0  0  0  0  0  0  0  0  0  0
    6.3487   -5.7273    2.9529 C   0  0  0  0  0  0  0  0  0  0  0  0
    5.4204   -5.9670    3.8618 F   0  0  0  0  0  0  0  0  0  0  0  0
    7.3575   -6.6614    2.7540 C   0  0  0  0  0  0  0  0  0  0  0  0
    8.3241   -6.3837    1.7786 C   0  0  0  0  0  0  0  0  0  0  0  0
    9.2903   -7.2578    1.5682 F   0  0  0  0  0  0  0  0  0  0  0  0
    8.3022   -5.2143    1.0192 C   0  0  0  0  0  0  0  0  0  0  0  0
    9.2335   -4.9992    0.1135 F   0  0  0  0  0  0  0  0  0  0  0  0
    2.1632    0.0865   -1.1263 O   0  0  0  0  0  0  0  0  0  0  0  0
    1.6480   -0.4588   -2.3242 C   0  0  0  0  0  0  0  0  0  0  0  0
    1.8819   -1.9508   -2.3105 C   0  0  0  0  0  0  0  0  0  0  0  0
    2.6130   -2.5784   -1.5921 O   0  0  0  0  0  0  0  0  0  0  0  0
    1.1350   -2.5430   -3.2666 O   0  0  0  0  0  0  0  0  0  0  0  0
   -0.5789   -0.0018   -0.9189 H   0  0  0  0  0  0  0  0  0  0  0  0
    2.0327    0.0739    3.3444 H   0  0  0  0  0  0  0  0  0  0  0  0
   -0.4661    0.0764    3.4054 H   0  0  0  0  0  0  0  0  0  0  0  0
    3.7086   -1.4683   -0.2933 H   0  0  0  0  0  0  0  0  0  0  0  0
    6.1548   -0.2592    1.0180 H   0  0  0  0  0  0  0  0  0  0  0  0
    6.0840   -0.9577   -0.6341 H   0  0  0  0  0  0  0  0  0  0  0  0
    7.4032   -7.5842    3.3367 H   0  0  0  0  0  0  0  0  0  0  0  0
    2.2777    0.0337   -3.1017 H   0  0  0  0  0  0  0  0  0  0  0  0
    0.5910   -0.1922   -2.5121 H   0  0  0  0  0  0  0  0  0  0  0  0
    1.2613   -3.5272   -3.3232 H   0  0  0  0  0  0  0  0  0  0  0  0
  1  2  2  0  0  0  0
  1  6  1  0  0  0  0
  2  3  1  0  0  0  0
  3  8  1  0  0  0  0
  3  4  2  0  0  0  0
  4  5  1  0  0  0  0
  4 30  1  0  0  0  0
  5 31  1  0  0  0  0
  6  7  1  0  0  0  0
  6  5  2  0  0  0  0
  8  9  2  0  0  0  0
 10 11  1  0  0  0  0
 10  8  1  0  0  0  0
 11 12  1  0  0  0  0
 11 33  1  0  0  0  0
 12 16  1  0  0  0  0
 13 12  2  0  0  0  0
 13 14  2  0  0  0  0
 15 14  1  6  0  0  0
 15 16  1  0  0  0  0
 15 17  1  0  0  0  0
 17 18  1  0  0  0  0
 19 17  2  0  0  0  0
 19 35  1  0  0  0  0
 20 19  1  0  0  0  0
 21 20  1  0  0  0  0
 22 14  1  0  0  0  0
 22 20  2  0  0  0  0
 23 22  1  0  0  0  0
 24  2  1  0  0  0  0
 25 26  1  0  0  0  0
 25 24  1  0  0  0  0
 26 27  2  0  0  0  0
 28 26  1  0  0  0  0
 29  1  1  0  0  0  0
 32 10  1  0  0  0  0
 34 11  1  0  0  0  0
 36 25  1  0  0  0  0
 37 25  1  0  0  0  0
 38 28  1  0  0  0  0
M  RAD  1  15   2
M  END
$$$$
