38
rmsd165.gzmat
C          0.00000        0.00000        0.00000
C          1.39430        0.00000        0.00000
C          2.13520        0.00000        1.19400
C          1.45760        0.03770        2.41350
C          0.06540        0.03210        2.45480
C         -0.62790        0.00890        1.24510
F         -1.94990        0.00140        1.27560
C          3.61890       -0.00220        1.22430
O          4.26220        0.67170        2.00400
N          4.24700       -0.90090        0.37700
C          5.70210       -0.85710        0.22830
C          6.02870       -0.20640       -1.08380
N          5.86450       -0.82200       -2.22720
C          6.12240        0.01860       -3.31710
C          6.52540        1.33540       -2.97230
S          6.55580        1.49740       -1.23370
C          6.79450        2.25480       -3.98390
F          7.17580        3.47640       -3.65650
C          6.66880        1.92160       -5.32670
C          6.25500        0.62170       -5.64660
F          6.11960        0.28600       -6.91550
C          5.98330       -0.33370       -4.66750
F          5.59400       -1.54300       -5.01130
O          2.16000        0.07660       -1.11820
C          1.60650       -0.39450       -2.34570
C          2.81830       -0.97000       -3.06010
O          3.29550       -0.59650       -4.09480
O          3.31910       -1.99730       -2.34270
H         -0.57580        0.01400       -0.92020
H          2.03630        0.07130        3.34430
H         -0.46150        0.04990        3.40710
H          3.73980       -1.34980       -0.38110
H          6.09730       -1.90710        0.24850
H          6.16840       -0.32960        1.10080
H          6.87940        2.64840       -6.11520
H          1.19940        0.48450       -2.88490
H          0.82580       -1.16470       -2.20310
H          4.24430       -2.26810       -2.62980
