38
rmsd242.gzmat
C          0.00000        0.00000        0.00000
C          1.39340        0.00000        0.00000
C          2.13080        0.00000        1.19250
C          1.45490       -0.04700        2.41320
C          0.06310       -0.05290        2.45430
C         -0.62990       -0.02340        1.24430
F         -1.95170       -0.02260        1.27180
C          3.61540        0.03400        1.23220
O          4.26820       -0.65700        1.98840
N          4.22080        0.96450        0.41090
C          5.67150        1.10210        0.41490
C          6.08820        2.36600        1.09520
N          7.24440        2.93510        0.88350
C          7.40830        4.08900        1.65860
C          6.30800        4.40890        2.49910
S          5.04900        3.21330        2.29870
C          6.36890        5.54130        3.30750
F          5.34050        5.83230        4.08420
C          7.48180        6.37310        3.31960
C          8.55770        6.04010        2.48650
F          9.62750        6.81330        2.48220
C          8.54000        4.91710        1.66000
F          9.57630        4.64630        0.89400
O          2.16560       -0.08380       -1.12500
C          1.64640        0.45400       -2.32450
C          1.84500        1.95130       -2.30390
O          2.57450        2.59160       -1.59490
O          1.06280        2.53060       -3.24010
H         -0.57970        0.00240       -0.91840
H          2.03470       -0.07650        3.34440
H         -0.46440       -0.08040        3.40650
H          3.69640        1.49870       -0.27340
H          6.06490        1.08110       -0.63520
H          6.15060        0.22380        0.93940
H          7.52390        7.25940        3.95660
H          0.59690        0.16170       -2.51890
H          2.29260       -0.02150       -3.09930
H          1.15790        3.51840       -3.29100
