38

C          0.38290       -0.14040       -0.39810
C          1.75900       -0.04270       -0.17530
C          2.26970        0.01500        1.13530
C          1.38780       -0.09710        2.21330
C          0.01010       -0.19390        2.01390
C         -0.46520       -0.20310        0.70540
F         -1.78330       -0.29520        0.48770
C          3.75150        0.15790        1.36270
O          4.40460       -0.64710        2.00490
N          4.28300        1.28560        0.79680
C          5.70200        1.36900        0.51380
C          5.94200        0.88720       -0.89460
N          5.82000        1.64860       -1.93730
C          5.89870        0.92250       -3.10240
C          6.09390       -0.47350       -2.92340
S          6.18030       -0.83680       -1.22070
C          6.16770       -1.32180       -4.03000
F          6.35580       -2.63230       -3.85410
C          6.03370       -0.80410       -5.31100
C          5.83000        0.57310       -5.48290
F          5.69390        1.06260       -6.71670
C          5.76180        1.44400       -4.40010
F          5.55360        2.74610       -4.59300
O          2.68340       -0.10050       -1.18310
C          2.44860        0.48190       -2.43160
C          2.69200        1.98390       -2.39550
O          2.80560        2.64080       -1.39030
O          2.76940        2.48130       -3.63140
H         -0.04810       -0.20020       -1.39710
H          1.79670       -0.08900        3.22560
H         -0.69300       -0.26000        2.84480
H          3.67730        1.83280        0.18390
H          6.23370        0.75110        1.24840
H          6.04870        2.40950        0.58620
H          6.08490       -1.45680       -6.18270
H          1.43590        0.29430       -2.82930
H          3.16060        0.03150       -3.13730
H          3.01220        3.42200       -3.56940
