rmsd186.gzmat
 OpenBabel08211713373D

 38 40  0  0  0  0  0  0  0  0999 V2000
    0.0000    0.0000    0.0000 C   0  0  0  0  0  0  0  0  0  0  0  0
    1.3926    0.0000    0.0000 C   0  0  0  0  0  0  0  0  0  0  0  0
    2.1294    0.0000    1.1953 C   0  0  0  0  0  0  0  0  0  0  0  0
    1.4603   -0.0537    2.4155 C   0  0  0  0  0  0  0  0  0  0  0  0
    0.0674   -0.0621    2.4558 C   0  0  0  0  0  0  0  0  0  0  0  0
   -0.6261   -0.0266    1.2465 C   0  0  0  0  0  0  0  0  0  0  0  0
   -1.9480   -0.0258    1.2769 F   0  0  0  0  0  0  0  0  0  0  0  0
    3.6143    0.0447    1.1791 C   0  0  0  0  0  0  0  0  0  0  0  0
    4.3212   -0.7625    1.7454 O   0  0  0  0  0  0  0  0  0  0  0  0
    4.1474    1.1390    0.5205 N   0  0  0  0  0  0  0  0  0  0  0  0
    5.5862    1.2267    0.2965 C   0  0  0  0  0  0  0  0  0  0  0  0
    5.9086    0.7590   -1.0912 C   0  0  0  0  0  0  0  0  0  0  0  0
    6.2323    1.5708   -2.0598 N   0  0  0  0  0  0  0  0  0  0  0  0
    6.4439    0.8922   -3.2651 C   0  0  0  0  0  0  0  0  0  0  0  0
    6.2655   -0.5156   -3.1994 C   0  0  0  0  0  0  0  0  0  0  0  0
    5.8217   -0.9739   -1.5736 S   0  0  0  0  0  0  0  0  0  0  0  0
    6.4607   -1.2848   -4.3446 C   0  0  0  0  0  0  0  0  0  0  0  0
    6.2939   -2.5932   -4.2760 F   0  0  0  0  0  0  0  0  0  0  0  0
    6.8245   -0.7127   -5.5572 C   0  0  0  0  0  0  0  0  0  0  0  0
    6.9895    0.6779   -5.6036 C   0  0  0  0  0  0  0  0  0  0  0  0
    7.3310    1.2451   -6.7454 F   0  0  0  0  0  0  0  0  0  0  0  0
    6.8038    1.4865   -4.4829 C   0  0  0  0  0  0  0  0  0  0  0  0
    6.9653    2.7901   -4.5761 F   0  0  0  0  0  0  0  0  0  0  0  0
    2.1772   -0.1005   -1.1126 O   0  0  0  0  0  0  0  0  0  0  0  0
    1.6991    0.4281   -2.3315 C   0  0  0  0  0  0  0  0  0  0  0  0
    2.0309    1.9010   -2.3775 C   0  0  0  0  0  0  0  0  0  0  0  0
    2.4541    2.5973   -1.4941 O   0  0  0  0  0  0  0  0  0  0  0  0
    1.7726    2.3861   -3.6109 O   0  0  0  0  0  0  0  0  0  0  0  0
   -0.5805    0.0062   -0.9172 H   0  0  0  0  0  0  0  0  0  0  0  0
    2.0384   -0.0853    3.3451 H   0  0  0  0  0  0  0  0  0  0  0  0
   -0.4595   -0.0950    3.4078 H   0  0  0  0  0  0  0  0  0  0  0  0
    3.5622    1.7433   -0.0524 H   0  0  0  0  0  0  0  0  0  0  0  0
    6.1419    0.6327    1.0696 H   0  0  0  0  0  0  0  0  0  0  0  0
    5.9074    2.2957    0.4259 H   0  0  0  0  0  0  0  0  0  0  0  0
    6.9814   -1.3222   -6.4505 H   0  0  0  0  0  0  0  0  0  0  0  0
    0.6244    0.2381   -2.5107 H   0  0  0  0  0  0  0  0  0  0  0  0
    2.2886   -0.1435   -3.0874 H   0  0  0  0  0  0  0  0  0  0  0  0
    2.0177    3.3432   -3.7246 H   0  0  0  0  0  0  0  0  0  0  0  0
  1  2  2  0  0  0  0
  1  6  1  0  0  0  0
  2  3  1  0  0  0  0
  3  4  2  0  0  0  0
  4  5  1  0  0  0  0
  4 30  1  0  0  0  0
  5 31  1  0  0  0  0
  6  7  1  0  0  0  0
  6  5  2  0  0  0  0
  8  3  1  0  0  0  0
  8  9  2  0  0  0  0
 10  8  1  0  0  0  0
 11 34  1  0  0  0  0
 11 10  1  0  0  0  0
 11 33  1  0  0  0  0
 12 11  1  0  0  0  0
 13 12  2  0  0  0  0
 14 15  1  0  0  0  0
 14 13  2  0  0  0  0
 15 16  1  0  0  0  0
 16 12  1  0  0  0  0
 17 18  1  0  0  0  0
 17 15  2  0  0  0  0
 19 17  1  0  0  0  0
 20 19  1  0  0  0  0
 20 22  2  0  0  0  0
 21 20  1  0  0  0  0
 22 14  1  0  0  0  0
 23 22  1  0  0  0  0
 24  2  1  0  0  0  0
 25 24  1  0  0  0  0
 26 25  1  0  0  0  0
 26 27  2  0  0  0  0
 28 26  1  0  0  0  0
 29  1  1  0  0  0  0
 32 10  1  0  0  0  0
 35 19  1  0  0  0  0
 36 25  1  0  0  0  0
 37 25  1  0  0  0  0
 38 28  1  0  0  0  0
M  RAD  1  19   2
M  END
$$$$
