67

C         -0.44990        0.16260        0.13460
H          0.42220        0.68570       -0.29290
C         -1.29910       -0.36710       -1.01640
H         -1.54830        0.48020       -1.68300
C         -0.52980       -1.40800       -1.84790
H          0.28300       -0.91960       -2.40880
C          0.05140       -2.50920       -0.96750
H         -0.78140       -3.07800       -0.51960
C          0.88580       -1.91110        0.15200
H          1.70850       -1.31970       -0.30500
C          0.04290       -0.98110        1.02360
H         -0.82190       -1.54080        1.40700
O          0.79950       -0.57770        2.14760
O          1.41260       -2.98050        0.89900
O          0.86460       -3.36820       -1.76170
O         -1.49640       -1.93990       -2.75530
P         -1.17430       -2.48300       -4.26870
O         -2.38690       -2.54680       -5.10150
O         -0.05060       -1.42170       -4.78300
O         -0.37020       -3.83080       -4.04680
O         -2.47310       -0.94720       -0.49240
O         -1.24090        1.10930        0.86350
P         -0.51460        2.26730        1.75540
O          0.96330        2.09480        1.79630
O         -0.99750        3.65340        1.16840
O         -1.32970        2.17450        3.14030
C         -1.60500        0.95330        3.83280
C         -2.89550        0.30160        3.32060
H         -2.71920       -0.16110        2.34180
C         -4.08450        1.26330        3.19170
O         -4.57510        1.23340        1.84090
C         -4.14960        2.16760        0.98670
O         -3.57760        3.18000        1.35180
C         -4.42920        1.78950       -0.44190
C         -3.87460        2.78100       -1.46380
C         -4.64280        4.10050       -1.53650
O         -3.24690       -0.72570        4.26260
C         -2.81000       -1.98650        4.02440
O         -2.15270       -2.29010        3.06090
C         -3.24150       -2.92300        5.12550
C         -2.65800       -2.54220        6.49510
C         -3.07320       -3.51550        7.59550
H          1.17230        0.32130        2.00380
H          1.71270       -2.59910        1.73980
H          1.35130       -3.94250       -1.14880
H         -0.42320       -0.87310       -5.48920
H          0.18200       -3.82080       -3.22150
H         -2.86680       -1.46260       -1.21530
H         -1.98750        3.71230        1.18400
H         -1.72750        1.22450        4.89140
H         -0.76850        0.24600        3.73040
H         -3.81260        2.29240        3.45640
H         -4.90660        0.91110        3.82630
H         -5.51860        1.64700       -0.55110
H         -3.97970        0.79020       -0.56240
H         -3.88250        2.29220       -2.45210
H         -2.81610        2.97360       -1.22130
H         -5.69530        3.93020       -1.81820
H         -4.20280        4.77660       -2.28600
H         -4.63070        4.61970       -0.56670
H         -2.92820       -3.93470        4.83140
H         -4.34350       -2.90690        5.17890
H         -2.98340       -1.52050        6.74820
H         -1.55730       -2.50910        6.41940
H         -4.16950       -3.54520        7.70840
H         -2.64420       -3.22550        8.56710
H         -2.73500       -4.54060        7.37250
