rmsd249.gzmat
 OpenBabel08211713423D

 67 67  0  0  1  0  0  0  0  0999 V2000
    0.0000    0.0000    0.0000 C   0  0  2  0  0  0  0  0  0  0  0  0
    1.1249    0.0000    0.0000 H   0  0  0  0  0  0  0  0  0  0  0  0
   -0.5258    0.0000   -1.4493 C   0  0  1  0  0  0  0  0  0  0  0  0
   -0.2763    0.9278   -2.0159 H   0  0  0  0  0  0  0  0  0  0  0  0
    0.0130   -1.2462   -2.2069 C   0  0  1  0  0  0  0  0  0  0  0  0
    1.1261   -1.2185   -2.2741 H   0  0  0  0  0  0  0  0  0  0  0  0
   -0.4627   -2.5343   -1.5038 C   0  0  2  0  0  0  0  0  0  0  0  0
   -1.5528   -2.7145   -1.6505 H   0  0  0  0  0  0  0  0  0  0  0  0
   -0.0871   -2.5415   -0.0116 C   0  0  1  0  0  0  0  0  0  0  0  0
    1.0020   -2.7270    0.1393 H   0  0  0  0  0  0  0  0  0  0  0  0
   -0.5397   -1.2635    0.7178 C   0  0  1  0  0  0  0  0  0  0  0  0
   -1.6451   -1.2309    0.8421 H   0  0  0  0  0  0  0  0  0  0  0  0
    0.0666   -1.3808    1.9861 O   0  0  0  0  0  0  0  0  0  0  0  0
   -0.7893   -3.6558    0.5060 O   0  0  0  0  0  0  0  0  0  0  0  0
    0.2646   -3.5888   -2.1240 O   0  0  0  0  0  0  0  0  0  0  0  0
   -0.6804   -1.1217   -3.4518 O   0  0  0  0  0  0  0  0  0  0  0  0
   -0.1170   -1.6480   -4.8604 P   0  0  0  0  0  0  0  0  0  0  0  0
   -0.9523   -1.1233   -5.9233 O   0  0  0  0  0  0  0  0  0  0  0  0
    1.4128   -1.1859   -4.7764 O   0  0  0  0  0  0  0  0  0  0  0  0
   -0.0451   -3.2201   -4.7726 O   0  0  0  0  0  0  0  0  0  0  0  0
   -1.9399   -0.1267   -1.3590 O   0  0  0  0  0  0  0  0  0  0  0  0
   -0.2699    1.0850    0.8646 O   0  0  0  0  0  0  0  0  0  0  0  0
   -1.2216    2.3651    0.6303 P   0  0  1  0  0  0  0  0  0  0  0  0
   -0.6785    3.3697   -0.2634 O   0  0  0  0  0  0  0  0  0  0  0  0
   -2.6778    1.7973    0.3642 O   0  0  0  0  0  0  0  0  0  0  0  0
   -1.2352    2.9409    2.1134 O   0  0  0  0  0  0  0  0  0  0  0  0
   -2.0387    2.4055    3.1781 C   0  0  0  0  0  0  0  0  0  0  0  0
   -1.1770    1.6082    4.1690 C   0  0  2  0  0  0  0  0  0  0  0  0
   -1.4443    1.8772    5.2216 H   0  0  0  0  0  0  0  0  0  0  0  0
    0.3293    1.7424    3.9478 C   0  0  0  0  0  0  0  0  0  0  0  0
    0.9674    1.1569    5.0780 O   0  0  0  0  0  0  0  0  0  0  0  0
    1.4033    1.9835    6.0662 C   0  0  0  0  0  0  0  0  0  0  0  0
    1.3152    3.1807    5.9901 O   0  0  0  0  0  0  0  0  0  0  0  0
    1.9523    1.1556    7.1882 C   0  0  0  0  0  0  0  0  0  0  0  0
    0.8033    0.7718    8.1329 C   0  0  0  0  0  0  0  0  0  0  0  0
    0.3280    1.9678    8.9539 C   0  0  0  0  0  0  0  0  0  0  0  0
   -1.4917    0.2304    3.9274 O   0  0  0  0  0  0  0  0  0  0  0  0
   -1.7841   -0.5649    4.9887 C   0  0  0  0  0  0  0  0  0  0  0  0
   -1.9208   -0.1372    6.1050 O   0  0  0  0  0  0  0  0  0  0  0  0
   -1.9145   -1.9878    4.5373 C   0  0  0  0  0  0  0  0  0  0  0  0
   -2.9852   -2.1204    3.4484 C   0  0  0  0  0  0  0  0  0  0  0  0
   -3.2143   -3.5871    3.0914 C   0  0  0  0  0  0  0  0  0  0  0  0
   -0.1880   -0.6106    2.5543 H   0  0  0  0  0  0  0  0  0  0  0  0
   -0.7262   -3.6610    1.4877 H   0  0  0  0  0  0  0  0  0  0  0  0
    0.0106   -4.4486   -1.7180 H   0  0  0  0  0  0  0  0  0  0  0  0
    1.7329   -0.9372   -5.7131 H   0  0  0  0  0  0  0  0  0  0  0  0
    0.1646   -3.4917   -3.7889 H   0  0  0  0  0  0  0  0  0  0  0  0
   -2.3361   -0.1305   -2.2646 H   0  0  0  0  0  0  0  0  0  0  0  0
   -2.5824    1.0366   -0.3416 H   0  0  0  0  0  0  0  0  0  0  0  0
   -2.9340    1.8173    2.8882 H   0  0  0  0  0  0  0  0  0  0  0  0
   -2.3870    3.3604    3.6428 H   0  0  0  0  0  0  0  0  0  0  0  0
    0.6410    2.7948    3.7965 H   0  0  0  0  0  0  0  0  0  0  0  0
    0.7056    1.1213    3.1087 H   0  0  0  0  0  0  0  0  0  0  0  0
    2.7297    1.7319    7.7317 H   0  0  0  0  0  0  0  0  0  0  0  0
    2.4487    0.2430    6.7981 H   0  0  0  0  0  0  0  0  0  0  0  0
    1.1332   -0.0442    8.8041 H   0  0  0  0  0  0  0  0  0  0  0  0
   -0.0456    0.3502    7.5501 H   0  0  0  0  0  0  0  0  0  0  0  0
    1.1001    2.3188    9.6470 H   0  0  0  0  0  0  0  0  0  0  0  0
   -0.5607    1.7148    9.5435 H   0  0  0  0  0  0  0  0  0  0  0  0
    0.0596    2.8162    8.3095 H   0  0  0  0  0  0  0  0  0  0  0  0
   -2.1614   -2.6286    5.4108 H   0  0  0  0  0  0  0  0  0  0  0  0
   -0.9335   -2.3493    4.1547 H   0  0  0  0  0  0  0  0  0  0  0  0
   -2.6759   -1.5502    2.5468 H   0  0  0  0  0  0  0  0  0  0  0  0
   -3.9345   -1.6584    3.7835 H   0  0  0  0  0  0  0  0  0  0  0  0
   -2.2817   -4.0957    2.8224 H   0  0  0  0  0  0  0  0  0  0  0  0
   -3.8904   -3.6836    2.2326 H   0  0  0  0  0  0  0  0  0  0  0  0
   -3.6624   -4.1414    3.9245 H   0  0  0  0  0  0  0  0  0  0  0  0
  1  3  1  0  0  0  0
  1  2  1  6  0  0  0
  1 22  1  0  0  0  0
  3  5  1  0  0  0  0
  3 21  1  0  0  0  0
  3  4  1  6  0  0  0
  5  7  1  0  0  0  0
  5  6  1  6  0  0  0
  7  9  1  0  0  0  0
  7  8  1  6  0  0  0
  9 10  1  1  0  0  0
  9 14  1  0  0  0  0
  9 11  1  0  0  0  0
 11  1  1  0  0  0  0
 11 12  1  1  0  0  0
 11 13  1  0  0  0  0
 13 43  1  0  0  0  0
 14 44  1  0  0  0  0
 15 45  1  0  0  0  0
 15  7  1  0  0  0  0
 16  5  1  0  0  0  0
 17 19  1  0  0  0  0
 17 20  1  0  0  0  0
 17 16  1  0  0  0  0
 18 17  2  0  0  0  0
 20 47  1  0  0  0  0
 23 24  2  6  0  0  0
 23 22  1  0  0  0  0
 23 26  1  0  0  0  0
 25 23  1  0  0  0  0
 26 27  1  0  0  0  0
 27 51  1  0  0  0  0
 27 28  1  0  0  0  0
 28 29  1  1  0  0  0
 30 28  1  0  0  0  0
 30 31  1  0  0  0  0
 31 32  1  0  0  0  0
 32 34  1  0  0  0  0
 33 32  2  0  0  0  0
 34 54  1  0  0  0  0
 34 35  1  0  0  0  0
 35 56  1  0  0  0  0
 35 36  1  0  0  0  0
 36 59  1  0  0  0  0
 36 58  1  0  0  0  0
 37 28  1  0  0  0  0
 37 38  1  0  0  0  0
 38 39  2  0  0  0  0
 40 38  1  0  0  0  0
 40 61  1  0  0  0  0
 41 64  1  0  0  0  0
 41 40  1  0  0  0  0
 42 41  1  0  0  0  0
 42 67  1  0  0  0  0
 46 19  1  0  0  0  0
 48 21  1  0  0  0  0
 49 25  1  0  0  0  0
 50 27  1  0  0  0  0
 52 30  1  0  0  0  0
 53 30  1  0  0  0  0
 55 34  1  0  0  0  0
 57 35  1  0  0  0  0
 60 36  1  0  0  0  0
 62 40  1  0  0  0  0
 63 41  1  0  0  0  0
 65 42  1  0  0  0  0
 66 42  1  0  0  0  0
M  END
$$$$
