rmsd236.gzmat
 OpenBabel08211713423D

 67 67  0  0  1  0  0  0  0  0999 V2000
    0.0000    0.0000    0.0000 C   0  0  2  0  0  0  0  0  0  0  0  0
    1.1321    0.0000    0.0000 H   0  0  0  0  0  0  0  0  0  0  0  0
   -0.5135    0.0000   -1.4550 C   0  0  1  0  0  0  0  0  0  0  0  0
   -0.2674    0.9452   -1.9901 H   0  0  0  0  0  0  0  0  0  0  0  0
    0.0387   -1.2392   -2.2098 C   0  0  1  0  0  0  0  0  0  0  0  0
    1.1537   -1.2394   -2.2238 H   0  0  0  0  0  0  0  0  0  0  0  0
   -0.5114   -2.5064   -1.5220 C   0  0  2  0  0  0  0  0  0  0  0  0
   -1.6104   -2.6225   -1.6610 H   0  0  0  0  0  0  0  0  0  0  0  0
   -0.1192   -2.5353   -0.0338 C   0  0  1  0  0  0  0  0  0  0  0  0
    0.9665   -2.7575    0.0959 H   0  0  0  0  0  0  0  0  0  0  0  0
   -0.5075   -1.2516    0.7420 C   0  0  1  0  0  0  0  0  0  0  0  0
   -1.6028   -1.2287    0.9506 H   0  0  0  0  0  0  0  0  0  0  0  0
    0.1609   -1.4376    1.9676 O   0  0  0  0  0  0  0  0  0  0  0  0
   -0.8470   -3.6311    0.4865 O   0  0  0  0  0  0  0  0  0  0  0  0
    0.1392   -3.6026   -2.1547 O   0  0  0  0  0  0  0  0  0  0  0  0
   -0.5755   -1.0688   -3.4880 O   0  0  0  0  0  0  0  0  0  0  0  0
    0.0130   -1.6578   -4.8632 P   0  0  0  0  0  0  0  0  0  0  0  0
   -0.6232   -0.9788   -5.9761 O   0  0  0  0  0  0  0  0  0  0  0  0
    1.5916   -1.4828   -4.6584 O   0  0  0  0  0  0  0  0  0  0  0  0
   -0.1929   -3.2174   -4.7977 O   0  0  0  0  0  0  0  0  0  0  0  0
   -1.9281   -0.1299   -1.3864 O   0  0  0  0  0  0  0  0  0  0  0  0
   -0.1656    1.2387    0.6589 O   0  0  0  0  0  0  0  0  0  0  0  0
   -1.4865    2.0042    1.1599 P   0  0  1  0  0  0  0  0  0  0  0  0
   -1.0563    3.2948    1.6763 O   0  0  0  0  0  0  0  0  0  0  0  0
   -2.5461    2.0840   -0.0072 O   0  0  0  0  0  0  0  0  0  0  0  0
   -2.1500    0.9028    2.1250 O   0  0  0  0  0  0  0  0  0  0  0  0
   -2.5038    1.1867    3.4842 C   0  0  0  0  0  0  0  0  0  0  0  0
   -1.3500    0.7937    4.4216 C   0  0  2  0  0  0  0  0  0  0  0  0
   -0.8089   -0.1118    4.0654 H   0  0  0  0  0  0  0  0  0  0  0  0
   -1.8386    0.6323    5.8745 C   0  0  0  0  0  0  0  0  0  0  0  0
   -2.9129   -0.2958    5.8383 O   0  0  0  0  0  0  0  0  0  0  0  0
   -2.7979   -1.4379    6.5730 C   0  0  0  0  0  0  0  0  0  0  0  0
   -1.8110   -1.7054    7.2027 O   0  0  0  0  0  0  0  0  0  0  0  0
   -4.0653   -2.2283    6.4489 C   0  0  0  0  0  0  0  0  0  0  0  0
   -5.2220   -1.4760    7.1209 C   0  0  0  0  0  0  0  0  0  0  0  0
   -5.0182   -1.3603    8.6305 C   0  0  0  0  0  0  0  0  0  0  0  0
   -0.4900    1.9271    4.5106 O   0  0  0  0  0  0  0  0  0  0  0  0
    0.7443    1.8796    3.9538 C   0  0  0  0  0  0  0  0  0  0  0  0
    1.2261    0.8666    3.5124 O   0  0  0  0  0  0  0  0  0  0  0  0
    1.3790    3.2345    4.0011 C   0  0  0  0  0  0  0  0  0  0  0  0
    0.9195    4.0644    5.2047 C   0  0  0  0  0  0  0  0  0  0  0  0
    1.4645    5.4886    5.1182 C   0  0  0  0  0  0  0  0  0  0  0  0
    0.3813   -0.5841    2.4165 H   0  0  0  0  0  0  0  0  0  0  0  0
   -0.7561   -3.6539    1.4662 H   0  0  0  0  0  0  0  0  0  0  0  0
   -0.1255   -4.4412   -1.7120 H   0  0  0  0  0  0  0  0  0  0  0  0
    1.9765   -0.9937   -5.4664 H   0  0  0  0  0  0  0  0  0  0  0  0
   -0.0102   -3.5280   -3.8153 H   0  0  0  0  0  0  0  0  0  0  0  0
   -2.3008   -0.2176   -2.2973 H   0  0  0  0  0  0  0  0  0  0  0  0
   -2.4929    1.1981   -0.5589 H   0  0  0  0  0  0  0  0  0  0  0  0
   -3.3642    0.4850    3.6059 H   0  0  0  0  0  0  0  0  0  0  0  0
   -2.8532    2.2174    3.6934 H   0  0  0  0  0  0  0  0  0  0  0  0
   -2.2778    1.5644    6.2750 H   0  0  0  0  0  0  0  0  0  0  0  0
   -1.0171    0.3035    6.5382 H   0  0  0  0  0  0  0  0  0  0  0  0
   -3.9234   -3.2266    6.9165 H   0  0  0  0  0  0  0  0  0  0  0  0
   -4.2969   -2.4165    5.3793 H   0  0  0  0  0  0  0  0  0  0  0  0
   -6.1745   -2.0001    6.9068 H   0  0  0  0  0  0  0  0  0  0  0  0
   -5.3269   -0.4658    6.6736 H   0  0  0  0  0  0  0  0  0  0  0  0
   -4.8723   -2.3422    9.0966 H   0  0  0  0  0  0  0  0  0  0  0  0
   -5.8830   -0.8932    9.1157 H   0  0  0  0  0  0  0  0  0  0  0  0
   -4.1385   -0.7518    8.8765 H   0  0  0  0  0  0  0  0  0  0  0  0
    1.1208    3.7615    3.0492 H   0  0  0  0  0  0  0  0  0  0  0  0
    2.4832    3.1247    3.9948 H   0  0  0  0  0  0  0  0  0  0  0  0
    1.2464    3.5832    6.1457 H   0  0  0  0  0  0  0  0  0  0  0  0
   -0.1900    4.0949    5.2459 H   0  0  0  0  0  0  0  0  0  0  0  0
    2.5584    5.5077    5.0673 H   0  0  0  0  0  0  0  0  0  0  0  0
    1.1709    6.0785    5.9945 H   0  0  0  0  0  0  0  0  0  0  0  0
    1.0770    6.0051    4.2312 H   0  0  0  0  0  0  0  0  0  0  0  0
  1  3  1  0  0  0  0
  1  2  1  6  0  0  0
  1 22  1  0  0  0  0
  3  5  1  0  0  0  0
  3 21  1  0  0  0  0
  3  4  1  6  0  0  0
  5  7  1  0  0  0  0
  5  6  1  6  0  0  0
  7  9  1  0  0  0  0
  7  8  1  6  0  0  0
  9 10  1  1  0  0  0
  9 14  1  0  0  0  0
  9 11  1  0  0  0  0
 11  1  1  0  0  0  0
 11 12  1  1  0  0  0
 11 13  1  0  0  0  0
 13 43  1  0  0  0  0
 14 44  1  0  0  0  0
 15 45  1  0  0  0  0
 15  7  1  0  0  0  0
 16  5  1  0  0  0  0
 17 20  1  0  0  0  0
 17 19  1  0  0  0  0
 17 16  1  0  0  0  0
 18 17  2  0  0  0  0
 20 47  1  0  0  0  0
 22 23  1  0  0  0  0
 23 24  2  1  0  0  0
 23 26  1  0  0  0  0
 25 23  1  0  0  0  0
 26 27  1  0  0  0  0
 27 50  1  0  0  0  0
 27 51  1  0  0  0  0
 27 28  1  0  0  0  0
 28 29  1  6  0  0  0
 28 37  1  0  0  0  0
 28 30  1  0  0  0  0
 30 52  1  0  0  0  0
 30 53  1  0  0  0  0
 31 30  1  0  0  0  0
 31 32  1  0  0  0  0
 32 33  2  0  0  0  0
 34 32  1  0  0  0  0
 34 54  1  0  0  0  0
 34 35  1  0  0  0  0
 35 36  1  0  0  0  0
 36 60  1  0  0  0  0
 36 58  1  0  0  0  0
 36 59  1  0  0  0  0
 38 40  1  0  0  0  0
 38 37  1  0  0  0  0
 39 38  2  0  0  0  0
 40 41  1  0  0  0  0
 41 64  1  0  0  0  0
 41 63  1  0  0  0  0
 42 41  1  0  0  0  0
 42 66  1  0  0  0  0
 46 19  1  0  0  0  0
 48 21  1  0  0  0  0
 49 25  1  0  0  0  0
 55 34  1  0  0  0  0
 56 35  1  0  0  0  0
 57 35  1  0  0  0  0
 61 40  1  0  0  0  0
 62 40  1  0  0  0  0
 65 42  1  0  0  0  0
 67 42  1  0  0  0  0
M  END
$$$$
