67
rmsd217.gzmat
C          0.00000        0.00000        0.00000
H          1.13090        0.00000        0.00000
C         -0.51250        0.00000       -1.45450
H         -0.24650        0.93530       -1.99880
C          0.01870       -1.25080       -2.20640
H          1.13250       -1.24850       -2.25450
C         -0.50000       -2.52360       -1.50300
H         -1.59680       -2.66350       -1.63810
C         -0.10460       -2.54210       -0.01600
H          0.98270       -2.75510        0.11580
C         -0.50990       -1.25510        0.73490
H         -1.60760       -1.22740        0.92420
O          0.17410       -1.40240        1.96050
O         -0.80670       -3.64960        0.52070
O          0.17740       -3.60580       -2.13090
O         -0.64030       -1.09500       -3.46580
P         -0.09770       -1.67150       -4.86320
O         -0.85270       -1.06560       -5.94260
O          1.46740       -1.36070       -4.74250
O         -0.19030       -3.24140       -4.77080
O         -1.93020       -0.09290       -1.38680
O         -0.17620        1.20510        0.71070
P         -1.48790        2.04840        1.09700
O         -1.01530        3.25070        1.76140
O         -2.35250        2.27740       -0.20320
O         -2.41620        0.98480        1.86800
C         -2.78440        1.14550        3.24570
C         -1.96740        0.11760        4.04420
H         -1.89270       -0.85370        3.48430
C         -2.53450       -0.12640        5.44630
O         -2.08000       -1.42110        5.82950
C         -1.00990       -1.49930        6.66720
O         -0.58630       -0.55170        7.27290
C         -0.50360       -2.90900        6.69890
C          1.01610       -2.88400        6.48360
C          1.59010       -4.29740        6.51490
O         -0.60070        0.47950        4.10790
C         -0.21390        1.68550        4.62530
O         -0.98030        2.41180        5.19610
C          1.24180        1.87450        4.33620
C          1.95630        2.44990        5.56370
C          2.02400        1.43490        6.70160
H          0.00930       -0.63330        2.55590
H         -0.90900       -3.53090        1.49200
H         -0.07950       -4.45280       -1.69890
H          1.83980       -1.18440       -5.67620
H          0.01130       -3.52400       -3.78690
H         -2.30290       -0.21710       -2.29460
H         -2.40970        1.36600       -0.71370
H         -3.86260        0.86990        3.21460
H         -2.70070        2.16620        3.67620
H         -3.63440       -0.22550        5.45400
H         -2.22600        0.65100        6.17400
H         -0.99870       -3.53810        5.93030
H         -0.75390       -3.37040        7.67720
H          1.49600       -2.25460        7.26190
H          1.25590       -2.39750        5.51690
H          1.38440       -4.79750        7.46810
H          2.67870       -4.28330        6.38210
H          1.17300       -4.92040        5.71570
H          1.33610        2.56670        3.46650
H          1.71590        0.92520        4.01110
H          1.43140        3.36650        5.90710
H          2.97690        2.77080        5.27920
H          1.01770        1.14950        7.04670
H          2.55230        1.84210        7.57050
H          2.53400        0.51440        6.40220
