67
rmsd53.gzmat
C          0.00000        0.00000        0.00000
H          1.11430        0.00000        0.00000
C         -0.55800        0.00000       -1.44070
H         -0.27590        0.90820       -2.01780
C         -0.06220       -1.27330       -2.18970
H          1.05060       -1.29490       -2.24370
C         -0.60650       -2.52080       -1.46070
H         -1.71150       -2.61780       -1.56660
C         -0.17320       -2.53460        0.01720
H          0.91430       -2.75700        0.12350
C         -0.54380       -1.23760        0.75880
H         -1.64000       -1.15280        0.94230
O          0.11450       -1.37380        2.00320
O         -0.89420       -3.61930        0.56820
O          0.01420       -3.63510       -2.09060
O         -0.72610       -1.13810       -3.43790
P         -0.16940       -1.71060       -4.84490
O          1.09820       -1.21220       -5.33660
O         -0.34700       -3.28340       -4.73420
O         -1.39050       -1.24410       -5.74770
O         -1.95630       -0.08830       -1.30170
O         -0.60470        1.05270        0.77350
P          0.00410        2.52320        0.90650
O          0.35630        2.89840        2.26280
O          1.13680        2.52030       -0.22360
O         -1.15090        3.48420        0.39350
C         -1.78920        3.31910       -0.88890
C         -3.28260        3.53410       -0.57120
H         -3.43230        4.41080        0.10840
C         -3.95580        2.28480       -0.00680
O         -5.22090        2.65180        0.53850
C         -6.27270        2.76310       -0.30810
O         -6.19110        2.54270       -1.49030
C         -7.49530        3.19590        0.44840
C         -7.81270        2.22030        1.58820
C         -8.13620        0.82400        1.06140
O         -3.94000        3.98860       -1.74680
C         -4.00340        3.18130       -2.84090
O         -3.39630        2.14240       -2.91640
C         -4.85430        3.83150       -3.88330
C         -4.72970        3.07450       -5.20890
C         -5.58970        3.72720       -6.28750
H          0.05410       -0.53840        2.51570
H         -0.74220       -3.66740        1.53730
H         -0.26880       -4.46650       -1.64740
H         -0.19350       -3.56670       -3.74820
H         -2.26900       -1.51160       -5.27650
H         -2.41140        0.33040       -2.07270
H          1.81990        3.24870       -0.02330
H         -1.63080        2.35900       -1.41910
H         -1.40450        4.14210       -1.52810
H         -3.42780        1.89060        0.88630
H         -4.06880        1.47480       -0.75110
H         -8.35350        3.26730       -0.25360
H         -7.33880        4.21890        0.85210
H         -8.66430        2.60900        2.18080
H         -6.95490        2.16980        2.29060
H         -9.02230        0.82530        0.41680
H         -8.32720        0.12560        1.88430
H         -7.30610        0.41310        0.47250
H         -4.58250        4.90020       -4.00250
H         -5.91400        3.83300       -3.53220
H         -5.03170        2.01660       -5.06290
H         -3.66960        3.03480       -5.52880
H         -6.64390        3.77010       -5.98970
H         -5.53900        3.16310       -7.22650
H         -5.26270        4.75020       -6.50300
