67

C         -0.26970        0.09790        0.08980
H          0.77920        0.33520       -0.15200
C         -1.12050        0.13420       -1.18160
H         -0.96490        1.10330       -1.67120
C         -0.66460       -0.95170       -2.15330
H          0.37170       -0.75160       -2.47460
C         -0.72800       -2.32630       -1.50370
H         -1.77570       -2.53820       -1.22840
C          0.12520       -2.33910       -0.24230
H          1.17260       -2.11260       -0.52930
C         -0.32850       -1.27290        0.74960
H         -1.38030       -1.47100        1.02610
O          0.52450       -1.36750        1.86790
O          0.03590       -3.63640        0.30310
O         -0.25040       -3.30380       -2.42140
O         -1.52630       -0.88970       -3.28210
P         -0.94370       -1.16510       -4.78470
O          0.37760       -0.54860       -5.02320
O         -1.10550       -2.75260       -4.94730
O         -2.12540       -0.58160       -5.69930
O         -2.48270       -0.04740       -0.86420
O         -0.76820        1.04190        1.04820
P         -0.43740        2.62310        1.07890
O          0.61600        3.08000        2.00270
O         -0.12560        2.95560       -0.48250
O         -1.88000        3.24920        1.38620
C         -3.16020        2.68960        1.09460
C         -3.74690        3.25210       -0.19120
H         -3.52750        4.32740       -0.26070
C         -5.25280        3.03070       -0.30410
O         -5.52540        1.62740       -0.34960
C         -5.72370        1.06170       -1.56910
O         -5.79610        1.70050       -2.58980
C         -5.82800       -0.43940       -1.44810
C         -6.04730       -1.16110       -2.77810
C         -4.82830       -1.13350       -3.70190
O         -3.13500        2.58100       -1.30750
C         -2.94990        3.29090       -2.47440
O         -3.02980        4.48800       -2.50040
C         -2.72230        2.38070       -3.65290
C         -1.70560        2.92300       -4.65900
C         -0.26640        2.85330       -4.14790
H          0.28170       -0.66480        2.48750
H          0.50820       -3.62300        1.14850
H         -0.10220       -4.11830       -1.91550
H         -0.78050       -3.19220       -4.12420
H         -2.96120       -1.06100       -5.59060
H         -2.92150        0.79600       -1.06860
H          0.61850        3.57330       -0.55130
H         -3.81060        2.97580        1.93360
H         -3.10300        1.59350        1.05000
H         -5.63510        3.51490       -1.21230
H         -5.77360        3.43450        0.57590
H         -6.64390       -0.64780       -0.73540
H         -4.90400       -0.78550       -0.95430
H         -6.91640       -0.71800       -3.29140
H         -6.31480       -2.20700       -2.55450
H         -4.59470       -0.10460       -4.01050
H         -5.02060       -1.73220       -4.60890
H         -3.93600       -1.53690       -3.20120
H         -3.72200        2.29400       -4.11430
H         -2.46030        1.36940       -3.31870
H         -1.97850        3.96170       -4.90580
H         -1.79480        2.33250       -5.58400
H         -0.16650        3.34510       -3.16640
H          0.42490        3.35180       -4.84490
H          0.06730        1.80810       -4.05730
