67

C          0.21240       -0.10160        0.24080
H          1.30600       -0.22450        0.18050
C         -0.29530       -0.05350       -1.20360
H          0.21440        0.77200       -1.73090
C          0.00450       -1.36410       -1.94680
H          1.08750       -1.46800       -2.11760
C         -0.51250       -2.57130       -1.17000
H         -1.61410       -2.51490       -1.12660
C          0.03360       -2.57630        0.24590
H          1.14070       -2.62240        0.18980
C         -0.32920       -1.31010        1.01060
H         -1.42800       -1.22800        1.08230
O          0.26840       -1.44880        2.27490
O         -0.47170       -3.73380        0.87100
O         -0.10590       -3.76280       -1.83180
O         -0.68050       -1.24120       -3.19260
P         -0.18840       -1.89960       -4.61870
O         -0.82300       -1.24230       -5.77170
O          1.42690       -1.72680       -4.52750
O         -0.43100       -3.45460       -4.43680
O         -1.70580        0.15270       -1.23580
O          0.04660        1.10970        0.96530
P         -1.22880        2.07790        1.24950
O         -0.85850        3.14960        2.19310
O         -1.75170        2.54970       -0.17660
O         -2.40900        1.08160        1.76560
C         -2.90590        1.13860        3.10850
C         -2.18500        0.08780        3.93880
H         -2.21320       -0.85270        3.36890
C         -2.77280       -0.22640        5.30940
O         -2.17760       -1.44980        5.75300
C         -1.13080       -1.37080        6.61140
O         -0.81580       -0.36050        7.18750
C         -0.38240       -2.67710        6.66460
C          0.69910       -2.69500        5.56750
C          1.48730       -4.00140        5.53660
O         -0.77370        0.37700        3.99940
C         -0.32160        1.51160        4.64780
O         -1.05030        2.20930        5.29350
C          1.14210        1.73360        4.37920
C          1.86810        2.39900        5.54880
C          2.08160        1.45820        6.73450
H          0.02000       -0.70000        2.85380
H         -0.19210       -3.69470        1.79800
H         -0.28180       -4.49900       -1.22330
H          1.72490       -1.07750       -5.18220
H         -0.32030       -3.75930       -3.49950
H         -1.98870       -0.07770       -2.13950
H         -1.96250        1.75920       -0.73330
H         -3.97860        0.90060        3.05890
H         -2.77210        2.14550        3.52590
H         -3.85110       -0.41730        5.20880
H         -2.59410        0.57620        6.03330
H         -1.08360       -3.51250        6.51750
H          0.08120       -2.76770        7.65790
H          1.38160       -1.84490        5.73550
H          0.22620       -2.51660        4.58860
H          1.99970       -4.18530        6.49510
H          2.25340       -3.98230        4.74560
H          0.82640       -4.86320        5.34480
H          1.14690        2.38150        3.48570
H          1.61360        0.78180        4.08940
H          1.28180        3.27740        5.86240
H          2.83710        2.77950        5.18610
H          1.12730        1.06220        7.11360
H          2.58940        1.97310        7.56520
H          2.70850        0.59650        6.44620
