67

C          0.08820        0.19440        0.40270
H          1.14290        0.35080        0.12030
C         -0.66480       -0.18250       -0.87480
H         -0.56970        0.63290       -1.60970
C         -0.09890       -1.47610       -1.47440
H          0.92250       -1.30050       -1.84850
C         -0.09250       -2.60890       -0.45150
H         -1.14040       -2.85180       -0.20650
C          0.62060       -2.20260        0.82750
H          1.68380       -1.99870        0.58780
C          0.01970       -0.94030        1.42570
H         -1.04220       -1.12740        1.64520
O          0.73750       -0.66150        2.60120
O          0.52140       -3.29790        1.71370
O          0.55480       -3.73950       -1.02170
O         -0.97350       -1.80450       -2.55290
P         -0.47540       -2.42330       -3.99320
O         -1.52490       -2.31850       -5.01920
O          0.87250       -1.56590       -4.29830
O          0.07850       -3.86320       -3.62850
O         -2.04710       -0.40320       -0.58230
O         -0.33320        1.39260        1.04360
P         -1.58390        2.35970        0.64270
O         -1.50080        2.88330       -0.73470
O         -2.90850        1.53430        1.04240
O         -1.49230        3.45010        1.80710
C         -1.99660        3.30510        3.13990
C         -1.11400        2.45970        4.05050
H         -1.43790        2.65220        5.08240
C          0.36840        2.78360        3.89480
O          1.18970        1.82840        4.56490
C          1.22670        1.87320        5.91750
O          0.64660        2.71260        6.56070
C          2.04110        0.72920        6.47120
C          1.36540       -0.63200        6.22530
C          0.00180       -0.75950        6.90270
O         -1.26340        1.04420        3.81010
C         -2.34230        0.42940        4.37250
O         -3.19490        1.03570        4.96700
C         -2.32570       -1.05920        4.13440
C         -3.27000       -1.47390        2.99280
C         -3.15250       -2.96150        2.66830
H          0.28070        0.05550        3.07720
H          0.86990       -2.99870        2.56710
H          0.63380       -4.41280       -0.32810
H          0.69630       -0.90930       -4.98920
H          0.29210       -3.97980       -2.66800
H         -2.44060       -0.75680       -1.39850
H         -2.95610        0.76580        0.43000
H         -3.01420        2.89370        3.12540
H         -2.03810        4.32620        3.54480
H          0.55220        3.79420        4.28880
H          0.66470        2.73150        2.84270
H          2.17220        0.91410        7.54690
H          3.03060        0.74260        5.98740
H          2.04000       -1.42030        6.59850
H          1.27230       -0.79330        5.13960
H          0.08740       -0.65540        7.99630
H         -0.45700       -1.73800        6.69320
H         -0.70020        0.01810        6.56250
H         -2.64850       -1.53850        5.07090
H         -1.29860       -1.38400        3.92020
H         -3.04090       -0.87490        2.09830
H         -4.30300       -1.21410        3.27450
H         -2.12420       -3.22340        2.36850
H         -3.82910       -3.24420        1.84690
H         -3.41030       -3.58200        3.54220
