
     RDKit          3D

 67 67  0  0  0  0  0  0  0  0999 V2000
    0.2124   -0.1016    0.2408 C   0  0  2  0  0  0  0  0  0  0  0  0
    1.3060   -0.2245    0.1805 H   0  0  0  0  0  0  0  0  0  0  0  0
   -0.2953   -0.0535   -1.2036 C   0  0  1  0  0  0  0  0  0  0  0  0
    0.2144    0.7720   -1.7309 H   0  0  0  0  0  0  0  0  0  0  0  0
    0.0045   -1.3641   -1.9468 C   0  0  1  0  0  0  0  0  0  0  0  0
    1.0875   -1.4680   -2.1176 H   0  0  0  0  0  0  0  0  0  0  0  0
   -0.5125   -2.5713   -1.1700 C   0  0  2  0  0  0  0  0  0  0  0  0
   -1.6141   -2.5149   -1.1266 H   0  0  0  0  0  0  0  0  0  0  0  0
    0.0336   -2.5763    0.2459 C   0  0  1  0  0  0  0  0  0  0  0  0
    1.1407   -2.6224    0.1898 H   0  0  0  0  0  0  0  0  0  0  0  0
   -0.3292   -1.3101    1.0106 C   0  0  1  0  0  0  0  0  0  0  0  0
   -1.4280   -1.2280    1.0823 H   0  0  0  0  0  0  0  0  0  0  0  0
    0.2684   -1.4488    2.2749 O   0  0  0  0  0  0  0  0  0  0  0  0
   -0.4717   -3.7338    0.8710 O   0  0  0  0  0  0  0  0  0  0  0  0
   -0.1059   -3.7628   -1.8318 O   0  0  0  0  0  0  0  0  0  0  0  0
   -0.6805   -1.2412   -3.1926 O   0  0  0  0  0  0  0  0  0  0  0  0
   -0.1884   -1.8996   -4.6187 P   0  0  0  0  0  0  0  0  0  0  0  0
   -0.8230   -1.2423   -5.7717 O   0  0  0  0  0  0  0  0  0  0  0  0
    1.4269   -1.7268   -4.5275 O   0  0  0  0  0  0  0  0  0  0  0  0
   -0.4310   -3.4546   -4.4368 O   0  0  0  0  0  0  0  0  0  0  0  0
   -1.7058    0.1527   -1.2358 O   0  0  0  0  0  0  0  0  0  0  0  0
    0.0466    1.1097    0.9653 O   0  0  0  0  0  0  0  0  0  0  0  0
   -1.2288    2.0779    1.2495 P   0  0  1  0  0  0  0  0  0  0  0  0
   -0.8585    3.1496    2.1931 O   0  0  0  0  0  0  0  0  0  0  0  0
   -1.7517    2.5497   -0.1766 O   0  0  0  0  0  0  0  0  0  0  0  0
   -2.4090    1.0816    1.7656 O   0  0  0  0  0  0  0  0  0  0  0  0
   -2.9059    1.1386    3.1085 C   0  0  0  0  0  0  0  0  0  0  0  0
   -2.1850    0.0878    3.9388 C   0  0  2  0  0  0  0  0  0  0  0  0
   -2.2132   -0.8527    3.3689 H   0  0  0  0  0  0  0  0  0  0  0  0
   -2.7728   -0.2264    5.3094 C   0  0  0  0  0  0  0  0  0  0  0  0
   -2.1776   -1.4498    5.7530 O   0  0  0  0  0  0  0  0  0  0  0  0
   -1.1308   -1.3708    6.6114 C   0  0  0  0  0  0  0  0  0  0  0  0
   -0.8158   -0.3605    7.1875 O   0  0  0  0  0  0  0  0  0  0  0  0
   -0.3824   -2.6771    6.6646 C   0  0  0  0  0  0  0  0  0  0  0  0
    0.6991   -2.6950    5.5675 C   0  0  0  0  0  0  0  0  0  0  0  0
    1.4873   -4.0014    5.5366 C   0  0  0  0  0  0  0  0  0  0  0  0
   -0.7737    0.3770    3.9994 O   0  0  0  0  0  0  0  0  0  0  0  0
   -0.3216    1.5116    4.6478 C   0  0  0  0  0  0  0  0  0  0  0  0
   -1.0503    2.2093    5.2935 O   0  0  0  0  0  0  0  0  0  0  0  0
    1.1421    1.7336    4.3792 C   0  0  0  0  0  0  0  0  0  0  0  0
    1.8681    2.3990    5.5488 C   0  0  0  0  0  0  0  0  0  0  0  0
    2.0816    1.4582    6.7345 C   0  0  0  0  0  0  0  0  0  0  0  0
    0.0200   -0.7000    2.8538 H   0  0  0  0  0  0  0  0  0  0  0  0
   -0.1921   -3.6947    1.7980 H   0  0  0  0  0  0  0  0  0  0  0  0
   -0.2818   -4.4990   -1.2233 H   0  0  0  0  0  0  0  0  0  0  0  0
    1.7249   -1.0775   -5.1822 H   0  0  0  0  0  0  0  0  0  0  0  0
   -0.3203   -3.7593   -3.4995 H   0  0  0  0  0  0  0  0  0  0  0  0
   -1.9887   -0.0777   -2.1395 H   0  0  0  0  0  0  0  0  0  0  0  0
   -1.9625    1.7592   -0.7333 H   0  0  0  0  0  0  0  0  0  0  0  0
   -3.9786    0.9006    3.0589 H   0  0  0  0  0  0  0  0  0  0  0  0
   -2.7721    2.1455    3.5259 H   0  0  0  0  0  0  0  0  0  0  0  0
   -3.8511   -0.4173    5.2088 H   0  0  0  0  0  0  0  0  0  0  0  0
   -2.5941    0.5762    6.0333 H   0  0  0  0  0  0  0  0  0  0  0  0
   -1.0836   -3.5125    6.5175 H   0  0  0  0  0  0  0  0  0  0  0  0
    0.0812   -2.7677    7.6579 H   0  0  0  0  0  0  0  0  0  0  0  0
    1.3816   -1.8449    5.7355 H   0  0  0  0  0  0  0  0  0  0  0  0
    0.2262   -2.5166    4.5886 H   0  0  0  0  0  0  0  0  0  0  0  0
    1.9997   -4.1853    6.4951 H   0  0  0  0  0  0  0  0  0  0  0  0
    2.2534   -3.9823    4.7456 H   0  0  0  0  0  0  0  0  0  0  0  0
    0.8264   -4.8632    5.3448 H   0  0  0  0  0  0  0  0  0  0  0  0
    1.1469    2.3815    3.4857 H   0  0  0  0  0  0  0  0  0  0  0  0
    1.6136    0.7818    4.0894 H   0  0  0  0  0  0  0  0  0  0  0  0
    1.2818    3.2774    5.8624 H   0  0  0  0  0  0  0  0  0  0  0  0
    2.8371    2.7795    5.1861 H   0  0  0  0  0  0  0  0  0  0  0  0
    1.1273    1.0622    7.1136 H   0  0  0  0  0  0  0  0  0  0  0  0
    2.5894    1.9731    7.5652 H   0  0  0  0  0  0  0  0  0  0  0  0
    2.7085    0.5965    6.4462 H   0  0  0  0  0  0  0  0  0  0  0  0
  1  2  1  6
  1  3  1  0
  1 11  1  0
  1 22  1  0
  3  4  1  6
  3  5  1  0
  3 21  1  0
  5  6  1  6
  5  7  1  0
  5 16  1  0
  7  8  1  1
  7  9  1  0
  7 15  1  0
  9 10  1  6
  9 11  1  0
  9 14  1  0
 11 12  1  1
 11 13  1  0
 13 43  1  0
 14 44  1  0
 15 45  1  0
 17 16  1  0
 17 18  2  0
 17 19  1  0
 17 20  1  0
 19 46  1  0
 20 47  1  0
 21 48  1  0
 23 22  1  6
 23 24  2  0
 23 25  1  0
 23 26  1  0
 25 49  1  0
 26 27  1  0
 27 28  1  0
 27 50  1  0
 27 51  1  0
 28 29  1  6
 28 30  1  0
 28 37  1  0
 30 31  1  0
 30 52  1  0
 30 53  1  0
 31 32  1  0
 32 33  2  0
 32 34  1  0
 34 35  1  0
 34 54  1  0
 34 55  1  0
 35 36  1  0
 35 56  1  0
 35 57  1  0
 36 58  1  0
 36 59  1  0
 36 60  1  0
 37 38  1  0
 38 39  2  0
 38 40  1  0
 40 41  1  0
 40 61  1  0
 40 62  1  0
 41 42  1  0
 41 63  1  0
 41 64  1  0
 42 65  1  0
 42 66  1  0
 42 67  1  0
M  END

