rmsd59.gzmat
 OpenBabel08211713423D

 67 67  0  0  1  0  0  0  0  0999 V2000
    0.0000    0.0000    0.0000 C   0  0  2  0  0  0  0  0  0  0  0  0
    1.1164    0.0000    0.0000 H   0  0  0  0  0  0  0  0  0  0  0  0
   -0.5665    0.0000   -1.4440 C   0  0  1  0  0  0  0  0  0  0  0  0
   -0.3724    0.9458   -1.9951 H   0  0  0  0  0  0  0  0  0  0  0  0
    0.0243   -1.2232   -2.1879 C   0  0  1  0  0  0  0  0  0  0  0  0
    1.1436   -1.2088   -2.1287 H   0  0  0  0  0  0  0  0  0  0  0  0
   -0.5303   -2.5000   -1.5209 C   0  0  2  0  0  0  0  0  0  0  0  0
   -1.6255   -2.6191   -1.6793 H   0  0  0  0  0  0  0  0  0  0  0  0
   -0.1497   -2.5348   -0.0268 C   0  0  1  0  0  0  0  0  0  0  0  0
    0.9358   -2.7588    0.1082 H   0  0  0  0  0  0  0  0  0  0  0  0
   -0.5388   -1.2497    0.7340 C   0  0  1  0  0  0  0  0  0  0  0  0
   -1.6371   -1.1853    0.9037 H   0  0  0  0  0  0  0  0  0  0  0  0
    0.0939   -1.4201    1.9872 O   0  0  0  0  0  0  0  0  0  0  0  0
   -0.8898   -3.6273    0.4818 O   0  0  0  0  0  0  0  0  0  0  0  0
    0.1427   -3.5854   -2.1481 O   0  0  0  0  0  0  0  0  0  0  0  0
   -0.5223   -1.0942   -3.4965 O   0  0  0  0  0  0  0  0  0  0  0  0
    0.2943   -1.5442   -4.8149 P   0  0  0  0  0  0  0  0  0  0  0  0
    1.5922   -0.9431   -5.0630 O   0  0  0  0  0  0  0  0  0  0  0  0
    0.2309   -3.1305   -4.7996 O   0  0  0  0  0  0  0  0  0  0  0  0
   -0.7760   -1.1130   -5.9072 O   0  0  0  0  0  0  0  0  0  0  0  0
   -1.9628   -0.2059   -1.3948 O   0  0  0  0  0  0  0  0  0  0  0  0
   -0.6371    1.1212    0.6200 O   0  0  0  0  0  0  0  0  0  0  0  0
    0.1046    2.3512    1.3129 P   0  0  1  0  0  0  0  0  0  0  0  0
   -0.8984    3.3391    1.6412 O   0  0  0  0  0  0  0  0  0  0  0  0
    0.8822    1.7260    2.5553 O   0  0  0  0  0  0  0  0  0  0  0  0
    1.3949    2.7146    0.4366 O   0  0  0  0  0  0  0  0  0  0  0  0
    1.3554    3.4205   -0.8105 C   0  0  0  0  0  0  0  0  0  0  0  0
    2.0281    2.4632   -1.8158 C   0  0  2  0  0  0  0  0  0  0  0  0
    1.5178    1.4659   -1.8576 H   0  0  0  0  0  0  0  0  0  0  0  0
    3.5137    2.2928   -1.5030 C   0  0  0  0  0  0  0  0  0  0  0  0
    4.0894    1.3094   -2.3539 O   0  0  0  0  0  0  0  0  0  0  0  0
    3.7467    0.0112   -2.1392 C   0  0  0  0  0  0  0  0  0  0  0  0
    3.0251   -0.3088   -1.2255 O   0  0  0  0  0  0  0  0  0  0  0  0
    4.3804   -0.8517   -3.1786 C   0  0  0  0  0  0  0  0  0  0  0  0
    4.6139   -2.2681   -2.6459 C   0  0  0  0  0  0  0  0  0  0  0  0
    5.6456   -2.2891   -1.5200 C   0  0  0  0  0  0  0  0  0  0  0  0
    1.7979    2.9064   -3.1415 O   0  0  0  0  0  0  0  0  0  0  0  0
    2.2623    4.1116   -3.5549 C   0  0  0  0  0  0  0  0  0  0  0  0
    2.8266    4.8779   -2.8174 O   0  0  0  0  0  0  0  0  0  0  0  0
    1.9408    4.2868   -5.0075 C   0  0  0  0  0  0  0  0  0  0  0  0
    0.9657    5.4573   -5.1790 C   0  0  0  0  0  0  0  0  0  0  0  0
   -0.4141    5.1328   -4.6103 C   0  0  0  0  0  0  0  0  0  0  0  0
    0.0381   -0.5990    2.5200 H   0  0  0  0  0  0  0  0  0  0  0  0
   -0.7736   -3.6901    1.4546 H   0  0  0  0  0  0  0  0  0  0  0  0
   -0.1535   -4.4324   -1.7481 H   0  0  0  0  0  0  0  0  0  0  0  0
    0.1916   -3.4468   -3.8110 H   0  0  0  0  0  0  0  0  0  0  0  0
   -1.6999   -1.4687   -5.6143 H   0  0  0  0  0  0  0  0  0  0  0  0
   -2.3833    0.5109   -0.8694 H   0  0  0  0  0  0  0  0  0  0  0  0
    1.8279    1.4443    2.2534 H   0  0  0  0  0  0  0  0  0  0  0  0
    1.9739    4.3267   -0.6168 H   0  0  0  0  0  0  0  0  0  0  0  0
    0.3689    3.7516   -1.1854 H   0  0  0  0  0  0  0  0  0  0  0  0
    3.6673    2.0124   -0.4430 H   0  0  0  0  0  0  0  0  0  0  0  0
    4.1153    3.1910   -1.7451 H   0  0  0  0  0  0  0  0  0  0  0  0
    5.3252   -0.4048   -3.5507 H   0  0  0  0  0  0  0  0  0  0  0  0
    3.7079   -0.8835   -4.0737 H   0  0  0  0  0  0  0  0  0  0  0  0
    4.9455   -2.9218   -3.4766 H   0  0  0  0  0  0  0  0  0  0  0  0
    3.6536   -2.6978   -2.2887 H   0  0  0  0  0  0  0  0  0  0  0  0
    6.5891   -1.8219   -1.8199 H   0  0  0  0  0  0  0  0  0  0  0  0
    5.8741   -3.3157   -1.2103 H   0  0  0  0  0  0  0  0  0  0  0  0
    5.2771   -1.7556   -0.6347 H   0  0  0  0  0  0  0  0  0  0  0  0
    1.5168    3.3527   -5.4418 H   0  0  0  0  0  0  0  0  0  0  0  0
    2.8830    4.4808   -5.5628 H   0  0  0  0  0  0  0  0  0  0  0  0
    0.8807    5.7110   -6.2544 H   0  0  0  0  0  0  0  0  0  0  0  0
    1.3754    6.3650   -4.6892 H   0  0  0  0  0  0  0  0  0  0  0  0
   -0.8524    4.2489   -5.0900 H   0  0  0  0  0  0  0  0  0  0  0  0
   -1.1086    5.9677   -4.7612 H   0  0  0  0  0  0  0  0  0  0  0  0
   -0.3730    4.9346   -3.5325 H   0  0  0  0  0  0  0  0  0  0  0  0
  1  3  1  0  0  0  0
  1 22  1  0  0  0  0
  1  2  1  1  0  0  0
  3  5  1  0  0  0  0
  3 21  1  0  0  0  0
  3  4  1  6  0  0  0
  5  6  1  6  0  0  0
  5  7  1  0  0  0  0
  7  9  1  0  0  0  0
  7  8  1  6  0  0  0
  9 10  1  1  0  0  0
  9 14  1  0  0  0  0
  9 11  1  0  0  0  0
 11  1  1  0  0  0  0
 11 12  1  1  0  0  0
 11 13  1  0  0  0  0
 13 43  1  0  0  0  0
 14 44  1  0  0  0  0
 15 45  1  0  0  0  0
 15  7  1  0  0  0  0
 16  5  1  0  0  0  0
 17 19  1  0  0  0  0
 17 16  1  0  0  0  0
 18 17  2  0  0  0  0
 19 46  1  0  0  0  0
 20 47  1  0  0  0  0
 20 17  1  0  0  0  0
 21 48  1  0  0  0  0
 22 23  1  0  0  0  0
 23 24  2  1  0  0  0
 23 25  1  0  0  0  0
 26 23  1  0  0  0  0
 27 50  1  0  0  0  0
 27 26  1  0  0  0  0
 28 29  1  1  0  0  0
 28 30  1  0  0  0  0
 28 27  1  0  0  0  0
 30 52  1  0  0  0  0
 31 32  1  0  0  0  0
 31 30  1  0  0  0  0
 32 33  2  0  0  0  0
 34 35  1  0  0  0  0
 34 32  1  0  0  0  0
 35 57  1  0  0  0  0
 35 36  1  0  0  0  0
 36 59  1  0  0  0  0
 36 60  1  0  0  0  0
 37 28  1  0  0  0  0
 38 37  1  0  0  0  0
 38 39  2  0  0  0  0
 40 38  1  0  0  0  0
 41 40  1  0  0  0  0
 41 64  1  0  0  0  0
 41 42  1  0  0  0  0
 42 67  1  0  0  0  0
 49 25  1  0  0  0  0
 51 27  1  0  0  0  0
 53 30  1  0  0  0  0
 54 34  1  0  0  0  0
 55 34  1  0  0  0  0
 56 35  1  0  0  0  0
 58 36  1  0  0  0  0
 61 40  1  0  0  0  0
 62 40  1  0  0  0  0
 63 41  1  0  0  0  0
 65 42  1  0  0  0  0
 66 42  1  0  0  0  0
M  END
$$$$
