67

C          0.27230        0.08000       -0.04700
H          1.34670       -0.04420       -0.25580
C         -0.46000       -0.06880       -1.38500
H         -0.05840        0.67880       -2.09150
C         -0.26870       -1.46620       -1.99300
H          0.77210       -1.59920       -2.32760
C         -0.62850       -2.55620       -0.98890
H         -1.70870       -2.49170       -0.77110
C          0.14640       -2.36600        0.30040
H          1.22980       -2.41100        0.06410
C         -0.12440       -1.01410        0.95170
H         -1.20230       -0.93010        1.16720
O          0.64240       -1.01840        2.12170
O         -0.20950       -3.42810        1.15470
O         -0.31360       -3.83030       -1.54030
O         -1.15220       -1.49770       -3.11500
P         -0.91760       -2.37180       -4.48800
O         -1.73800       -1.86900       -5.60140
O          0.69040       -2.23930       -4.70130
O         -1.13510       -3.87650       -4.04280
O         -1.86020        0.14000       -1.20910
O          0.18400        1.40270        0.47930
P         -1.05090        2.26960        1.05640
O         -0.62230        3.48350        1.78000
O         -2.01900        2.55360       -0.17620
O         -1.83110        1.17290        1.97070
C         -2.44290        1.49640        3.21830
C         -1.53200        1.15860        4.39040
H         -0.96280        0.24650        4.16410
C         -2.30680        0.97260        5.69280
O         -3.24220       -0.10000        5.58260
C         -2.75290       -1.35930        5.72940
O         -1.58860       -1.58590        5.93870
C         -3.84360       -2.39410        5.57760
C         -5.11360       -2.09870        6.38570
C         -4.86600       -2.02660        7.89150
O         -0.63060        2.24460        4.63960
C          0.59870        2.22520        4.09590
O          1.03990        1.27630        3.48380
C          1.34150        3.51440        4.30050
C          1.01490        4.29780        5.57230
C          1.80960        5.59910        5.66200
H          0.66770       -0.14320        2.56350
H          0.17450       -3.21700        2.02100
H         -0.34690       -4.46850       -0.80880
H          0.87290       -1.69550       -5.48220
H         -0.84100       -4.05410       -3.11110
H         -2.28350       -0.18480       -2.02410
H         -2.17760        1.71710       -0.68130
H         -3.35650        0.88930        3.28610
H         -2.71080        2.56360        3.26100
H         -2.89860        1.86890        5.92540
H         -1.59400        0.77810        6.50560
H         -3.40000       -3.35990        5.85970
H         -4.08860       -2.44720        4.50220
H         -5.85250       -2.88660        6.16440
H         -5.55000       -1.15140        6.03140
H         -4.43270       -2.96580        8.27280
H         -5.80180       -1.84080        8.44080
H         -4.16800       -1.21160        8.14450
H          1.07520        4.10520        3.40550
H          2.41430        3.28170        4.22320
H          1.22070        3.67100        6.45760
H         -0.06460        4.51280        5.59230
H          2.89540        5.40730        5.67040
H          1.56190        6.15850        6.57750
H          1.59690        6.25290        4.80020
