67
rmsd242.gzmat
C          0.00000        0.00000        0.00000
H          1.11420        0.00000        0.00000
C         -0.56230        0.00000       -1.43690
H         -0.25000        0.89300       -2.02760
C         -0.12700       -1.29520       -2.18280
H          0.98440       -1.35340       -2.25670
C         -0.69080       -2.52880       -1.44330
H         -1.79980       -2.59030       -1.52030
C         -0.21970       -2.54350        0.02430
H          0.86610       -2.78090        0.10850
C         -0.56470       -1.23470        0.75550
H         -1.66180       -1.12980        0.92460
O          0.07030       -1.37490        2.01020
O         -0.92840       -3.62140        0.60830
O         -0.13050       -3.65530       -2.09450
O         -0.83210       -1.18210       -3.41700
P         -0.17850       -1.56480       -4.84440
O          1.16570       -1.11000       -5.12940
O         -0.50200       -3.11570       -4.97890
O         -1.26960       -0.89100       -5.78310
O         -1.96750       -0.04640       -1.30930
O         -0.52350        1.02780        0.84460
P         -0.30740        2.60760        0.69870
O          0.61860        3.21590        1.63230
O         -0.00320        2.76890       -0.86050
O         -1.78340        3.12420        0.98480
C         -2.95390        2.40180        0.54850
C         -3.79100        3.38170       -0.28430
H         -3.55760        4.44660       -0.05260
C         -5.28510        3.06290       -0.10600
O         -5.43850        1.64940       -0.15780
C         -5.48240        1.06010       -1.38830
O         -5.66730        1.68750       -2.39690
C         -5.28880       -0.41500       -1.21870
C         -5.43080       -1.14800       -2.55620
C         -4.19300       -0.96670       -3.43330
O         -3.45930        3.10180       -1.64830
C         -3.87810        4.01940       -2.56700
O         -4.30550        5.09380       -2.22810
C         -3.74680        3.49790       -3.96310
C         -2.30500        3.60060       -4.47040
C         -1.43410        2.48890       -3.89430
H          0.03050       -0.52850        2.50970
H         -0.91880       -3.52970        1.58750
H         -0.34910       -4.47090       -1.59140
H         -0.37430       -3.55110       -4.04700
H         -2.18770       -1.31380       -5.57850
H         -2.39130        0.50530       -2.00830
H          0.15190        3.75670       -1.07260
H         -3.46260        2.15990        1.50980
H         -2.80070        1.44930       -0.00210
H         -5.91090        3.55830       -0.87220
H         -5.65970        3.31780        0.90170
H         -6.01210       -0.80930       -0.47350
H         -4.28330       -0.60810       -0.77280
H         -6.32980       -0.78300       -3.09460
H         -5.60410       -2.22620       -2.36950
H         -4.03810        0.08990       -3.68780
H         -4.29180       -1.51920       -4.37380
H         -3.28470       -1.33120       -2.92970
H         -4.43250        4.07900       -4.62000
H         -4.10920        2.44600       -4.01340
H         -1.88060        4.59310       -4.22250
H         -2.30210        3.54340       -5.57810
H         -1.40690        2.53480       -2.79710
H         -0.40150        2.55250       -4.25750
H         -1.81020        1.49890       -4.18030
