67
rmsd12.gzmat
C          0.00000        0.00000        0.00000
H          1.11850        0.00000        0.00000
C         -0.50830        0.00000       -1.46060
H         -0.22440        0.93030       -1.99950
C          0.02540       -1.27190       -2.17830
H          1.13800       -1.31810       -2.15490
C         -0.59730       -2.51210       -1.50450
H         -1.68780       -2.60210       -1.71720
C         -0.32170       -2.56050        0.01090
H          0.70040       -2.96030        0.21090
C         -0.54770       -1.22950        0.75090
H         -1.63650       -1.09710        0.99340
O          0.05040       -1.35280        2.01950
O         -1.23620       -3.52800        0.48880
O          0.07420       -3.63390       -2.07210
O         -0.53660       -1.09080       -3.47840
P          0.05070       -1.71460       -4.83720
O         -0.63200       -1.08720       -5.95400
O          1.62970       -1.50390       -4.67840
O         -0.09260       -3.27890       -4.73130
O         -1.91780       -0.06510       -1.40050
O         -0.61680        1.15770        0.56820
P          0.15780        2.12250        1.60430
O          1.58380        1.90320        1.78210
O         -0.22630        3.55290        1.04640
O         -0.81020        2.10560        2.88360
C         -1.00820        0.96090        3.72200
C         -2.35170        0.30800        3.33660
H         -2.26490       -0.30360        2.40430
C         -3.50980        1.30850        3.21790
O         -3.96670        1.22980        1.87060
C         -3.58090        2.21390        1.01700
O         -3.17230        3.27940        1.41210
C         -3.79860        1.78610       -0.39780
C         -4.92720        2.60380       -1.03060
C         -6.29460        2.13780       -0.53350
O         -2.70460       -0.52080        4.45040
C         -2.62450       -1.86650        4.32730
O         -2.24480       -2.42460        3.33060
C         -3.08330       -2.53890        5.58710
C         -3.08490       -1.60810        6.80310
C         -3.48190       -2.37060        8.06500
H          1.02610       -1.27010        1.97420
H         -1.45770       -3.35180        1.43770
H         -0.29980       -4.46470       -1.69940
H          1.94400       -0.82960       -5.37660
H          0.07330       -3.55340       -3.73360
H         -2.27840       -0.24170       -2.30100
H         -1.26600        3.66730        1.10560
H         -1.06610        1.44520        4.72310
H         -0.19960        0.20390        3.74680
H         -3.22100        2.34130        3.49070
H         -4.38830        0.99970        3.81520
H         -4.01040        0.69560       -0.46170
H         -2.83900        1.92400       -0.95410
H         -4.87700        2.51500       -2.13340
H         -4.78620        3.68190       -0.81120
H         -6.50900        1.10980       -0.84850
H         -7.09860        2.77540       -0.91710
H         -6.35220        2.15880        0.56210
H         -2.43450       -3.42340        5.77480
H         -4.10150       -2.95320        5.41540
H         -3.77990       -0.76050        6.63490
H         -2.08540       -1.14800        6.93220
H         -4.48400       -2.80560        7.97810
H         -3.49010       -1.70910        8.93960
H         -2.78410       -3.18720        8.28270
