rmsd217.gzmat
 OpenBabel08211713423D

 67 67  0  0  1  0  0  0  0  0999 V2000
    0.0000    0.0000    0.0000 C   0  0  2  0  0  0  0  0  0  0  0  0
    1.1309    0.0000    0.0000 H   0  0  0  0  0  0  0  0  0  0  0  0
   -0.5125    0.0000   -1.4545 C   0  0  1  0  0  0  0  0  0  0  0  0
   -0.2465    0.9353   -1.9988 H   0  0  0  0  0  0  0  0  0  0  0  0
    0.0187   -1.2508   -2.2064 C   0  0  1  0  0  0  0  0  0  0  0  0
    1.1325   -1.2485   -2.2545 H   0  0  0  0  0  0  0  0  0  0  0  0
   -0.5000   -2.5236   -1.5030 C   0  0  2  0  0  0  0  0  0  0  0  0
   -1.5968   -2.6635   -1.6381 H   0  0  0  0  0  0  0  0  0  0  0  0
   -0.1046   -2.5421   -0.0160 C   0  0  1  0  0  0  0  0  0  0  0  0
    0.9827   -2.7551    0.1158 H   0  0  0  0  0  0  0  0  0  0  0  0
   -0.5099   -1.2551    0.7349 C   0  0  1  0  0  0  0  0  0  0  0  0
   -1.6076   -1.2274    0.9242 H   0  0  0  0  0  0  0  0  0  0  0  0
    0.1741   -1.4024    1.9605 O   0  0  0  0  0  0  0  0  0  0  0  0
   -0.8067   -3.6496    0.5207 O   0  0  0  0  0  0  0  0  0  0  0  0
    0.1774   -3.6058   -2.1309 O   0  0  0  0  0  0  0  0  0  0  0  0
   -0.6403   -1.0950   -3.4658 O   0  0  0  0  0  0  0  0  0  0  0  0
   -0.0977   -1.6715   -4.8632 P   0  0  0  0  0  0  0  0  0  0  0  0
   -0.8527   -1.0656   -5.9426 O   0  0  0  0  0  0  0  0  0  0  0  0
    1.4674   -1.3607   -4.7425 O   0  0  0  0  0  0  0  0  0  0  0  0
   -0.1903   -3.2414   -4.7708 O   0  0  0  0  0  0  0  0  0  0  0  0
   -1.9302   -0.0929   -1.3868 O   0  0  0  0  0  0  0  0  0  0  0  0
   -0.1762    1.2051    0.7107 O   0  0  0  0  0  0  0  0  0  0  0  0
   -1.4879    2.0484    1.0970 P   0  0  1  0  0  0  0  0  0  0  0  0
   -1.0153    3.2507    1.7614 O   0  0  0  0  0  0  0  0  0  0  0  0
   -2.3525    2.2774   -0.2032 O   0  0  0  0  0  0  0  0  0  0  0  0
   -2.4162    0.9848    1.8680 O   0  0  0  0  0  0  0  0  0  0  0  0
   -2.7844    1.1455    3.2457 C   0  0  0  0  0  0  0  0  0  0  0  0
   -1.9674    0.1176    4.0442 C   0  0  2  0  0  0  0  0  0  0  0  0
   -1.8927   -0.8537    3.4843 H   0  0  0  0  0  0  0  0  0  0  0  0
   -2.5345   -0.1264    5.4463 C   0  0  0  0  0  0  0  0  0  0  0  0
   -2.0800   -1.4211    5.8295 O   0  0  0  0  0  0  0  0  0  0  0  0
   -1.0099   -1.4993    6.6672 C   0  0  0  0  0  0  0  0  0  0  0  0
   -0.5863   -0.5517    7.2729 O   0  0  0  0  0  0  0  0  0  0  0  0
   -0.5036   -2.9090    6.6989 C   0  0  0  0  0  0  0  0  0  0  0  0
    1.0161   -2.8840    6.4836 C   0  0  0  0  0  0  0  0  0  0  0  0
    1.5901   -4.2974    6.5149 C   0  0  0  0  0  0  0  0  0  0  0  0
   -0.6007    0.4795    4.1079 O   0  0  0  0  0  0  0  0  0  0  0  0
   -0.2139    1.6855    4.6253 C   0  0  0  0  0  0  0  0  0  0  0  0
   -0.9803    2.4118    5.1961 O   0  0  0  0  0  0  0  0  0  0  0  0
    1.2418    1.8745    4.3362 C   0  0  0  0  0  0  0  0  0  0  0  0
    1.9563    2.4499    5.5637 C   0  0  0  0  0  0  0  0  0  0  0  0
    2.0240    1.4349    6.7016 C   0  0  0  0  0  0  0  0  0  0  0  0
    0.0093   -0.6333    2.5559 H   0  0  0  0  0  0  0  0  0  0  0  0
   -0.9090   -3.5309    1.4920 H   0  0  0  0  0  0  0  0  0  0  0  0
   -0.0795   -4.4528   -1.6989 H   0  0  0  0  0  0  0  0  0  0  0  0
    1.8398   -1.1844   -5.6762 H   0  0  0  0  0  0  0  0  0  0  0  0
    0.0113   -3.5240   -3.7869 H   0  0  0  0  0  0  0  0  0  0  0  0
   -2.3029   -0.2171   -2.2946 H   0  0  0  0  0  0  0  0  0  0  0  0
   -2.4097    1.3660   -0.7137 H   0  0  0  0  0  0  0  0  0  0  0  0
   -3.8626    0.8699    3.2146 H   0  0  0  0  0  0  0  0  0  0  0  0
   -2.7007    2.1662    3.6762 H   0  0  0  0  0  0  0  0  0  0  0  0
   -3.6344   -0.2255    5.4540 H   0  0  0  0  0  0  0  0  0  0  0  0
   -2.2260    0.6510    6.1740 H   0  0  0  0  0  0  0  0  0  0  0  0
   -0.9987   -3.5381    5.9303 H   0  0  0  0  0  0  0  0  0  0  0  0
   -0.7539   -3.3704    7.6772 H   0  0  0  0  0  0  0  0  0  0  0  0
    1.4960   -2.2546    7.2619 H   0  0  0  0  0  0  0  0  0  0  0  0
    1.2559   -2.3975    5.5169 H   0  0  0  0  0  0  0  0  0  0  0  0
    1.3844   -4.7975    7.4681 H   0  0  0  0  0  0  0  0  0  0  0  0
    2.6787   -4.2833    6.3821 H   0  0  0  0  0  0  0  0  0  0  0  0
    1.1730   -4.9204    5.7157 H   0  0  0  0  0  0  0  0  0  0  0  0
    1.3361    2.5667    3.4665 H   0  0  0  0  0  0  0  0  0  0  0  0
    1.7159    0.9252    4.0111 H   0  0  0  0  0  0  0  0  0  0  0  0
    1.4314    3.3665    5.9071 H   0  0  0  0  0  0  0  0  0  0  0  0
    2.9769    2.7708    5.2792 H   0  0  0  0  0  0  0  0  0  0  0  0
    1.0177    1.1495    7.0467 H   0  0  0  0  0  0  0  0  0  0  0  0
    2.5523    1.8421    7.5705 H   0  0  0  0  0  0  0  0  0  0  0  0
    2.5340    0.5144    6.4022 H   0  0  0  0  0  0  0  0  0  0  0  0
  1  3  1  0  0  0  0
  1 22  1  0  0  0  0
  1  2  1  6  0  0  0
  3  5  1  0  0  0  0
  3 21  1  0  0  0  0
  3  4  1  6  0  0  0
  5  7  1  0  0  0  0
  5  6  1  6  0  0  0
  7  9  1  0  0  0  0
  7  8  1  6  0  0  0
  9 10  1  1  0  0  0
  9 14  1  0  0  0  0
  9 11  1  0  0  0  0
 11  1  1  0  0  0  0
 11 12  1  1  0  0  0
 11 13  1  0  0  0  0
 13 43  1  0  0  0  0
 14 44  1  0  0  0  0
 15 45  1  0  0  0  0
 15  7  1  0  0  0  0
 16  5  1  0  0  0  0
 17 20  1  0  0  0  0
 17 19  1  0  0  0  0
 17 16  1  0  0  0  0
 18 17  2  0  0  0  0
 20 47  1  0  0  0  0
 22 23  1  0  0  0  0
 23 24  2  1  0  0  0
 23 26  1  0  0  0  0
 25 23  1  0  0  0  0
 26 27  1  0  0  0  0
 27 51  1  0  0  0  0
 27 28  1  0  0  0  0
 28 29  1  6  0  0  0
 28 37  1  0  0  0  0
 28 30  1  0  0  0  0
 30 52  1  0  0  0  0
 30 31  1  0  0  0  0
 30 53  1  0  0  0  0
 31 32  1  0  0  0  0
 32 34  1  0  0  0  0
 32 33  2  0  0  0  0
 34 55  1  0  0  0  0
 35 36  1  0  0  0  0
 35 34  1  0  0  0  0
 35 56  1  0  0  0  0
 36 58  1  0  0  0  0
 37 38  1  0  0  0  0
 38 39  2  0  0  0  0
 40 38  1  0  0  0  0
 40 41  1  0  0  0  0
 41 63  1  0  0  0  0
 41 42  1  0  0  0  0
 42 65  1  0  0  0  0
 42 66  1  0  0  0  0
 46 19  1  0  0  0  0
 48 21  1  0  0  0  0
 49 25  1  0  0  0  0
 50 27  1  0  0  0  0
 54 34  1  0  0  0  0
 57 35  1  0  0  0  0
 59 36  1  0  0  0  0
 60 36  1  0  0  0  0
 61 40  1  0  0  0  0
 62 40  1  0  0  0  0
 64 41  1  0  0  0  0
 67 42  1  0  0  0  0
M  END
$$$$
