36

C         -0.08680        0.00520       -0.05320
C          1.39920        0.23480        0.12120
C          0.80770        0.00280       -1.25370
N          0.70020        1.05850       -2.22130
C          1.95480        1.46340       -2.84480
C          1.60740        2.38800       -4.01430
C          2.76810        2.71780       -4.98470
H          3.08160        1.75120       -5.41360
N          2.30640        3.54420       -6.09940
C          3.96430        3.39990       -4.30200
C          5.05350        2.47180       -3.74990
C          5.85700        1.73420       -4.82430
C          6.93630        0.82200       -4.24350
O          0.60460        1.78140       -4.78300
O          1.09970        3.57180       -3.40130
H         -0.51780       -0.94270        0.27950
H         -0.75290        0.86430        0.07730
H          2.00200       -0.55490        0.57890
H          1.72690        1.25100        0.36070
H          1.01490       -0.97120       -1.71300
H          0.25490        1.88420       -1.82220
H          2.46220        0.56610       -3.23180
H          2.64480        1.96960       -2.14620
H          2.07980        4.48320       -5.76740
H          1.44920        3.14610       -6.48400
H          3.57960        4.05510       -3.50320
H          4.42480        4.05960       -5.05560
H          4.62200        1.73400       -3.05320
H          5.75060        3.07510       -3.14160
H          6.31860        2.47600       -5.50030
H          5.17640        1.13850       -5.45700
H          7.65550        1.39260       -3.63220
H          7.50470        0.30840       -5.03500
H          6.49610        0.04750       -3.59300
H          0.07750        1.27850       -4.12900
H          0.61710        4.04480       -4.09340
