
     RDKit          3D

 36 36  0  0  0  0  0  0  0  0999 V2000
   -0.1126    0.1655    0.0923 C   0  0  0  0  0  0  0  0  0  0  0  0
    1.3960    0.0439    0.0710 C   0  0  0  0  0  0  0  0  0  0  0  0
    0.6009    0.0413   -1.2181 C   0  0  0  0  0  0  0  0  0  0  0  0
    0.6201    1.1554   -2.1240 N   0  0  0  0  0  0  0  0  0  0  0  0
    1.8426    1.3084   -2.9040 C   0  0  0  0  0  0  0  0  0  0  0  0
    1.5662    2.3542   -3.9882 C   0  0  0  0  0  0  0  0  0  0  0  0
    2.6407    2.4481   -5.0951 C   0  0  1  0  0  0  0  0  0  0  0  0
    2.6602    1.4525   -5.5704 H   0  0  0  0  0  0  0  0  0  0  0  0
    2.2747    3.4070   -6.1318 N   0  0  0  0  0  0  0  0  0  0  0  0
    4.0306    2.7688   -4.5363 C   0  0  0  0  0  0  0  0  0  0  0  0
    5.1092    2.9864   -5.6019 C   0  0  0  0  0  0  0  0  0  0  0  0
    5.3155    1.7989   -6.5432 C   0  0  0  0  0  0  0  0  0  0  0  0
    6.4720    2.0054   -7.5201 C   0  0  0  0  0  0  0  0  0  0  0  0
    0.3572    2.0405   -4.6225 O   0  0  0  0  0  0  0  0  0  0  0  0
    1.4372    3.5897   -3.2861 O   0  0  0  0  0  0  0  0  0  0  0  0
   -0.7062   -0.6814    0.4465 H   0  0  0  0  0  0  0  0  0  0  0  0
   -0.5407    1.1416    0.3427 H   0  0  0  0  0  0  0  0  0  0  0  0
    1.8522   -0.8892    0.4141 H   0  0  0  0  0  0  0  0  0  0  0  0
    1.9769    0.9427    0.2996 H   0  0  0  0  0  0  0  0  0  0  0  0
    0.5186   -0.9219   -1.7356 H   0  0  0  0  0  0  0  0  0  0  0  0
    0.4342    2.0321   -1.6380 H   0  0  0  0  0  0  0  0  0  0  0  0
    2.0785    0.3463   -3.3856 H   0  0  0  0  0  0  0  0  0  0  0  0
    2.7155    1.6062   -2.2955 H   0  0  0  0  0  0  0  0  0  0  0  0
    2.2915    4.3561   -5.7553 H   0  0  0  0  0  0  0  0  0  0  0  0
    1.3217    3.2212   -6.4433 H   0  0  0  0  0  0  0  0  0  0  0  0
    4.3431    1.9494   -3.8672 H   0  0  0  0  0  0  0  0  0  0  0  0
    3.9443    3.6670   -3.9011 H   0  0  0  0  0  0  0  0  0  0  0  0
    6.0621    3.2179   -5.0928 H   0  0  0  0  0  0  0  0  0  0  0  0
    4.8532    3.8727   -6.2049 H   0  0  0  0  0  0  0  0  0  0  0  0
    4.3860    1.6274   -7.1109 H   0  0  0  0  0  0  0  0  0  0  0  0
    5.4914    0.8836   -5.9475 H   0  0  0  0  0  0  0  0  0  0  0  0
    6.3061    2.8980   -8.1460 H   0  0  0  0  0  0  0  0  0  0  0  0
    6.5943    1.1436   -8.1954 H   0  0  0  0  0  0  0  0  0  0  0  0
    7.4269    2.1506   -6.9872 H   0  0  0  0  0  0  0  0  0  0  0  0
   -0.1800    1.6285   -3.9149 H   0  0  0  0  0  0  0  0  0  0  0  0
    0.9550    4.1829   -3.8785 H   0  0  0  0  0  0  0  0  0  0  0  0
  1  2  1  0
  1  3  1  0
  1 16  1  0
  1 17  1  0
  2  3  1  0
  2 18  1  0
  2 19  1  0
  3  4  1  0
  3 20  1  0
  4  5  1  0
  4 21  1  0
  5  6  1  0
  5 22  1  0
  5 23  1  0
  6  7  1  0
  6 14  1  0
  6 15  1  0
  7  8  1  6
  7  9  1  0
  7 10  1  0
  9 24  1  0
  9 25  1  0
 10 11  1  0
 10 26  1  0
 10 27  1  0
 11 12  1  0
 11 28  1  0
 11 29  1  0
 12 13  1  0
 12 30  1  0
 12 31  1  0
 13 32  1  0
 13 33  1  0
 13 34  1  0
 14 35  1  0
 15 36  1  0
M  END

