36
rmsd104.gzmat
C          0.00000        0.00000        0.00000
C          1.51010        0.00000        0.00000
C          0.74580        0.00000       -1.31930
N          0.66940        1.17720       -2.16050
C          1.88870        1.34250       -2.98600
C          1.53960        2.34780       -4.10530
C          2.58990        2.46670       -5.25520
H          2.69130        1.45770       -5.73490
N          2.12780        3.39820       -6.30100
C          3.94780        2.94740       -4.71250
C          4.88360        1.77490       -4.39970
C          6.27140        2.26350       -3.95900
C          6.24940        2.88040       -2.56080
O          0.33520        2.02710       -4.73990
O          1.38780        3.59530       -3.46530
H         -0.54140       -0.89070        0.30630
H         -0.54070        0.88470        0.32340
H          2.05020       -0.88820        0.30910
H          2.04620        0.88850        0.31690
H          0.74390       -0.91610       -1.92870
H          0.48570        2.03130       -1.62840
H          2.17460        0.36890       -3.43630
H          2.75880        1.71590       -2.40370
H          2.01880        4.33320       -5.94050
H          1.24640        3.09590       -6.69320
H          3.80480        3.58900       -3.82180
H          4.42700        3.60300       -5.47190
H          4.99100        1.13740       -5.29970
H          4.45370        1.12560       -3.61690
H          6.66060        2.99780       -4.68970
H          6.98170        1.41430       -3.98040
H          5.59260        3.75760       -2.51840
H          7.24920        3.20780       -2.25610
H          5.89340        2.16640       -1.81090
H         -0.28940        1.57500       -4.11950
H          0.62340        4.08840       -3.82100
