
     RDKit          3D

 36 36  0  0  0  0  0  0  0  0999 V2000
    0.0613    0.0124    0.0192 C   0  0  0  0  0  0  0  0  0  0  0  0
    1.5696   -0.0808   -0.0678 C   0  0  0  0  0  0  0  0  0  0  0  0
    0.7252    0.0024   -1.3226 C   0  0  0  0  0  0  0  0  0  0  0  0
    0.6936    1.1834   -2.1383 N   0  0  0  0  0  0  0  0  0  0  0  0
    1.8810    1.4152   -2.9483 C   0  0  0  0  0  0  0  0  0  0  0  0
    1.5627    2.5628   -3.9110 C   0  0  0  0  0  0  0  0  0  0  0  0
    2.6499    2.8555   -4.9737 C   0  0  1  0  0  0  0  0  0  0  0  0
    2.2087    3.6625   -5.5905 H   0  0  0  0  0  0  0  0  0  0  0  0
    3.8838    3.3679   -4.3900 N   0  0  0  0  0  0  0  0  0  0  0  0
    2.9045    1.6628   -5.9017 C   0  0  0  0  0  0  0  0  0  0  0  0
    3.6100    1.9913   -7.2236 C   0  0  0  0  0  0  0  0  0  0  0  0
    5.1034    2.3143   -7.1205 C   0  0  0  0  0  0  0  0  0  0  0  0
    5.7446    2.5954   -8.4781 C   0  0  0  0  0  0  0  0  0  0  0  0
    0.3613    2.2979   -4.5682 O   0  0  0  0  0  0  0  0  0  0  0  0
    1.4136    3.7111   -3.0684 O   0  0  0  0  0  0  0  0  0  0  0  0
   -0.5056   -0.8696    0.3285 H   0  0  0  0  0  0  0  0  0  0  0  0
   -0.3710    0.9587    0.3606 H   0  0  0  0  0  0  0  0  0  0  0  0
    2.0520   -1.0295    0.1849 H   0  0  0  0  0  0  0  0  0  0  0  0
    2.1455    0.8079    0.2080 H   0  0  0  0  0  0  0  0  0  0  0  0
    0.6372   -0.9194   -1.9100 H   0  0  0  0  0  0  0  0  0  0  0  0
    0.5107    2.0174   -1.5815 H   0  0  0  0  0  0  0  0  0  0  0  0
    2.0942    0.5042   -3.5268 H   0  0  0  0  0  0  0  0  0  0  0  0
    2.7842    1.6582   -2.3568 H   0  0  0  0  0  0  0  0  0  0  0  0
    4.4059    2.6130   -3.9441 H   0  0  0  0  0  0  0  0  0  0  0  0
    3.6514    4.0387   -3.6574 H   0  0  0  0  0  0  0  0  0  0  0  0
    1.9247    1.2141   -6.1219 H   0  0  0  0  0  0  0  0  0  0  0  0
    3.4881    0.8950   -5.3589 H   0  0  0  0  0  0  0  0  0  0  0  0
    3.0865    2.8366   -7.7070 H   0  0  0  0  0  0  0  0  0  0  0  0
    3.4808    1.1322   -7.9068 H   0  0  0  0  0  0  0  0  0  0  0  0
    5.6188    1.4626   -6.6379 H   0  0  0  0  0  0  0  0  0  0  0  0
    5.2392    3.1716   -6.4443 H   0  0  0  0  0  0  0  0  0  0  0  0
    5.6401    1.7352   -9.1614 H   0  0  0  0  0  0  0  0  0  0  0  0
    6.8198    2.8159   -8.3817 H   0  0  0  0  0  0  0  0  0  0  0  0
    5.2713    3.4624   -8.9694 H   0  0  0  0  0  0  0  0  0  0  0  0
   -0.1669    1.8011   -3.9111 H   0  0  0  0  0  0  0  0  0  0  0  0
    0.8917    4.3470   -3.5786 H   0  0  0  0  0  0  0  0  0  0  0  0
  1  2  1  0
  1  3  1  0
  1 16  1  0
  1 17  1  0
  2  3  1  0
  2 18  1  0
  2 19  1  0
  3  4  1  0
  3 20  1  0
  4  5  1  0
  4 21  1  0
  5  6  1  0
  5 22  1  0
  5 23  1  0
  6  7  1  0
  6 14  1  0
  6 15  1  0
  7  8  1  6
  7  9  1  0
  7 10  1  0
  9 24  1  0
  9 25  1  0
 10 11  1  0
 10 26  1  0
 10 27  1  0
 11 12  1  0
 11 28  1  0
 11 29  1  0
 12 13  1  0
 12 30  1  0
 12 31  1  0
 13 32  1  0
 13 33  1  0
 13 34  1  0
 14 35  1  0
 15 36  1  0
M  END

