
     RDKit          3D

 36 36  0  0  0  0  0  0  0  0999 V2000
   -0.0230    0.0554    0.0107 C   0  0  0  0  0  0  0  0  0  0  0  0
    1.4762   -0.1172   -0.1052 C   0  0  0  0  0  0  0  0  0  0  0  0
    0.6128    0.0028   -1.3437 C   0  0  0  0  0  0  0  0  0  0  0  0
    0.6265    1.1791   -2.1674 N   0  0  0  0  0  0  0  0  0  0  0  0
    1.8106    1.3459   -3.0020 C   0  0  0  0  0  0  0  0  0  0  0  0
    1.5185    2.4794   -3.9901 C   0  0  0  0  0  0  0  0  0  0  0  0
    2.5339    2.6213   -5.1475 C   0  0  1  0  0  0  0  0  0  0  0  0
    2.5094    1.6588   -5.6895 H   0  0  0  0  0  0  0  0  0  0  0  0
    2.1344    3.6562   -6.0962 N   0  0  0  0  0  0  0  0  0  0  0  0
    3.9586    2.8782   -4.6530 C   0  0  0  0  0  0  0  0  0  0  0  0
    4.9922    2.9650   -5.7772 C   0  0  0  0  0  0  0  0  0  0  0  0
    6.4233    3.2223   -5.2928 C   0  0  0  0  0  0  0  0  0  0  0  0
    6.6278    4.5877   -4.6340 C   0  0  0  0  0  0  0  0  0  0  0  0
    0.2653    2.2565   -4.5747 O   0  0  0  0  0  0  0  0  0  0  0  0
    1.4782    3.6624   -3.1931 O   0  0  0  0  0  0  0  0  0  0  0  0
   -0.6293   -0.7937    0.3369 H   0  0  0  0  0  0  0  0  0  0  0  0
   -0.3984    1.0249    0.3541 H   0  0  0  0  0  0  0  0  0  0  0  0
    1.9136   -1.0883    0.1439 H   0  0  0  0  0  0  0  0  0  0  0  0
    2.1034    0.7415    0.1535 H   0  0  0  0  0  0  0  0  0  0  0  0
    0.4648   -0.9163   -1.9231 H   0  0  0  0  0  0  0  0  0  0  0  0
    0.5018    2.0236   -1.6101 H   0  0  0  0  0  0  0  0  0  0  0  0
    1.9817    0.4147   -3.5650 H   0  0  0  0  0  0  0  0  0  0  0  0
    2.7255    1.5653   -2.4228 H   0  0  0  0  0  0  0  0  0  0  0  0
    2.1935    4.5758   -5.6555 H   0  0  0  0  0  0  0  0  0  0  0  0
    1.1613    3.5115   -6.3644 H   0  0  0  0  0  0  0  0  0  0  0  0
    4.2534    2.0765   -3.9551 H   0  0  0  0  0  0  0  0  0  0  0  0
    3.9458    3.8056   -4.0557 H   0  0  0  0  0  0  0  0  0  0  0  0
    4.6864    3.7518   -6.4853 H   0  0  0  0  0  0  0  0  0  0  0  0
    4.9675    2.0222   -6.3520 H   0  0  0  0  0  0  0  0  0  0  0  0
    7.1092    3.1326   -6.1530 H   0  0  0  0  0  0  0  0  0  0  0  0
    6.7207    2.4251   -4.5865 H   0  0  0  0  0  0  0  0  0  0  0  0
    6.3414    5.4031   -5.3197 H   0  0  0  0  0  0  0  0  0  0  0  0
    7.6809    4.7442   -4.3511 H   0  0  0  0  0  0  0  0  0  0  0  0
    6.0225    4.6984   -3.7203 H   0  0  0  0  0  0  0  0  0  0  0  0
   -0.2481    1.8116   -3.8695 H   0  0  0  0  0  0  0  0  0  0  0  0
    0.9973    4.3190   -3.7156 H   0  0  0  0  0  0  0  0  0  0  0  0
  1  2  1  0
  1  3  1  0
  1 16  1  0
  1 17  1  0
  2  3  1  0
  2 18  1  0
  2 19  1  0
  3  4  1  0
  3 20  1  0
  4  5  1  0
  4 21  1  0
  5  6  1  0
  5 22  1  0
  5 23  1  0
  6  7  1  0
  6 14  1  0
  6 15  1  0
  7  8  1  6
  7  9  1  0
  7 10  1  0
  9 24  1  0
  9 25  1  0
 10 11  1  0
 10 26  1  0
 10 27  1  0
 11 12  1  0
 11 28  1  0
 11 29  1  0
 12 13  1  0
 12 30  1  0
 12 31  1  0
 13 32  1  0
 13 33  1  0
 13 34  1  0
 14 35  1  0
 15 36  1  0
M  END

