rmsd117.gzmat
 OpenBabel08211713423D

 36 36  0  0  1  0  0  0  0  0999 V2000
    0.0000    0.0000    0.0000 C   0  0  0  0  0  0  0  0  0  0  0  0
    1.5102    0.0000    0.0000 C   0  0  0  0  0  0  0  0  0  0  0  0
    0.7461    0.0000   -1.3198 C   0  0  0  0  0  0  0  0  0  0  0  0
    0.6588    1.1815   -2.1534 N   0  0  0  0  0  0  0  0  0  0  0  0
    1.8295    1.3104   -3.0537 C   0  0  0  0  0  0  0  0  0  0  0  0
    1.5069    2.4570   -4.0379 C   0  0  0  0  0  0  0  0  0  0  0  0
    2.5188    2.6528   -5.2132 C   0  0  1  0  0  0  0  0  0  0  0  0
    2.5146    1.7157   -5.8304 H   0  0  0  0  0  0  0  0  0  0  0  0
    2.1004    3.7561   -6.0944 N   0  0  0  0  0  0  0  0  0  0  0  0
    3.9271    2.9154   -4.6517 C   0  0  0  0  0  0  0  0  0  0  0  0
    4.9572    3.0222   -5.7830 C   0  0  0  0  0  0  0  0  0  0  0  0
    6.3881    3.1305   -5.2394 C   0  0  0  0  0  0  0  0  0  0  0  0
    6.6732    4.5017   -4.6259 C   0  0  0  0  0  0  0  0  0  0  0  0
    0.2618    2.2809   -4.6501 O   0  0  0  0  0  0  0  0  0  0  0  0
    1.4579    3.6295   -3.2551 O   0  0  0  0  0  0  0  0  0  0  0  0
   -0.5423   -0.8900    0.3059 H   0  0  0  0  0  0  0  0  0  0  0  0
   -0.5407    0.8854    0.3221 H   0  0  0  0  0  0  0  0  0  0  0  0
    2.0497   -0.8879    0.3104 H   0  0  0  0  0  0  0  0  0  0  0  0
    2.0478    0.8873    0.3170 H   0  0  0  0  0  0  0  0  0  0  0  0
    0.7478   -0.9156   -1.9296 H   0  0  0  0  0  0  0  0  0  0  0  0
    0.5467    2.0400   -1.6057 H   0  0  0  0  0  0  0  0  0  0  0  0
    1.9762    0.3639   -3.6157 H   0  0  0  0  0  0  0  0  0  0  0  0
    2.7714    1.5289   -2.5074 H   0  0  0  0  0  0  0  0  0  0  0  0
    2.1705    4.6492   -5.6327 H   0  0  0  0  0  0  0  0  0  0  0  0
    1.1514    3.6230   -6.4163 H   0  0  0  0  0  0  0  0  0  0  0  0
    4.2189    2.1046   -3.9600 H   0  0  0  0  0  0  0  0  0  0  0  0
    3.9253    3.8439   -4.0470 H   0  0  0  0  0  0  0  0  0  0  0  0
    4.7202    3.8947   -6.4242 H   0  0  0  0  0  0  0  0  0  0  0  0
    4.8758    2.1428   -6.4496 H   0  0  0  0  0  0  0  0  0  0  0  0
    7.1065    2.9389   -6.0598 H   0  0  0  0  0  0  0  0  0  0  0  0
    6.5703    2.3372   -4.4904 H   0  0  0  0  0  0  0  0  0  0  0  0
    6.5560    5.3019   -5.3652 H   0  0  0  0  0  0  0  0  0  0  0  0
    7.6954    4.5564   -4.2368 H   0  0  0  0  0  0  0  0  0  0  0  0
    5.9914    4.7209   -3.7964 H   0  0  0  0  0  0  0  0  0  0  0  0
   -0.3723    1.8125   -4.0530 H   0  0  0  0  0  0  0  0  0  0  0  0
    0.7230    4.2114   -3.5298 H   0  0  0  0  0  0  0  0  0  0  0  0
  1  2  1  0  0  0  0
  1 16  1  0  0  0  0
  1 17  1  0  0  0  0
  2 18  1  0  0  0  0
  2 19  1  0  0  0  0
  3  1  1  0  0  0  0
  3  2  1  0  0  0  0
  4 21  1  0  0  0  0
  4  3  1  0  0  0  0
  5 23  1  0  0  0  0
  5  4  1  0  0  0  0
  6 15  1  0  0  0  0
  6  5  1  0  0  0  0
  7  8  1  6  0  0  0
  7 10  1  0  0  0  0
  7  6  1  0  0  0  0
  9 24  1  0  0  0  0
  9  7  1  0  0  0  0
 10 27  1  0  0  0  0
 10 26  1  0  0  0  0
 11 12  1  0  0  0  0
 11 10  1  0  0  0  0
 12 13  1  0  0  0  0
 12 31  1  0  0  0  0
 13 33  1  0  0  0  0
 13 34  1  0  0  0  0
 14 35  1  0  0  0  0
 14  6  1  0  0  0  0
 20  3  1  0  0  0  0
 22  5  1  0  0  0  0
 25  9  1  0  0  0  0
 28 11  1  0  0  0  0
 29 11  1  0  0  0  0
 30 12  1  0  0  0  0
 32 13  1  0  0  0  0
 36 15  1  0  0  0  0
M  END
$$$$
