36

C          0.06130        0.01240        0.01920
C          1.56960       -0.08080       -0.06780
C          0.72520        0.00240       -1.32260
N          0.69360        1.18340       -2.13830
C          1.88100        1.41520       -2.94830
C          1.56270        2.56280       -3.91100
C          2.64990        2.85550       -4.97370
H          2.20870        3.66250       -5.59050
N          3.88380        3.36790       -4.39000
C          2.90450        1.66280       -5.90170
C          3.61000        1.99130       -7.22360
C          5.10340        2.31430       -7.12050
C          5.74460        2.59540       -8.47810
O          0.36130        2.29790       -4.56820
O          1.41360        3.71110       -3.06840
H         -0.50560       -0.86960        0.32850
H         -0.37100        0.95870        0.36060
H          2.05200       -1.02950        0.18490
H          2.14550        0.80790        0.20800
H          0.63720       -0.91940       -1.91000
H          0.51070        2.01740       -1.58150
H          2.09420        0.50420       -3.52680
H          2.78420        1.65820       -2.35680
H          4.40590        2.61300       -3.94410
H          3.65140        4.03870       -3.65740
H          1.92470        1.21410       -6.12190
H          3.48810        0.89500       -5.35890
H          3.08650        2.83660       -7.70700
H          3.48080        1.13220       -7.90680
H          5.61880        1.46260       -6.63790
H          5.23920        3.17160       -6.44430
H          5.64010        1.73520       -9.16140
H          6.81980        2.81590       -8.38170
H          5.27130        3.46240       -8.96940
H         -0.16690        1.80110       -3.91110
H          0.89170        4.34700       -3.57860
