36
rmsd26.gzmat
C          0.00000        0.00000        0.00000
C          1.51010        0.00000        0.00000
C          0.74590        0.00000       -1.31950
N          0.66050        1.18190       -2.15290
C          1.84920        1.32790       -3.02620
C          1.52820        2.46130       -4.02570
C          2.55480        2.66330       -5.18740
H          2.54380        1.74030       -5.82460
N          2.16120        3.79590       -6.04280
C          3.96180        2.89420       -4.60730
C          5.02540        2.98250       -5.70950
C          5.41550        1.59600       -6.23940
C          6.46760        1.71280       -7.34340
O          0.29510        2.26580       -4.65540
O          1.45420        3.64120       -3.25470
H         -0.54390       -0.88850        0.30650
H         -0.53830        0.88710        0.32300
H          2.05140       -0.88730        0.30950
H          2.04590        0.88890        0.31670
H          0.74940       -0.91440       -1.93050
H          0.52430        2.03690       -1.60570
H          2.02650        0.38100       -3.57830
H          2.77320        1.56970       -2.45890
H          2.18740        4.66780       -5.53770
H          1.23400        3.66010       -6.41990
H          4.22340        2.08360       -3.90320
H          3.96300        3.82720       -4.00800
H          5.92030        3.50220       -5.32140
H          4.64690        3.61190       -6.54230
H          4.52010        1.07730       -6.63180
H          5.80040        0.96690       -5.41600
H          6.09280        2.30200       -8.18850
H          6.75100        0.72820       -7.72950
H          7.37860        2.20010       -6.98080
H         -0.33880        1.78370       -4.06920
H          0.69420        4.19360       -3.52040
