rmsd99.gzmat
 OpenBabel08211713423D

 36 36  0  0  1  0  0  0  0  0999 V2000
    0.0000    0.0000    0.0000 C   0  0  0  0  0  0  0  0  0  0  0  0
    1.5102    0.0000    0.0000 C   0  0  0  0  0  0  0  0  0  0  0  0
    0.7460    0.0000   -1.3196 C   0  0  0  0  0  0  0  0  0  0  0  0
    0.6636    1.1784   -2.1584 N   0  0  0  0  0  0  0  0  0  0  0  0
    1.8851    1.3589   -2.9782 C   0  0  0  0  0  0  0  0  0  0  0  0
    1.5568    2.4342   -4.0373 C   0  0  0  0  0  0  0  0  0  0  0  0
    2.6230    2.6205   -5.1639 C   0  0  1  0  0  0  0  0  0  0  0  0
    2.7452    1.6354   -5.6872 H   0  0  0  0  0  0  0  0  0  0  0  0
    2.1667    3.5890   -6.1776 N   0  0  0  0  0  0  0  0  0  0  0  0
    3.9670    3.0911   -4.5782 C   0  0  0  0  0  0  0  0  0  0  0  0
    4.9198    1.9183   -4.3253 C   0  0  0  0  0  0  0  0  0  0  0  0
    6.2925    2.4278   -3.8635 C   0  0  0  0  0  0  0  0  0  0  0  0
    7.2272    1.2599   -3.5476 C   0  0  0  0  0  0  0  0  0  0  0  0
    0.3597    2.1562   -4.7061 O   0  0  0  0  0  0  0  0  0  0  0  0
    1.3974    3.6372   -3.3186 O   0  0  0  0  0  0  0  0  0  0  0  0
   -0.5428   -0.8897    0.3062 H   0  0  0  0  0  0  0  0  0  0  0  0
   -0.5400    0.8857    0.3231 H   0  0  0  0  0  0  0  0  0  0  0  0
    2.0494   -0.8888    0.3093 H   0  0  0  0  0  0  0  0  0  0  0  0
    2.0476    0.8880    0.3160 H   0  0  0  0  0  0  0  0  0  0  0  0
    0.7485   -0.9157   -1.9298 H   0  0  0  0  0  0  0  0  0  0  0  0
    0.4737    2.0301   -1.6233 H   0  0  0  0  0  0  0  0  0  0  0  0
    2.1423    0.4038   -3.4831 H   0  0  0  0  0  0  0  0  0  0  0  0
    2.7660    1.6753   -2.3791 H   0  0  0  0  0  0  0  0  0  0  0  0
    2.0829    4.5178   -5.7969 H   0  0  0  0  0  0  0  0  0  0  0  0
    1.2765    3.3143   -6.5695 H   0  0  0  0  0  0  0  0  0  0  0  0
    3.8043    3.6737   -3.6513 H   0  0  0  0  0  0  0  0  0  0  0  0
    4.4424    3.7986   -5.2919 H   0  0  0  0  0  0  0  0  0  0  0  0
    5.0374    1.3204   -5.2497 H   0  0  0  0  0  0  0  0  0  0  0  0
    4.5032    1.2315   -3.5675 H   0  0  0  0  0  0  0  0  0  0  0  0
    6.1797    3.0732   -2.9720 H   0  0  0  0  0  0  0  0  0  0  0  0
    6.7405    3.0685   -4.6471 H   0  0  0  0  0  0  0  0  0  0  0  0
    6.8334    0.6381   -2.7357 H   0  0  0  0  0  0  0  0  0  0  0  0
    8.2155    1.6170   -3.2375 H   0  0  0  0  0  0  0  0  0  0  0  0
    7.3706    0.6128   -4.4204 H   0  0  0  0  0  0  0  0  0  0  0  0
   -0.2804    1.6849   -4.1173 H   0  0  0  0  0  0  0  0  0  0  0  0
    0.6790    4.1840   -3.6905 H   0  0  0  0  0  0  0  0  0  0  0  0
  1  2  1  0  0  0  0
  1 16  1  0  0  0  0
  1 17  1  0  0  0  0
  2 18  1  0  0  0  0
  2 19  1  0  0  0  0
  3  1  1  0  0  0  0
  3  2  1  0  0  0  0
  4 21  1  0  0  0  0
  4  3  1  0  0  0  0
  5 23  1  0  0  0  0
  5  4  1  0  0  0  0
  6 15  1  0  0  0  0
  6  5  1  0  0  0  0
  7  8  1  6  0  0  0
  7 10  1  0  0  0  0
  7  6  1  0  0  0  0
  9 24  1  0  0  0  0
  9  7  1  0  0  0  0
 10 11  1  0  0  0  0
 10 26  1  0  0  0  0
 11 12  1  0  0  0  0
 11 29  1  0  0  0  0
 12 13  1  0  0  0  0
 12 30  1  0  0  0  0
 13 33  1  0  0  0  0
 13 32  1  0  0  0  0
 14 35  1  0  0  0  0
 14  6  1  0  0  0  0
 20  3  1  0  0  0  0
 22  5  1  0  0  0  0
 25  9  1  0  0  0  0
 27 10  1  0  0  0  0
 28 11  1  0  0  0  0
 31 12  1  0  0  0  0
 34 13  1  0  0  0  0
 36 15  1  0  0  0  0
M  END
$$$$
