rmsd103.gzmat
 OpenBabel08211713423D

 36 36  0  0  1  0  0  0  0  0999 V2000
    0.0000    0.0000    0.0000 C   0  0  0  0  0  0  0  0  0  0  0  0
    1.5102    0.0000    0.0000 C   0  0  0  0  0  0  0  0  0  0  0  0
    0.7458    0.0000   -1.3193 C   0  0  0  0  0  0  0  0  0  0  0  0
    0.6664    1.1792   -2.1572 N   0  0  0  0  0  0  0  0  0  0  0  0
    1.8781    1.3389   -2.9955 C   0  0  0  0  0  0  0  0  0  0  0  0
    1.5501    2.4114   -4.0565 C   0  0  0  0  0  0  0  0  0  0  0  0
    2.5918    2.5644   -5.2102 C   0  0  1  0  0  0  0  0  0  0  0  0
    2.6374    1.5900   -5.7640 H   0  0  0  0  0  0  0  0  0  0  0  0
    2.1587    3.5905   -6.1772 N   0  0  0  0  0  0  0  0  0  0  0  0
    3.9798    2.9381   -4.6593 C   0  0  0  0  0  0  0  0  0  0  0  0
    4.8726    1.7083   -4.4611 C   0  0  0  0  0  0  0  0  0  0  0  0
    6.3142    2.1162   -4.1178 C   0  0  0  0  0  0  0  0  0  0  0  0
    7.0993    2.5200   -5.3663 C   0  0  0  0  0  0  0  0  0  0  0  0
    0.3312    2.1604   -4.6958 O   0  0  0  0  0  0  0  0  0  0  0  0
    1.4385    3.6259   -3.3469 O   0  0  0  0  0  0  0  0  0  0  0  0
   -0.5432   -0.8901    0.3048 H   0  0  0  0  0  0  0  0  0  0  0  0
   -0.5406    0.8851    0.3234 H   0  0  0  0  0  0  0  0  0  0  0  0
    2.0511   -0.8873    0.3102 H   0  0  0  0  0  0  0  0  0  0  0  0
    2.0471    0.8889    0.3155 H   0  0  0  0  0  0  0  0  0  0  0  0
    0.7454   -0.9153   -1.9300 H   0  0  0  0  0  0  0  0  0  0  0  0
    0.4978    2.0334   -1.6195 H   0  0  0  0  0  0  0  0  0  0  0  0
    2.1158    0.3776   -3.4975 H   0  0  0  0  0  0  0  0  0  0  0  0
    2.7711    1.6485   -2.4106 H   0  0  0  0  0  0  0  0  0  0  0  0
    2.1066    4.5021   -5.7503 H   0  0  0  0  0  0  0  0  0  0  0  0
    1.2550    3.3621   -6.5685 H   0  0  0  0  0  0  0  0  0  0  0  0
    3.8844    3.5090   -3.7167 H   0  0  0  0  0  0  0  0  0  0  0  0
    4.4726    3.6334   -5.3741 H   0  0  0  0  0  0  0  0  0  0  0  0
    4.8703    1.0858   -5.3766 H   0  0  0  0  0  0  0  0  0  0  0  0
    4.4715    1.0658   -3.6570 H   0  0  0  0  0  0  0  0  0  0  0  0
    6.8269    1.2755   -3.6128 H   0  0  0  0  0  0  0  0  0  0  0  0
    6.3129    2.9477   -3.3873 H   0  0  0  0  0  0  0  0  0  0  0  0
    7.1808    1.6885   -6.0750 H   0  0  0  0  0  0  0  0  0  0  0  0
    8.1155    2.8388   -5.1136 H   0  0  0  0  0  0  0  0  0  0  0  0
    6.6135    3.3497   -5.8937 H   0  0  0  0  0  0  0  0  0  0  0  0
   -0.3037    1.6979   -4.0943 H   0  0  0  0  0  0  0  0  0  0  0  0
    0.7038    4.1725   -3.6870 H   0  0  0  0  0  0  0  0  0  0  0  0
  1  2  1  0  0  0  0
  1 16  1  0  0  0  0
  1 17  1  0  0  0  0
  2 18  1  0  0  0  0
  2 19  1  0  0  0  0
  3  1  1  0  0  0  0
  3  2  1  0  0  0  0
  4 21  1  0  0  0  0
  4  3  1  0  0  0  0
  5 23  1  0  0  0  0
  5  4  1  0  0  0  0
  6 15  1  0  0  0  0
  6  5  1  0  0  0  0
  7  8  1  6  0  0  0
  7 10  1  0  0  0  0
  7  6  1  0  0  0  0
  9 24  1  0  0  0  0
  9  7  1  0  0  0  0
 10 11  1  0  0  0  0
 10 26  1  0  0  0  0
 11 12  1  0  0  0  0
 11 29  1  0  0  0  0
 12 30  1  0  0  0  0
 12 31  1  0  0  0  0
 13 33  1  0  0  0  0
 13 12  1  0  0  0  0
 14 35  1  0  0  0  0
 14  6  1  0  0  0  0
 20  3  1  0  0  0  0
 22  5  1  0  0  0  0
 25  9  1  0  0  0  0
 27 10  1  0  0  0  0
 28 11  1  0  0  0  0
 32 13  1  0  0  0  0
 34 13  1  0  0  0  0
 36 15  1  0  0  0  0
M  END
$$$$
