36
rmsd118.gzmat
C          0.00000        0.00000        0.00000
C          1.51020        0.00000        0.00000
C          0.74670        0.00000       -1.31970
N          0.65770        1.18250       -2.15090
C          1.79910        1.29360       -3.08970
C          1.45430        2.43970       -4.06780
C          2.41510        2.60370       -5.28980
H          2.36870        1.65890       -5.89360
N          1.97920        3.70260       -6.16780
C          3.85000        2.84990       -4.79340
C          4.83150        2.89930       -5.97030
C          6.26580        3.10370       -5.46810
C          7.24750        3.17720       -6.63780
O          0.17970        2.28530       -4.62200
O          1.46440        3.61680       -3.29130
H         -0.54290       -0.89030        0.30410
H         -0.54050        0.88530        0.32260
H          2.04970       -0.88800        0.30990
H          2.04650        0.88810        0.31680
H          0.74640       -0.91580       -1.92890
H          0.57460        2.04240       -1.60110
H          1.91440        0.34400       -3.65350
H          2.76250        1.50270       -2.57820
H          2.10890        4.60240       -5.73330
H          1.00910        3.59650       -6.42990
H          4.15260        2.05310       -4.09000
H          3.89230        3.79560       -4.21710
H          4.54560        3.71610       -6.66360
H          4.76110        1.97200       -6.56780
H          6.55180        2.28180       -4.78590
H          6.32680        4.03110       -4.86760
H          7.20260        2.27480       -7.25700
H          8.27870        3.28400       -6.28540
H          7.03020        4.03290       -7.28750
H         -0.43540        1.83000       -3.99550
H          0.74910        4.22560       -3.55800
