rmsd118.gzmat
 OpenBabel08211713423D

 36 36  0  0  1  0  0  0  0  0999 V2000
    0.0000    0.0000    0.0000 C   0  0  0  0  0  0  0  0  0  0  0  0
    1.5102    0.0000    0.0000 C   0  0  0  0  0  0  0  0  0  0  0  0
    0.7467    0.0000   -1.3197 C   0  0  0  0  0  0  0  0  0  0  0  0
    0.6577    1.1825   -2.1509 N   0  0  0  0  0  0  0  0  0  0  0  0
    1.7991    1.2936   -3.0897 C   0  0  0  0  0  0  0  0  0  0  0  0
    1.4543    2.4397   -4.0678 C   0  0  0  0  0  0  0  0  0  0  0  0
    2.4151    2.6037   -5.2898 C   0  0  1  0  0  0  0  0  0  0  0  0
    2.3687    1.6589   -5.8936 H   0  0  0  0  0  0  0  0  0  0  0  0
    1.9792    3.7026   -6.1678 N   0  0  0  0  0  0  0  0  0  0  0  0
    3.8500    2.8499   -4.7934 C   0  0  0  0  0  0  0  0  0  0  0  0
    4.8315    2.8993   -5.9703 C   0  0  0  0  0  0  0  0  0  0  0  0
    6.2658    3.1037   -5.4681 C   0  0  0  0  0  0  0  0  0  0  0  0
    7.2475    3.1772   -6.6378 C   0  0  0  0  0  0  0  0  0  0  0  0
    0.1797    2.2853   -4.6220 O   0  0  0  0  0  0  0  0  0  0  0  0
    1.4644    3.6168   -3.2913 O   0  0  0  0  0  0  0  0  0  0  0  0
   -0.5429   -0.8903    0.3041 H   0  0  0  0  0  0  0  0  0  0  0  0
   -0.5405    0.8853    0.3226 H   0  0  0  0  0  0  0  0  0  0  0  0
    2.0497   -0.8880    0.3099 H   0  0  0  0  0  0  0  0  0  0  0  0
    2.0465    0.8881    0.3168 H   0  0  0  0  0  0  0  0  0  0  0  0
    0.7464   -0.9158   -1.9289 H   0  0  0  0  0  0  0  0  0  0  0  0
    0.5746    2.0424   -1.6011 H   0  0  0  0  0  0  0  0  0  0  0  0
    1.9144    0.3440   -3.6535 H   0  0  0  0  0  0  0  0  0  0  0  0
    2.7625    1.5027   -2.5782 H   0  0  0  0  0  0  0  0  0  0  0  0
    2.1089    4.6024   -5.7333 H   0  0  0  0  0  0  0  0  0  0  0  0
    1.0091    3.5965   -6.4299 H   0  0  0  0  0  0  0  0  0  0  0  0
    4.1526    2.0531   -4.0900 H   0  0  0  0  0  0  0  0  0  0  0  0
    3.8923    3.7956   -4.2171 H   0  0  0  0  0  0  0  0  0  0  0  0
    4.5456    3.7161   -6.6636 H   0  0  0  0  0  0  0  0  0  0  0  0
    4.7611    1.9720   -6.5678 H   0  0  0  0  0  0  0  0  0  0  0  0
    6.5518    2.2818   -4.7859 H   0  0  0  0  0  0  0  0  0  0  0  0
    6.3268    4.0311   -4.8676 H   0  0  0  0  0  0  0  0  0  0  0  0
    7.2026    2.2748   -7.2570 H   0  0  0  0  0  0  0  0  0  0  0  0
    8.2787    3.2840   -6.2854 H   0  0  0  0  0  0  0  0  0  0  0  0
    7.0302    4.0329   -7.2875 H   0  0  0  0  0  0  0  0  0  0  0  0
   -0.4354    1.8300   -3.9955 H   0  0  0  0  0  0  0  0  0  0  0  0
    0.7491    4.2256   -3.5580 H   0  0  0  0  0  0  0  0  0  0  0  0
  1  2  1  0  0  0  0
  1 16  1  0  0  0  0
  1 17  1  0  0  0  0
  2 18  1  0  0  0  0
  2 19  1  0  0  0  0
  3  1  1  0  0  0  0
  3  2  1  0  0  0  0
  4 21  1  0  0  0  0
  4  3  1  0  0  0  0
  5 23  1  0  0  0  0
  5  4  1  0  0  0  0
  6 15  1  0  0  0  0
  6  5  1  0  0  0  0
  7  8  1  6  0  0  0
  7 10  1  0  0  0  0
  7  6  1  0  0  0  0
  9 24  1  0  0  0  0
  9  7  1  0  0  0  0
 10 27  1  0  0  0  0
 10 26  1  0  0  0  0
 11 12  1  0  0  0  0
 11 10  1  0  0  0  0
 12 31  1  0  0  0  0
 12 30  1  0  0  0  0
 13 33  1  0  0  0  0
 13 12  1  0  0  0  0
 14  6  1  0  0  0  0
 14 35  1  0  0  0  0
 20  3  1  0  0  0  0
 22  5  1  0  0  0  0
 25  9  1  0  0  0  0
 28 11  1  0  0  0  0
 29 11  1  0  0  0  0
 32 13  1  0  0  0  0
 34 13  1  0  0  0  0
 36 15  1  0  0  0  0
M  END
$$$$
