rmsd111.gzmat
 OpenBabel08211713363D

 31 32  0  0  1  0  0  0  0  0999 V2000
    0.0000    0.0000    0.0000 N   0  0  0  0  0  0  0  0  0  0  0  0
    1.0010    0.0000    0.0000 H   0  0  0  0  0  0  0  0  0  0  0  0
   -0.8444    0.0000   -1.0812 C   0  0  0  0  0  0  0  0  0  0  0  0
   -2.1682   -0.0593   -0.6228 C   0  0  0  0  0  0  0  0  0  0  0  0
   -2.1312   -0.1104    0.7867 C   0  0  0  0  0  0  0  0  0  0  0  0
   -0.7776   -0.0796    1.1583 C   0  0  0  0  0  0  0  0  0  0  0  0
   -0.1110   -0.1634    2.4565 C   0  0  0  0  0  0  0  0  0  0  0  0
    1.0918   -0.4183    2.5211 O   0  0  0  0  0  0  0  0  0  0  0  0
   -0.8754    0.0704    3.5680 N   0  0  0  0  0  0  0  0  0  0  0  0
   -0.3781   -0.0549    4.9496 C   0  0  0  0  0  0  0  0  0  0  0  0
    1.1148   -0.1712    4.9619 C   0  0  0  0  0  0  0  0  0  0  0  0
    1.7593   -1.2595    5.4096 C   0  0  0  0  0  0  0  0  0  0  0  0
    3.1559   -1.4458    5.0995 C   0  0  0  0  0  0  0  0  0  0  0  0
    3.5567   -1.2254    3.7550 N   0  0  0  0  0  0  0  0  0  0  0  0
    2.9028   -0.9253    3.0246 H   0  0  0  0  0  0  0  0  0  0  0  0
    4.8974   -1.5125    3.6436 C   0  0  1  0  0  0  0  0  0  0  0  0
    5.6682   -1.3374    2.5290 N   0  0  0  0  0  0  0  0  0  0  0  0
    6.5493   -1.8216    2.4453 H   0  0  0  0  0  0  0  0  0  0  0  0
    5.2169   -1.0951    1.6576 H   0  0  0  0  0  0  0  0  0  0  0  0
    5.3535   -1.9073    4.8904 N   0  0  0  0  0  0  0  0  0  0  0  0
    6.3007   -2.1453    5.1284 H   0  0  0  0  0  0  0  0  0  0  0  0
    4.2715   -1.8676    5.7941 C   0  0  0  0  0  0  0  0  0  0  0  0
   -3.6801   -0.0678   -1.6870 Br  0  0  0  0  0  0  0  0  0  0  0  0
   -0.1750    0.0886   -2.7991 Br  0  0  0  0  0  0  0  0  0  0  0  0
   -2.9810   -0.1723    1.4385 H   0  0  0  0  0  0  0  0  0  0  0  0
   -1.8678    0.2650    3.4810 H   0  0  0  0  0  0  0  0  0  0  0  0
   -0.8689   -0.9388    5.4313 H   0  0  0  0  0  0  0  0  0  0  0  0
   -0.7016    0.8506    5.5284 H   0  0  0  0  0  0  0  0  0  0  0  0
    1.6433    0.6844    4.5249 H   0  0  0  0  0  0  0  0  0  0  0  0
    1.2648   -2.0863    5.9255 H   0  0  0  0  0  0  0  0  0  0  0  0
    4.3898   -2.1377    6.8325 H   0  0  0  0  0  0  0  0  0  0  0  0
  1  6  1  0  0  0  0
  2  1  1  0  0  0  0
  3  4  2  0  0  0  0
  3  1  1  0  0  0  0
  4  5  1  0  0  0  0
  5  6  2  0  0  0  0
  5 25  1  0  0  0  0
  6  7  1  0  0  0  0
  7  8  2  0  0  0  0
  7  9  1  0  0  0  0
  9 10  1  0  0  0  0
 10 11  1  0  0  0  0
 10 27  1  0  0  0  0
 10 28  1  0  0  0  0
 11 12  2  0  0  0  0
 12 30  1  0  0  0  0
 13 12  1  0  0  0  0
 13 22  2  0  0  0  0
 14 13  1  0  0  0  0
 15 14  1  0  0  0  0
 16 17  1  1  0  0  0
 16 14  1  0  0  0  0
 16 20  1  0  0  0  0
 18 17  1  0  0  0  0
 19 17  1  0  0  0  0
 20 21  1  0  0  0  0
 20 22  1  0  0  0  0
 22 31  1  0  0  0  0
 23  4  1  0  0  0  0
 24  3  1  0  0  0  0
 26  9  1  0  0  0  0
 29 11  1  0  0  0  0
M  END
$$$$
