31
rmsd86.gzmat
N          0.00000        0.00000        0.00000
H          1.00080        0.00000        0.00000
C         -0.84710        0.00000       -1.07840
C         -2.17040        0.03570       -0.61540
C         -2.13000        0.07110        0.79390
C         -0.77470        0.05950        1.16220
C         -0.10260        0.13580        2.45710
O          1.12700        0.11980        2.52170
N         -0.89260        0.22810        3.57240
C         -0.36420        0.45230        4.92980
C          1.10520        0.16720        4.97190
C          2.02470        1.09180        5.28830
C          3.41640        0.84650        4.99710
N          3.72860        0.35790        3.70010
H          3.00700        0.14840        3.00360
C          5.09360        0.22030        3.59960
N          5.77440       -0.32000        2.54700
H          6.76220       -0.14760        2.44150
H          5.27240       -0.54910        1.70120
N          5.65230        0.62950        4.79940
H          6.63040        0.63130        5.02910
C          4.61050        1.01980        5.66650
Br        -3.68600        0.03650       -1.67480
Br        -0.18730       -0.05830       -2.80150
H         -2.97990        0.09880        1.44770
H         -1.90290        0.26270        3.48850
H         -0.91040       -0.22000        5.64310
H         -0.59470        1.50490        5.23660
H          1.37890       -0.85050        4.66910
H          1.77840        2.08480        5.67180
H          4.80840        1.37530        6.66590
