31
rmsd111.gzmat
N          0.00000        0.00000        0.00000
H          1.00100        0.00000        0.00000
C         -0.84440        0.00000       -1.08120
C         -2.16820       -0.05930       -0.62280
C         -2.13120       -0.11040        0.78670
C         -0.77760       -0.07960        1.15830
C         -0.11100       -0.16340        2.45650
O          1.09180       -0.41830        2.52110
N         -0.87540        0.07040        3.56800
C         -0.37810       -0.05490        4.94960
C          1.11480       -0.17120        4.96190
C          1.75930       -1.25950        5.40960
C          3.15590       -1.44580        5.09950
N          3.55670       -1.22540        3.75500
H          2.90280       -0.92530        3.02460
C          4.89740       -1.51250        3.64360
N          5.66820       -1.33740        2.52900
H          6.54930       -1.82160        2.44530
H          5.21690       -1.09510        1.65760
N          5.35350       -1.90730        4.89040
H          6.30070       -2.14530        5.12840
C          4.27150       -1.86760        5.79410
Br        -3.68010       -0.06780       -1.68700
Br        -0.17500        0.08860       -2.79910
H         -2.98100       -0.17230        1.43850
H         -1.86780        0.26500        3.48100
H         -0.86890       -0.93880        5.43130
H         -0.70160        0.85060        5.52840
H          1.64330        0.68440        4.52490
H          1.26480       -2.08630        5.92550
H          4.38980       -2.13770        6.83250
