rmsd138.gzmat
 OpenBabel08211713363D

 31 32  0  0  1  0  0  0  0  0999 V2000
    0.0000    0.0000    0.0000 N   0  0  0  0  0  0  0  0  0  0  0  0
    1.0007    0.0000    0.0000 H   0  0  0  0  0  0  0  0  0  0  0  0
   -0.8472    0.0000   -1.0789 C   0  0  0  0  0  0  0  0  0  0  0  0
   -2.1700    0.0509   -0.6165 C   0  0  0  0  0  0  0  0  0  0  0  0
   -2.1298    0.0958    0.7931 C   0  0  0  0  0  0  0  0  0  0  0  0
   -0.7751    0.0700    1.1610 C   0  0  0  0  0  0  0  0  0  0  0  0
   -0.1030    0.1416    2.4567 C   0  0  0  0  0  0  0  0  0  0  0  0
    1.0989    0.4007    2.5187 O   0  0  0  0  0  0  0  0  0  0  0  0
   -0.8657   -0.0731    3.5735 N   0  0  0  0  0  0  0  0  0  0  0  0
   -0.3214   -0.0886    4.9432 C   0  0  0  0  0  0  0  0  0  0  0  0
    1.0612    0.4869    4.9631 C   0  0  0  0  0  0  0  0  0  0  0  0
    2.1461   -0.2201    5.3154 C   0  0  0  0  0  0  0  0  0  0  0  0
    3.4618    0.2875    5.0092 C   0  0  0  0  0  0  0  0  0  0  0  0
    3.6690    0.8026    3.7014 N   0  0  0  0  0  0  0  0  0  0  0  0
    2.9277    0.8273    2.9941 H   0  0  0  0  0  0  0  0  0  0  0  0
    4.9833    1.1931    3.5864 C   0  0  1  0  0  0  0  0  0  0  0  0
    5.5402    1.8260    2.5137 N   0  0  0  0  0  0  0  0  0  0  0  0
    6.5412    1.8556    2.4022 H   0  0  0  0  0  0  0  0  0  0  0  0
    4.9932    1.9410    1.6729 H   0  0  0  0  0  0  0  0  0  0  0  0
    5.6124    0.9316    4.7925 N   0  0  0  0  0  0  0  0  0  0  0  0
    6.5720    1.1280    5.0174 H   0  0  0  0  0  0  0  0  0  0  0  0
    4.6681    0.3659    5.6748 C   0  0  0  0  0  0  0  0  0  0  0  0
   -3.6853    0.0572   -1.6762 Br  0  0  0  0  0  0  0  0  0  0  0  0
   -0.1837   -0.0786   -2.7995 Br  0  0  0  0  0  0  0  0  0  0  0  0
   -2.9783    0.1517    1.4471 H   0  0  0  0  0  0  0  0  0  0  0  0
   -1.8408   -0.3405    3.4899 H   0  0  0  0  0  0  0  0  0  0  0  0
   -0.3420   -1.1394    5.3292 H   0  0  0  0  0  0  0  0  0  0  0  0
   -1.0011    0.5129    5.6033 H   0  0  0  0  0  0  0  0  0  0  0  0
    1.1270    1.5241    4.6134 H   0  0  0  0  0  0  0  0  0  0  0  0
    2.1012   -1.2240    5.7437 H   0  0  0  0  0  0  0  0  0  0  0  0
    4.9346    0.0767    6.6796 H   0  0  0  0  0  0  0  0  0  0  0  0
  1  6  1  0  0  0  0
  2  1  1  0  0  0  0
  3  4  2  0  0  0  0
  3  1  1  0  0  0  0
  4  5  1  0  0  0  0
  5  6  2  0  0  0  0
  5 25  1  0  0  0  0
  6  7  1  0  0  0  0
  7  8  2  0  0  0  0
  7  9  1  0  0  0  0
  9 10  1  0  0  0  0
 10 11  1  0  0  0  0
 10 27  1  0  0  0  0
 10 28  1  0  0  0  0
 11 12  2  0  0  0  0
 12 30  1  0  0  0  0
 13 12  1  0  0  0  0
 13 22  2  0  0  0  0
 14 13  1  0  0  0  0
 15 14  1  0  0  0  0
 16 17  1  1  0  0  0
 16 14  1  0  0  0  0
 16 20  1  0  0  0  0
 18 17  1  0  0  0  0
 19 17  1  0  0  0  0
 20 21  1  0  0  0  0
 20 22  1  0  0  0  0
 22 31  1  0  0  0  0
 23  4  1  0  0  0  0
 24  3  1  0  0  0  0
 26  9  1  0  0  0  0
 29 11  1  0  0  0  0
M  END
$$$$
