31
rmsd64.gzmat
N          0.00000        0.00000        0.00000
H          1.00070        0.00000        0.00000
C         -0.84660        0.00000       -1.07940
C         -2.16970       -0.05300       -0.61820
C         -2.13060       -0.10090        0.79120
C         -0.77590       -0.07440        1.16010
C         -0.10640       -0.15710        2.45620
O          1.09640       -0.41190        2.51890
N         -0.87320        0.03840        3.57380
C         -0.33010        0.03740        4.94400
C          1.03000       -0.58910        4.96550
C          2.13070        0.06010        5.37410
C          3.43410       -0.47310        5.05920
N          3.65630       -0.87930        3.71580
H          2.92290       -0.84850        3.00010
C          4.95320       -1.32420        3.60120
N          5.51410       -1.89010        2.49330
H          6.51650       -1.96140        2.41260
H          4.99700       -1.88910        1.62560
N          5.56170       -1.18710        4.83810
H          6.50600       -1.44320        5.06710
C          4.61750       -0.65980        5.74370
Br        -3.68370       -0.05480       -1.67980
Br        -0.18490        0.07940       -2.80070
H         -2.97950       -0.15660        1.44460
H         -1.84930        0.30310        3.49140
H         -1.03220       -0.53600        5.60530
H         -0.31020        1.08980        5.32670
H          1.06770       -1.61030        4.56750
H          2.11190        1.04140        5.85430
H          4.86710       -0.47170        6.77660
