rmsd73.gzmat
 OpenBabel08211713363D

 31 32  0  0  1  0  0  0  0  0999 V2000
    0.0000    0.0000    0.0000 N   0  0  0  0  0  0  0  0  0  0  0  0
    1.0009    0.0000    0.0000 H   0  0  0  0  0  0  0  0  0  0  0  0
   -0.8465    0.0000   -1.0791 C   0  0  0  0  0  0  0  0  0  0  0  0
   -2.1696    0.0447   -0.6171 C   0  0  0  0  0  0  0  0  0  0  0  0
   -2.1303    0.0849    0.7928 C   0  0  0  0  0  0  0  0  0  0  0  0
   -0.7757    0.0639    1.1613 C   0  0  0  0  0  0  0  0  0  0  0  0
   -0.0991    0.1317    2.4549 C   0  0  0  0  0  0  0  0  0  0  0  0
    1.1065    0.3769    2.5098 O   0  0  0  0  0  0  0  0  0  0  0  0
   -0.8560   -0.0755    3.5770 N   0  0  0  0  0  0  0  0  0  0  0  0
   -0.2911   -0.1232    4.9371 C   0  0  0  0  0  0  0  0  0  0  0  0
    1.0477    0.5461    4.9683 C   0  0  0  0  0  0  0  0  0  0  0  0
    2.1675   -0.0633    5.3881 C   0  0  0  0  0  0  0  0  0  0  0  0
    3.4518    0.5129    5.0700 C   0  0  0  0  0  0  0  0  0  0  0  0
    3.6472    0.9394    3.7285 N   0  0  0  0  0  0  0  0  0  0  0  0
    2.9095    0.8884    3.0182 H   0  0  0  0  0  0  0  0  0  0  0  0
    4.9279    1.4262    3.6043 C   0  0  1  0  0  0  0  0  0  0  0  0
    5.4534    2.0246    2.4960 N   0  0  0  0  0  0  0  0  0  0  0  0
    6.4509    2.1280    2.3989 H   0  0  0  0  0  0  0  0  0  0  0  0
    4.9220    2.0163    1.6364 H   0  0  0  0  0  0  0  0  0  0  0  0
    5.5537    1.2960    4.8331 N   0  0  0  0  0  0  0  0  0  0  0  0
    6.4926    1.5769    5.0546 H   0  0  0  0  0  0  0  0  0  0  0  0
    4.6372    0.7278    5.7428 C   0  0  0  0  0  0  0  0  0  0  0  0
   -3.6840    0.0507   -1.6785 Br  0  0  0  0  0  0  0  0  0  0  0  0
   -0.1814   -0.0709   -2.7996 Br  0  0  0  0  0  0  0  0  0  0  0  0
   -2.9799    0.1315    1.4461 H   0  0  0  0  0  0  0  0  0  0  0  0
   -1.8494   -0.2655    3.5060 H   0  0  0  0  0  0  0  0  0  0  0  0
   -0.2286   -1.1936    5.2626 H   0  0  0  0  0  0  0  0  0  0  0  0
   -0.9982    0.3890    5.6410 H   0  0  0  0  0  0  0  0  0  0  0  0
    1.0550    1.5666    4.5661 H   0  0  0  0  0  0  0  0  0  0  0  0
    2.1797   -1.0402    5.8775 H   0  0  0  0  0  0  0  0  0  0  0  0
    4.9057    0.5340    6.7699 H   0  0  0  0  0  0  0  0  0  0  0  0
  1  6  1  0  0  0  0
  2  1  1  0  0  0  0
  3  4  2  0  0  0  0
  3  1  1  0  0  0  0
  4  5  1  0  0  0  0
  5  6  2  0  0  0  0
  5 25  1  0  0  0  0
  6  7  1  0  0  0  0
  7  8  2  0  0  0  0
  7  9  1  0  0  0  0
  9 10  1  0  0  0  0
 10 11  1  0  0  0  0
 10 27  1  0  0  0  0
 10 28  1  0  0  0  0
 11 12  2  0  0  0  0
 12 30  1  0  0  0  0
 13 12  1  0  0  0  0
 13 22  2  0  0  0  0
 14 13  1  0  0  0  0
 15 14  1  0  0  0  0
 16 17  1  1  0  0  0
 16 14  1  0  0  0  0
 16 20  1  0  0  0  0
 18 17  1  0  0  0  0
 19 17  1  0  0  0  0
 20 21  1  0  0  0  0
 20 22  1  0  0  0  0
 22 31  1  0  0  0  0
 23  4  1  0  0  0  0
 24  3  1  0  0  0  0
 26  9  1  0  0  0  0
 29 11  1  0  0  0  0
M  END
$$$$
