rmsd34.gzmat
 OpenBabel08211713363D

 31 32  0  0  1  0  0  0  0  0999 V2000
    0.0000    0.0000    0.0000 N   0  0  0  0  0  0  0  0  0  0  0  0
    1.0010    0.0000    0.0000 H   0  0  0  0  0  0  0  0  0  0  0  0
   -0.8458    0.0000   -1.0799 C   0  0  0  0  0  0  0  0  0  0  0  0
   -2.1695    0.0417   -0.6191 C   0  0  0  0  0  0  0  0  0  0  0  0
   -2.1312    0.0812    0.7906 C   0  0  0  0  0  0  0  0  0  0  0  0
   -0.7766    0.0626    1.1602 C   0  0  0  0  0  0  0  0  0  0  0  0
   -0.1101    0.1381    2.4583 C   0  0  0  0  0  0  0  0  0  0  0  0
    1.0929    0.3903    2.5261 O   0  0  0  0  0  0  0  0  0  0  0  0
   -0.8809   -0.0624    3.5722 N   0  0  0  0  0  0  0  0  0  0  0  0
   -0.3395   -0.0730    4.9421 C   0  0  0  0  0  0  0  0  0  0  0  0
    0.9935    0.6073    4.9784 C   0  0  0  0  0  0  0  0  0  0  0  0
    2.1125    0.0107    5.4168 C   0  0  0  0  0  0  0  0  0  0  0  0
    3.3966    0.5929    5.1108 C   0  0  0  0  0  0  0  0  0  0  0  0
    3.6084    1.0160    3.7709 N   0  0  0  0  0  0  0  0  0  0  0  0
    2.9036    0.8924    3.0364 H   0  0  0  0  0  0  0  0  0  0  0  0
    4.9031    1.4665    3.6522 C   0  0  2  0  0  0  0  0  0  0  0  0
    5.5173    1.8655    2.4989 N   0  0  0  0  0  0  0  0  0  0  0  0
    6.3130    2.4841    2.5425 H   0  0  0  0  0  0  0  0  0  0  0  0
    4.9722    1.9130    1.6488 H   0  0  0  0  0  0  0  0  0  0  0  0
    5.5028    1.3693    4.8964 N   0  0  0  0  0  0  0  0  0  0  0  0
    6.4556    1.6032    5.1161 H   0  0  0  0  0  0  0  0  0  0  0  0
    4.5678    0.8258    5.8019 C   0  0  0  0  0  0  0  0  0  0  0  0
   -3.6835    0.0470   -1.6807 Br  0  0  0  0  0  0  0  0  0  0  0  0
   -0.1794   -0.0640   -2.8000 Br  0  0  0  0  0  0  0  0  0  0  0  0
   -2.9808    0.1259    1.4441 H   0  0  0  0  0  0  0  0  0  0  0  0
   -1.8710   -0.2640    3.4895 H   0  0  0  0  0  0  0  0  0  0  0  0
   -0.2752   -1.1344    5.2953 H   0  0  0  0  0  0  0  0  0  0  0  0
   -1.0623    0.4518    5.6203 H   0  0  0  0  0  0  0  0  0  0  0  0
    0.9985    1.6221    4.5622 H   0  0  0  0  0  0  0  0  0  0  0  0
    2.1262   -0.9618    5.9149 H   0  0  0  0  0  0  0  0  0  0  0  0
    4.8126    0.6639    6.8404 H   0  0  0  0  0  0  0  0  0  0  0  0
  1  6  1  0  0  0  0
  2  1  1  0  0  0  0
  3  4  2  0  0  0  0
  3  1  1  0  0  0  0
  4  5  1  0  0  0  0
  5  6  2  0  0  0  0
  5 25  1  0  0  0  0
  6  7  1  0  0  0  0
  7  8  2  0  0  0  0
  7  9  1  0  0  0  0
  9 10  1  0  0  0  0
 10 11  1  0  0  0  0
 10 27  1  0  0  0  0
 10 28  1  0  0  0  0
 11 12  2  0  0  0  0
 12 30  1  0  0  0  0
 13 12  1  0  0  0  0
 13 22  2  0  0  0  0
 14 13  1  0  0  0  0
 15 14  1  0  0  0  0
 16 17  1  6  0  0  0
 16 14  1  0  0  0  0
 16 20  1  0  0  0  0
 17 18  1  0  0  0  0
 19 17  1  0  0  0  0
 20 21  1  0  0  0  0
 20 22  1  0  0  0  0
 22 31  1  0  0  0  0
 23  4  1  0  0  0  0
 24  3  1  0  0  0  0
 26  9  1  0  0  0  0
 29 11  1  0  0  0  0
M  END
$$$$
