40
rmsd137.gzmat
O          0.00000        0.00000        0.00000
C          1.20990        0.00000        0.00000
C          1.96990        0.00000        1.29540
C          1.96590        0.00180       -1.27130
C          3.35380        0.14120       -1.32090
C          4.02280        0.16670       -2.53800
C          3.29400        0.05440       -3.73130
C          1.89450       -0.11230       -3.68740
C          1.24460       -0.13150       -2.46290
N          3.88920        0.09000       -5.00640
C          5.21060        0.47370       -5.27520
O          5.97430        0.77670       -4.38440
C          5.55640        0.47260       -6.69060
C          4.71980        0.86570       -7.78510
N          5.38050        0.70780       -8.95080
N          6.61840        0.24610       -8.63960
H          7.24570       -0.02770       -9.37260
C          6.77960        0.08410       -7.27250
C          8.01660       -0.38960       -6.69730
C          8.50670        0.15550       -5.50130
C          9.68050       -0.32580       -4.94720
Cl        10.24680        0.33300       -3.49080
C         10.40120       -1.35300       -5.57490
O         11.54100       -1.74410       -4.97400
C          9.94630       -1.91710       -6.76920
C          8.76370       -1.41210       -7.30970
O          8.27630       -1.86630       -8.48880
H          1.28360       -0.10480        2.15050
H          2.52010        0.94030        1.43450
H          2.68770       -0.82810        1.34810
H          3.93170        0.23560       -0.40000
H          5.11010        0.27480       -2.55180
H          1.32180       -0.21600       -4.60450
H          0.15600       -0.24660       -2.41860
H          3.29720       -0.16150       -5.79390
H          3.71860        1.25820       -7.74870
H          7.95140        0.97170       -5.00660
H         12.01290       -2.45580       -5.48030
H         10.49070       -2.71470       -7.25710
H          8.77440       -2.64920       -8.83560
