rmsd137.gzmat
 OpenBabel08211713433D

 40 42  0  0  0  0  0  0  0  0999 V2000
    0.0000    0.0000    0.0000 O   0  0  0  0  0  0  0  0  0  0  0  0
    1.2099    0.0000    0.0000 C   0  0  0  0  0  0  0  0  0  0  0  0
    1.9699    0.0000    1.2954 C   0  0  0  0  0  0  0  0  0  0  0  0
    1.9659    0.0018   -1.2713 C   0  0  0  0  0  0  0  0  0  0  0  0
    3.3538    0.1412   -1.3209 C   0  0  0  0  0  0  0  0  0  0  0  0
    4.0228    0.1667   -2.5380 C   0  0  0  0  0  0  0  0  0  0  0  0
    3.2940    0.0544   -3.7313 C   0  0  0  0  0  0  0  0  0  0  0  0
    1.8945   -0.1123   -3.6874 C   0  0  0  0  0  0  0  0  0  0  0  0
    1.2446   -0.1315   -2.4629 C   0  0  0  0  0  0  0  0  0  0  0  0
    3.8892    0.0900   -5.0064 N   0  0  0  0  0  0  0  0  0  0  0  0
    5.2106    0.4737   -5.2752 C   0  0  0  0  0  0  0  0  0  0  0  0
    5.9743    0.7767   -4.3844 O   0  0  0  0  0  0  0  0  0  0  0  0
    5.5564    0.4726   -6.6906 C   0  0  0  0  0  0  0  0  0  0  0  0
    4.7198    0.8657   -7.7851 C   0  0  0  0  0  0  0  0  0  0  0  0
    5.3805    0.7078   -8.9508 N   0  0  0  0  0  0  0  0  0  0  0  0
    6.6184    0.2461   -8.6396 N   0  0  0  0  0  0  0  0  0  0  0  0
    7.2457   -0.0277   -9.3726 H   0  0  0  0  0  0  0  0  0  0  0  0
    6.7796    0.0841   -7.2725 C   0  0  0  0  0  0  0  0  0  0  0  0
    8.0166   -0.3896   -6.6973 C   0  0  0  0  0  0  0  0  0  0  0  0
    8.5067    0.1555   -5.5013 C   0  0  0  0  0  0  0  0  0  0  0  0
    9.6805   -0.3258   -4.9472 C   0  0  0  0  0  0  0  0  0  0  0  0
   10.2468    0.3330   -3.4908 Cl  0  0  0  0  0  0  0  0  0  0  0  0
   10.4012   -1.3530   -5.5749 C   0  0  0  0  0  0  0  0  0  0  0  0
   11.5410   -1.7441   -4.9740 O   0  0  0  0  0  0  0  0  0  0  0  0
    9.9463   -1.9171   -6.7692 C   0  0  0  0  0  0  0  0  0  0  0  0
    8.7637   -1.4121   -7.3097 C   0  0  0  0  0  0  0  0  0  0  0  0
    8.2763   -1.8663   -8.4888 O   0  0  0  0  0  0  0  0  0  0  0  0
    1.2836   -0.1048    2.1505 H   0  0  0  0  0  0  0  0  0  0  0  0
    2.5201    0.9403    1.4345 H   0  0  0  0  0  0  0  0  0  0  0  0
    2.6877   -0.8281    1.3481 H   0  0  0  0  0  0  0  0  0  0  0  0
    3.9317    0.2356   -0.4000 H   0  0  0  0  0  0  0  0  0  0  0  0
    5.1101    0.2748   -2.5518 H   0  0  0  0  0  0  0  0  0  0  0  0
    1.3218   -0.2160   -4.6045 H   0  0  0  0  0  0  0  0  0  0  0  0
    0.1560   -0.2466   -2.4186 H   0  0  0  0  0  0  0  0  0  0  0  0
    3.2972   -0.1615   -5.7939 H   0  0  0  0  0  0  0  0  0  0  0  0
    3.7186    1.2582   -7.7487 H   0  0  0  0  0  0  0  0  0  0  0  0
    7.9514    0.9717   -5.0066 H   0  0  0  0  0  0  0  0  0  0  0  0
   12.0129   -2.4558   -5.4803 H   0  0  0  0  0  0  0  0  0  0  0  0
   10.4907   -2.7147   -7.2571 H   0  0  0  0  0  0  0  0  0  0  0  0
    8.7744   -2.6492   -8.8356 H   0  0  0  0  0  0  0  0  0  0  0  0
  1  2  2  0  0  0  0
  2  3  1  0  0  0  0
  3 30  1  0  0  0  0
  3 29  1  0  0  0  0
  3 28  1  0  0  0  0
  4  2  1  0  0  0  0
  5  4  1  0  0  0  0
  5 31  1  0  0  0  0
  6  5  2  0  0  0  0
  7  8  2  0  0  0  0
  7  6  1  0  0  0  0
  8  9  1  0  0  0  0
  9 34  1  0  0  0  0
  9  4  2  0  0  0  0
 10  7  1  0  0  0  0
 11 10  1  0  0  0  0
 11 12  2  0  0  0  0
 13 11  1  0  0  0  0
 14 36  1  0  0  0  0
 14 13  1  0  0  0  0
 15 16  1  0  0  0  0
 15 14  2  0  0  0  0
 16 18  1  0  0  0  0
 17 16  1  0  0  0  0
 18 19  1  0  0  0  0
 18 13  2  0  0  0  0
 19 20  2  0  0  0  0
 20 37  1  0  0  0  0
 20 21  1  0  0  0  0
 21 22  1  0  0  0  0
 23 24  1  0  0  0  0
 23 21  2  0  0  0  0
 25 23  1  0  0  0  0
 26 25  2  0  0  0  0
 26 19  1  0  0  0  0
 27 26  1  0  0  0  0
 32  6  1  0  0  0  0
 33  8  1  0  0  0  0
 35 10  1  0  0  0  0
 38 24  1  0  0  0  0
 39 25  1  0  0  0  0
 40 27  1  0  0  0  0
M  END
$$$$
