rmsd150.gzmat
 OpenBabel08211713433D

 40 42  0  0  0  0  0  0  0  0999 V2000
    0.0000    0.0000    0.0000 O   0  0  0  0  0  0  0  0  0  0  0  0
    1.2101    0.0000    0.0000 C   0  0  0  0  0  0  0  0  0  0  0  0
    1.9685    0.0000    1.2962 C   0  0  0  0  0  0  0  0  0  0  0  0
    1.9662    0.0078   -1.2714 C   0  0  0  0  0  0  0  0  0  0  0  0
    3.3574   -0.0935   -1.3250 C   0  0  0  0  0  0  0  0  0  0  0  0
    4.0272   -0.0658   -2.5418 C   0  0  0  0  0  0  0  0  0  0  0  0
    3.2965    0.0670   -3.7320 C   0  0  0  0  0  0  0  0  0  0  0  0
    1.8891    0.1505   -3.6863 C   0  0  0  0  0  0  0  0  0  0  0  0
    1.2398    0.1219   -2.4620 C   0  0  0  0  0  0  0  0  0  0  0  0
    3.8922    0.1390   -5.0041 N   0  0  0  0  0  0  0  0  0  0  0  0
    5.2669    0.0843   -5.2748 C   0  0  0  0  0  0  0  0  0  0  0  0
    6.0848   -0.0889   -4.3987 O   0  0  0  0  0  0  0  0  0  0  0  0
    5.5938    0.2652   -6.6845 C   0  0  0  0  0  0  0  0  0  0  0  0
    5.0351    1.2387   -7.5739 C   0  0  0  0  0  0  0  0  0  0  0  0
    5.5786    1.1063   -8.8019 N   0  0  0  0  0  0  0  0  0  0  0  0
    6.4784    0.0930   -8.7248 N   0  0  0  0  0  0  0  0  0  0  0  0
    6.9385   -0.2282   -9.5561 H   0  0  0  0  0  0  0  0  0  0  0  0
    6.5265   -0.4567   -7.4533 C   0  0  0  0  0  0  0  0  0  0  0  0
    7.4082   -1.5500   -7.1199 C   0  0  0  0  0  0  0  0  0  0  0  0
    8.0752   -1.5803   -5.8867 C   0  0  0  0  0  0  0  0  0  0  0  0
    8.8921   -2.6505   -5.5662 C   0  0  0  0  0  0  0  0  0  0  0  0
    9.6886   -2.6758   -4.0693 Cl  0  0  0  0  0  0  0  0  0  0  0  0
    9.0651   -3.7149   -6.4645 C   0  0  0  0  0  0  0  0  0  0  0  0
    9.8773   -4.7117   -6.0652 O   0  0  0  0  0  0  0  0  0  0  0  0
    8.4262   -3.7127   -7.7067 C   0  0  0  0  0  0  0  0  0  0  0  0
    7.6157   -2.6187   -8.0105 C   0  0  0  0  0  0  0  0  0  0  0  0
    6.9912   -2.5099   -9.2074 O   0  0  0  0  0  0  0  0  0  0  0  0
    1.2809    0.0949    2.1508 H   0  0  0  0  0  0  0  0  0  0  0  0
    2.6773    0.8354    1.3538 H   0  0  0  0  0  0  0  0  0  0  0  0
    2.5274   -0.9349    1.4323 H   0  0  0  0  0  0  0  0  0  0  0  0
    3.9382   -0.1963   -0.4069 H   0  0  0  0  0  0  0  0  0  0  0  0
    5.1167   -0.1471   -2.5584 H   0  0  0  0  0  0  0  0  0  0  0  0
    1.3106    0.2368   -4.6017 H   0  0  0  0  0  0  0  0  0  0  0  0
    0.1472    0.1895   -2.4165 H   0  0  0  0  0  0  0  0  0  0  0  0
    3.2608    0.2291   -5.7977 H   0  0  0  0  0  0  0  0  0  0  0  0
    4.3084    2.0003   -7.3508 H   0  0  0  0  0  0  0  0  0  0  0  0
    7.9428   -0.7464   -5.1757 H   0  0  0  0  0  0  0  0  0  0  0  0
    9.9553   -5.4342   -6.7412 H   0  0  0  0  0  0  0  0  0  0  0  0
    8.5566   -4.5270   -8.4069 H   0  0  0  0  0  0  0  0  0  0  0  0
    7.0774   -3.3252   -9.7630 H   0  0  0  0  0  0  0  0  0  0  0  0
  2  1  2  0  0  0  0
  2  3  1  0  0  0  0
  3 29  1  0  0  0  0
  3 30  1  0  0  0  0
  3 28  1  0  0  0  0
  4  2  1  0  0  0  0
  5  4  1  0  0  0  0
  5 31  1  0  0  0  0
  6  5  2  0  0  0  0
  7  8  2  0  0  0  0
  7  6  1  0  0  0  0
  8  9  1  0  0  0  0
  9 34  1  0  0  0  0
  9  4  2  0  0  0  0
 10  7  1  0  0  0  0
 11 10  1  0  0  0  0
 11 12  2  0  0  0  0
 13 11  1  0  0  0  0
 14 36  1  0  0  0  0
 14 13  1  0  0  0  0
 15 16  1  0  0  0  0
 15 14  2  0  0  0  0
 16 18  1  0  0  0  0
 17 16  1  0  0  0  0
 18 19  1  0  0  0  0
 18 13  2  0  0  0  0
 19 20  2  0  0  0  0
 20 21  1  0  0  0  0
 20 37  1  0  0  0  0
 21 22  1  0  0  0  0
 23 24  1  0  0  0  0
 23 21  2  0  0  0  0
 25 23  1  0  0  0  0
 26 25  2  0  0  0  0
 26 19  1  0  0  0  0
 27 26  1  0  0  0  0
 32  6  1  0  0  0  0
 33  8  1  0  0  0  0
 35 10  1  0  0  0  0
 38 24  1  0  0  0  0
 39 25  1  0  0  0  0
 40 27  1  0  0  0  0
M  END
$$$$
