rmsd165.gzmat
 OpenBabel08211713433D

 40 42  0  0  0  0  0  0  0  0999 V2000
    0.0000    0.0000    0.0000 O   0  0  0  0  0  0  0  0  0  0  0  0
    1.2087    0.0000    0.0000 C   0  0  0  0  0  0  0  0  0  0  0  0
    1.9815    0.0000    1.2861 C   0  0  0  0  0  0  0  0  0  0  0  0
    1.9656    0.0298   -1.2739 C   0  0  0  0  0  0  0  0  0  0  0  0
    3.2876   -0.4032   -1.3678 C   0  0  0  0  0  0  0  0  0  0  0  0
    3.9637   -0.3616   -2.5825 C   0  0  0  0  0  0  0  0  0  0  0  0
    3.3075    0.1270   -3.7189 C   0  0  0  0  0  0  0  0  0  0  0  0
    1.9703    0.5626   -3.6319 C   0  0  0  0  0  0  0  0  0  0  0  0
    1.3090    0.5030   -2.4144 C   0  0  0  0  0  0  0  0  0  0  0  0
    3.9167    0.2198   -4.9903 N   0  0  0  0  0  0  0  0  0  0  0  0
    5.1932   -0.2160   -5.3185 C   0  0  0  0  0  0  0  0  0  0  0  0
    5.9332   -0.7303   -4.4933 O   0  0  0  0  0  0  0  0  0  0  0  0
    5.5699   -0.0329   -6.7118 C   0  0  0  0  0  0  0  0  0  0  0  0
    4.8110   -0.4516   -7.8543 C   0  0  0  0  0  0  0  0  0  0  0  0
    5.4935   -0.1769   -8.9825 N   0  0  0  0  0  0  0  0  0  0  0  0
    6.6634    0.4014   -8.6019 N   0  0  0  0  0  0  0  0  0  0  0  0
    7.3266    0.6742   -9.3028 H   0  0  0  0  0  0  0  0  0  0  0  0
    6.7613    0.5125   -7.2215 C   0  0  0  0  0  0  0  0  0  0  0  0
    7.9220    1.1355   -6.6314 C   0  0  0  0  0  0  0  0  0  0  0  0
    8.2757    2.4315   -7.0434 C   0  0  0  0  0  0  0  0  0  0  0  0
    9.4535    3.0035   -6.6110 C   0  0  0  0  0  0  0  0  0  0  0  0
    9.8698    4.5677   -7.1216 Cl  0  0  0  0  0  0  0  0  0  0  0  0
   10.3167    2.2932   -5.7533 C   0  0  0  0  0  0  0  0  0  0  0  0
   11.4588    2.9172   -5.4047 O   0  0  0  0  0  0  0  0  0  0  0  0
    9.9801    1.0261   -5.2986 C   0  0  0  0  0  0  0  0  0  0  0  0
    8.7617    0.4648   -5.7175 C   0  0  0  0  0  0  0  0  0  0  0  0
    8.5004   -0.7522   -5.2398 O   0  0  0  0  0  0  0  0  0  0  0  0
    1.3056    0.0854    2.1517 H   0  0  0  0  0  0  0  0  0  0  0  0
    2.6844    0.8427    1.3319 H   0  0  0  0  0  0  0  0  0  0  0  0
    2.5548   -0.9273    1.4160 H   0  0  0  0  0  0  0  0  0  0  0  0
    3.8068   -0.7837   -0.4864 H   0  0  0  0  0  0  0  0  0  0  0  0
    4.9989   -0.7079   -2.6326 H   0  0  0  0  0  0  0  0  0  0  0  0
    1.4525    0.9406   -4.5091 H   0  0  0  0  0  0  0  0  0  0  0  0
    0.2646    0.8234   -2.3374 H   0  0  0  0  0  0  0  0  0  0  0  0
    3.3685    0.6684   -5.7240 H   0  0  0  0  0  0  0  0  0  0  0  0
    3.8484   -0.9339   -7.8686 H   0  0  0  0  0  0  0  0  0  0  0  0
    7.6059    2.9838   -7.7102 H   0  0  0  0  0  0  0  0  0  0  0  0
   12.0222    2.3623   -4.8024 H   0  0  0  0  0  0  0  0  0  0  0  0
   10.6159    0.4615   -4.6222 H   0  0  0  0  0  0  0  0  0  0  0  0
    7.5060   -0.8922   -5.0429 H   0  0  0  0  0  0  0  0  0  0  0  0
  2  1  2  0  0  0  0
  2  3  1  0  0  0  0
  3 29  1  0  0  0  0
  3 30  1  0  0  0  0
  3 28  1  0  0  0  0
  4  2  1  0  0  0  0
  5  4  1  0  0  0  0
  5 31  1  0  0  0  0
  6  5  2  0  0  0  0
  7  8  2  0  0  0  0
  7  6  1  0  0  0  0
  8  9  1  0  0  0  0
  9 34  1  0  0  0  0
  9  4  2  0  0  0  0
 10  7  1  0  0  0  0
 11 10  1  0  0  0  0
 11 12  2  0  0  0  0
 13 11  1  0  0  0  0
 14 13  1  0  0  0  0
 15 16  1  0  0  0  0
 15 14  2  0  0  0  0
 16 18  1  0  0  0  0
 17 16  1  0  0  0  0
 18 13  2  0  0  0  0
 18 19  1  0  0  0  0
 19 26  1  0  0  0  0
 20 19  2  0  0  0  0
 20 21  1  0  0  0  0
 21 23  2  0  0  0  0
 22 21  1  0  0  0  0
 23 24  1  0  0  0  0
 23 25  1  0  0  0  0
 24 38  1  0  0  0  0
 25 39  1  0  0  0  0
 26 25  2  0  0  0  0
 26 27  1  0  0  0  0
 27 40  1  0  0  0  0
 32  6  1  0  0  0  0
 33  8  1  0  0  0  0
 35 10  1  0  0  0  0
 36 14  1  0  0  0  0
 37 20  1  0  0  0  0
M  END
$$$$
