rmsd105.gzmat
 OpenBabel08211713433D

 40 42  0  0  0  0  0  0  0  0999 V2000
    0.0000    0.0000    0.0000 O   0  0  0  0  0  0  0  0  0  0  0  0
    1.2096    0.0000    0.0000 C   0  0  0  0  0  0  0  0  0  0  0  0
    1.9725    0.0000    1.2936 C   0  0  0  0  0  0  0  0  0  0  0  0
    1.9671   -0.0226   -1.2705 C   0  0  0  0  0  0  0  0  0  0  0  0
    3.3203    0.3106   -1.3452 C   0  0  0  0  0  0  0  0  0  0  0  0
    3.9990    0.2597   -2.5563 C   0  0  0  0  0  0  0  0  0  0  0  0
    3.3174   -0.1408   -3.7151 C   0  0  0  0  0  0  0  0  0  0  0  0
    1.9426   -0.4507   -3.6506 C   0  0  0  0  0  0  0  0  0  0  0  0
    1.2813   -0.3873   -2.4337 C   0  0  0  0  0  0  0  0  0  0  0  0
    3.9347   -0.2652   -4.9734 N   0  0  0  0  0  0  0  0  0  0  0  0
    5.3015   -0.0989   -5.2400 C   0  0  0  0  0  0  0  0  0  0  0  0
    6.0826    0.2398   -4.3783 O   0  0  0  0  0  0  0  0  0  0  0  0
    5.6720   -0.3801   -6.6215 C   0  0  0  0  0  0  0  0  0  0  0  0
    5.1672   -1.4358   -7.4482 C   0  0  0  0  0  0  0  0  0  0  0  0
    5.7351   -1.3755   -8.6704 N   0  0  0  0  0  0  0  0  0  0  0  0
    6.6006   -0.3302   -8.6490 N   0  0  0  0  0  0  0  0  0  0  0  0
    7.0668   -0.0540   -9.4930 H   0  0  0  0  0  0  0  0  0  0  0  0
    6.6012    0.3135   -7.4212 C   0  0  0  0  0  0  0  0  0  0  0  0
    7.4452    1.4547   -7.1549 C   0  0  0  0  0  0  0  0  0  0  0  0
    8.0855    1.6020   -5.9156 C   0  0  0  0  0  0  0  0  0  0  0  0
    8.8688    2.7165   -5.6676 C   0  0  0  0  0  0  0  0  0  0  0  0
    9.6334    2.8833   -4.1634 Cl  0  0  0  0  0  0  0  0  0  0  0  0
    9.0340    3.7101   -6.6446 C   0  0  0  0  0  0  0  0  0  0  0  0
    9.8107    4.7588   -6.3131 O   0  0  0  0  0  0  0  0  0  0  0  0
    8.4227    3.5904   -7.8948 C   0  0  0  0  0  0  0  0  0  0  0  0
    7.6460    2.4546   -8.1236 C   0  0  0  0  0  0  0  0  0  0  0  0
    7.0528    2.2343   -9.3211 O   0  0  0  0  0  0  0  0  0  0  0  0
    1.2922   -0.1414    2.1480 H   0  0  0  0  0  0  0  0  0  0  0  0
    2.4927    0.9539    1.4504 H   0  0  0  0  0  0  0  0  0  0  0  0
    2.7159   -0.8066    1.3286 H   0  0  0  0  0  0  0  0  0  0  0  0
    3.8596    0.6185   -0.4479 H   0  0  0  0  0  0  0  0  0  0  0  0
    5.0569    0.5311   -2.5935 H   0  0  0  0  0  0  0  0  0  0  0  0
    1.3985   -0.7387   -4.5457 H   0  0  0  0  0  0  0  0  0  0  0  0
    0.2139   -0.6246   -2.3716 H   0  0  0  0  0  0  0  0  0  0  0  0
    3.3281   -0.5051   -5.7544 H   0  0  0  0  0  0  0  0  0  0  0  0
    4.4615   -2.2050   -7.1861 H   0  0  0  0  0  0  0  0  0  0  0  0
    7.9604    0.8237   -5.1421 H   0  0  0  0  0  0  0  0  0  0  0  0
    9.8839    5.4241   -7.0466 H   0  0  0  0  0  0  0  0  0  0  0  0
    8.5491    4.3475   -8.6574 H   0  0  0  0  0  0  0  0  0  0  0  0
    7.1253    3.0075   -9.9359 H   0  0  0  0  0  0  0  0  0  0  0  0
  2  1  2  0  0  0  0
  2  3  1  0  0  0  0
  3 30  1  0  0  0  0
  3 29  1  0  0  0  0
  3 28  1  0  0  0  0
  4  2  1  0  0  0  0
  5  4  1  0  0  0  0
  5 31  1  0  0  0  0
  6  5  2  0  0  0  0
  7  8  2  0  0  0  0
  7  6  1  0  0  0  0
  8  9  1  0  0  0  0
  9 34  1  0  0  0  0
  9  4  2  0  0  0  0
 10  7  1  0  0  0  0
 11 10  1  0  0  0  0
 11 12  2  0  0  0  0
 13 11  1  0  0  0  0
 14 36  1  0  0  0  0
 14 13  1  0  0  0  0
 15 16  1  0  0  0  0
 15 14  2  0  0  0  0
 16 18  1  0  0  0  0
 17 16  1  0  0  0  0
 18 19  1  0  0  0  0
 18 13  2  0  0  0  0
 19 20  2  0  0  0  0
 20 21  1  0  0  0  0
 20 37  1  0  0  0  0
 21 22  1  0  0  0  0
 23 24  1  0  0  0  0
 23 21  2  0  0  0  0
 25 23  1  0  0  0  0
 26 25  2  0  0  0  0
 26 19  1  0  0  0  0
 27 26  1  0  0  0  0
 32  6  1  0  0  0  0
 33  8  1  0  0  0  0
 35 10  1  0  0  0  0
 38 24  1  0  0  0  0
 39 25  1  0  0  0  0
 40 27  1  0  0  0  0
M  END
$$$$
