40

O         -0.13190        0.61570        0.11130
C          1.06500        0.39510        0.13780
C          1.79280        0.21550        1.45740
C          1.85390        0.29450       -1.12820
C          3.23400        0.04160       -1.16220
C          3.93410       -0.04710       -2.36390
C          3.24680        0.12330       -3.57960
C          1.85920        0.37800       -3.55380
C          1.17810        0.46080       -2.34990
N          3.86180        0.06000       -4.83430
C          5.18680       -0.19000       -5.14710
O          6.01880       -0.46740       -4.29410
C          5.46620       -0.05670       -6.59590
C          4.76790        0.82460       -7.47150
N          5.20810        0.74130       -8.71640
N          6.17630       -0.17890       -8.66790
H          6.64540       -0.48230       -9.51390
C          6.40630       -0.70680       -7.43160
C          7.43010       -1.73930       -7.21850
C          7.90470       -2.03480       -5.92500
C          8.85820       -3.01590       -5.69140
Cl         9.40660       -3.34000       -4.07000
C          9.39890       -3.75500       -6.75890
O         10.32350       -4.69990       -6.49900
C          8.95260       -3.46480       -8.05310
C          7.99180       -2.47850       -8.28800
O          7.58570       -2.21470       -9.56650
H          1.07020        0.32010        2.27610
H          2.59020        0.96700        1.57230
H          2.26930       -0.77640        1.51190
H          3.79060       -0.09420       -0.23330
H          5.00060       -0.25140       -2.37950
H          1.32000        0.51210       -4.49620
H          0.10500        0.65740       -2.32100
H          3.23660        0.16710       -5.62350
H          3.98680        1.54150       -7.21760
H          7.50430       -1.47360       -5.08110
H         10.60320       -5.12130       -7.32210
H          9.36740       -4.02060       -8.90070
H          8.02300       -2.81500      -10.18380
