rmsd80.gzmat
 OpenBabel08211713433D

 40 42  0  0  0  0  0  0  0  0999 V2000
    0.0000    0.0000    0.0000 O   0  0  0  0  0  0  0  0  0  0  0  0
    1.2100    0.0000    0.0000 C   0  0  0  0  0  0  0  0  0  0  0  0
    1.9697    0.0000    1.2959 C   0  0  0  0  0  0  0  0  0  0  0  0
    1.9662    0.0060   -1.2716 C   0  0  0  0  0  0  0  0  0  0  0  0
    3.3603   -0.0422   -1.3194 C   0  0  0  0  0  0  0  0  0  0  0  0
    4.0320   -0.0350   -2.5351 C   0  0  0  0  0  0  0  0  0  0  0  0
    3.3009    0.0240   -3.7309 C   0  0  0  0  0  0  0  0  0  0  0  0
    1.8921    0.0701   -3.6906 C   0  0  0  0  0  0  0  0  0  0  0  0
    1.2400    0.0596   -2.4670 C   0  0  0  0  0  0  0  0  0  0  0  0
    3.9011    0.0565   -5.0034 N   0  0  0  0  0  0  0  0  0  0  0  0
    5.2685   -0.1043   -5.2659 C   0  0  0  0  0  0  0  0  0  0  0  0
    6.0682   -0.3044   -4.3782 O   0  0  0  0  0  0  0  0  0  0  0  0
    5.6175    0.0056   -6.6773 C   0  0  0  0  0  0  0  0  0  0  0  0
    4.9310   -0.5735   -7.7917 C   0  0  0  0  0  0  0  0  0  0  0  0
    5.5431   -0.2219   -8.9425 N   0  0  0  0  0  0  0  0  0  0  0  0
    6.6088    0.5465   -8.6015 N   0  0  0  0  0  0  0  0  0  0  0  0
    7.1536    0.9888   -9.3182 H   0  0  0  0  0  0  0  0  0  0  0  0
    6.7009    0.7168   -7.2297 C   0  0  0  0  0  0  0  0  0  0  0  0
    7.7487    1.4939   -6.6117 C   0  0  0  0  0  0  0  0  0  0  0  0
    8.3515    1.0591   -5.4222 C   0  0  0  0  0  0  0  0  0  0  0  0
    9.3174    1.8376   -4.8088 C   0  0  0  0  0  0  0  0  0  0  0  0
   10.0248    1.3030   -3.3635 Cl  0  0  0  0  0  0  0  0  0  0  0  0
    9.7098    3.0641   -5.3666 C   0  0  0  0  0  0  0  0  0  0  0  0
   10.6505    3.7563   -4.6966 O   0  0  0  0  0  0  0  0  0  0  0  0
    9.1475    3.5179   -6.5624 C   0  0  0  0  0  0  0  0  0  0  0  0
    8.1810    2.7123   -7.1651 C   0  0  0  0  0  0  0  0  0  0  0  0
    7.6125    3.0488   -8.3473 O   0  0  0  0  0  0  0  0  0  0  0  0
    1.2810   -0.0354    2.1544 H   0  0  0  0  0  0  0  0  0  0  0  0
    2.5771    0.9079    1.4042 H   0  0  0  0  0  0  0  0  0  0  0  0
    2.6356   -0.8686    1.3774 H   0  0  0  0  0  0  0  0  0  0  0  0
    3.9425   -0.0856   -0.3975 H   0  0  0  0  0  0  0  0  0  0  0  0
    5.1239   -0.0745   -2.5449 H   0  0  0  0  0  0  0  0  0  0  0  0
    1.3149    0.1110   -4.6098 H   0  0  0  0  0  0  0  0  0  0  0  0
    0.1458    0.0928   -2.4257 H   0  0  0  0  0  0  0  0  0  0  0  0
    3.2850    0.2292   -5.7944 H   0  0  0  0  0  0  0  0  0  0  0  0
    4.0687   -1.2167   -7.7783 H   0  0  0  0  0  0  0  0  0  0  0  0
    8.0476    0.0943   -4.9795 H   0  0  0  0  0  0  0  0  0  0  0  0
   10.8804    4.6139   -5.1402 H   0  0  0  0  0  0  0  0  0  0  0  0
    9.4521    4.4569   -7.0052 H   0  0  0  0  0  0  0  0  0  0  0  0
    7.8595    3.9591   -8.6491 H   0  0  0  0  0  0  0  0  0  0  0  0
  1  2  2  0  0  0  0
  2  3  1  0  0  0  0
  3 30  1  0  0  0  0
  3 29  1  0  0  0  0
  3 28  1  0  0  0  0
  4  2  1  0  0  0  0
  5  4  1  0  0  0  0
  5 31  1  0  0  0  0
  6  5  2  0  0  0  0
  7  8  2  0  0  0  0
  7  6  1  0  0  0  0
  8  9  1  0  0  0  0
  9 34  1  0  0  0  0
  9  4  2  0  0  0  0
 10  7  1  0  0  0  0
 11 10  1  0  0  0  0
 11 12  2  0  0  0  0
 13 11  1  0  0  0  0
 14 36  1  0  0  0  0
 14 13  1  0  0  0  0
 15 16  1  0  0  0  0
 15 14  2  0  0  0  0
 16 18  1  0  0  0  0
 17 16  1  0  0  0  0
 18 13  2  0  0  0  0
 18 19  1  0  0  0  0
 19 20  1  0  0  0  0
 20 37  1  0  0  0  0
 20 21  2  0  0  0  0
 21 22  1  0  0  0  0
 23 21  1  0  0  0  0
 23 24  1  0  0  0  0
 25 23  2  0  0  0  0
 26 19  2  0  0  0  0
 26 25  1  0  0  0  0
 27 26  1  0  0  0  0
 32  6  1  0  0  0  0
 33  8  1  0  0  0  0
 35 10  1  0  0  0  0
 38 24  1  0  0  0  0
 39 25  1  0  0  0  0
 40 27  1  0  0  0  0
M  END
$$$$
