40
rmsd236.gzmat
O          0.00000        0.00000        0.00000
C          1.21000        0.00000        0.00000
C          1.97120        0.00000        1.29480
C          1.96560       -0.01310       -1.27190
C          1.25360       -0.25030       -2.45310
C          1.90580       -0.28040       -3.67600
C          3.29810       -0.06220       -3.72930
C          4.01440        0.18240       -2.54800
C          3.34290        0.20480       -1.33200
N          3.89980       -0.11910       -4.99960
C          5.22550        0.22380       -5.29790
O          5.99740        0.60850       -4.44900
C          5.55180        0.07230       -6.71310
C          5.41150       -1.11800       -7.49400
N          5.79410       -0.87910       -8.76680
N          6.19090        0.41710       -8.82030
H          6.43830        0.82710       -9.70140
C          6.06230        1.04600       -7.59170
C          6.41210        2.43110       -7.38310
C          6.99060        2.84490       -6.17370
C          7.27710        4.18170       -5.96140
Cl         7.96760        4.66660       -4.49110
C          6.99890        5.14030       -6.94850
O          7.30050        6.41760       -6.64840
C          6.44680        4.76220       -8.17420
C          6.17450        3.40730       -8.36720
O          5.67700        2.94820       -9.54040
H          1.29320       -0.16430        2.14700
H          2.47100        0.96330        1.46180
H          2.73070       -0.79090        1.32400
H          0.17110       -0.41120       -2.40250
H          1.34070       -0.46630       -4.58510
H          5.09270        0.35450       -2.57180
H          3.90930        0.39750       -0.41960
H          3.29790       -0.37730       -5.77940
H          5.07660       -2.08760       -7.16810
H          7.21600        2.09570       -5.39460
H          7.07040        7.04600       -7.38140
H          6.24050        5.49220       -8.94580
H          5.44770        3.67560      -10.17240
