rmsd236.gzmat
 OpenBabel08211713433D

 40 42  0  0  0  0  0  0  0  0999 V2000
    0.0000    0.0000    0.0000 O   0  0  0  0  0  0  0  0  0  0  0  0
    1.2100    0.0000    0.0000 C   0  0  0  0  0  0  0  0  0  0  0  0
    1.9712    0.0000    1.2948 C   0  0  0  0  0  0  0  0  0  0  0  0
    1.9656   -0.0131   -1.2719 C   0  0  0  0  0  0  0  0  0  0  0  0
    1.2536   -0.2503   -2.4531 C   0  0  0  0  0  0  0  0  0  0  0  0
    1.9058   -0.2804   -3.6760 C   0  0  0  0  0  0  0  0  0  0  0  0
    3.2981   -0.0622   -3.7293 C   0  0  0  0  0  0  0  0  0  0  0  0
    4.0144    0.1824   -2.5480 C   0  0  0  0  0  0  0  0  0  0  0  0
    3.3429    0.2048   -1.3320 C   0  0  0  0  0  0  0  0  0  0  0  0
    3.8998   -0.1191   -4.9996 N   0  0  0  0  0  0  0  0  0  0  0  0
    5.2255    0.2238   -5.2979 C   0  0  0  0  0  0  0  0  0  0  0  0
    5.9974    0.6085   -4.4490 O   0  0  0  0  0  0  0  0  0  0  0  0
    5.5518    0.0723   -6.7131 C   0  0  0  0  0  0  0  0  0  0  0  0
    5.4115   -1.1180   -7.4940 C   0  0  0  0  0  0  0  0  0  0  0  0
    5.7941   -0.8791   -8.7668 N   0  0  0  0  0  0  0  0  0  0  0  0
    6.1909    0.4171   -8.8203 N   0  0  0  0  0  0  0  0  0  0  0  0
    6.4383    0.8271   -9.7014 H   0  0  0  0  0  0  0  0  0  0  0  0
    6.0623    1.0460   -7.5917 C   0  0  0  0  0  0  0  0  0  0  0  0
    6.4121    2.4311   -7.3831 C   0  0  0  0  0  0  0  0  0  0  0  0
    6.9906    2.8449   -6.1737 C   0  0  0  0  0  0  0  0  0  0  0  0
    7.2771    4.1817   -5.9614 C   0  0  0  0  0  0  0  0  0  0  0  0
    7.9676    4.6666   -4.4911 Cl  0  0  0  0  0  0  0  0  0  0  0  0
    6.9989    5.1403   -6.9485 C   0  0  0  0  0  0  0  0  0  0  0  0
    7.3005    6.4176   -6.6484 O   0  0  0  0  0  0  0  0  0  0  0  0
    6.4468    4.7622   -8.1742 C   0  0  0  0  0  0  0  0  0  0  0  0
    6.1745    3.4073   -8.3672 C   0  0  0  0  0  0  0  0  0  0  0  0
    5.6770    2.9482   -9.5404 O   0  0  0  0  0  0  0  0  0  0  0  0
    1.2932   -0.1643    2.1470 H   0  0  0  0  0  0  0  0  0  0  0  0
    2.4710    0.9633    1.4618 H   0  0  0  0  0  0  0  0  0  0  0  0
    2.7307   -0.7909    1.3240 H   0  0  0  0  0  0  0  0  0  0  0  0
    0.1711   -0.4112   -2.4025 H   0  0  0  0  0  0  0  0  0  0  0  0
    1.3407   -0.4663   -4.5851 H   0  0  0  0  0  0  0  0  0  0  0  0
    5.0927    0.3545   -2.5718 H   0  0  0  0  0  0  0  0  0  0  0  0
    3.9093    0.3975   -0.4196 H   0  0  0  0  0  0  0  0  0  0  0  0
    3.2979   -0.3773   -5.7794 H   0  0  0  0  0  0  0  0  0  0  0  0
    5.0766   -2.0876   -7.1681 H   0  0  0  0  0  0  0  0  0  0  0  0
    7.2160    2.0957   -5.3946 H   0  0  0  0  0  0  0  0  0  0  0  0
    7.0704    7.0460   -7.3814 H   0  0  0  0  0  0  0  0  0  0  0  0
    6.2405    5.4922   -8.9458 H   0  0  0  0  0  0  0  0  0  0  0  0
    5.4477    3.6756  -10.1724 H   0  0  0  0  0  0  0  0  0  0  0  0
  2  1  2  0  0  0  0
  2  3  1  0  0  0  0
  3 30  1  0  0  0  0
  3 29  1  0  0  0  0
  3 28  1  0  0  0  0
  4  2  1  0  0  0  0
  5 31  1  0  0  0  0
  5  4  2  0  0  0  0
  6  5  1  0  0  0  0
  7  6  2  0  0  0  0
  7  8  1  0  0  0  0
  8  9  2  0  0  0  0
  9  4  1  0  0  0  0
  9 34  1  0  0  0  0
 10  7  1  0  0  0  0
 11 10  1  0  0  0  0
 11 12  2  0  0  0  0
 13 11  1  0  0  0  0
 14 36  1  0  0  0  0
 14 13  1  0  0  0  0
 15 14  2  0  0  0  0
 16 15  1  0  0  0  0
 16 18  1  0  0  0  0
 17 16  1  0  0  0  0
 18 19  1  0  0  0  0
 18 13  2  0  0  0  0
 19 20  2  0  0  0  0
 20 21  1  0  0  0  0
 20 37  1  0  0  0  0
 21 22  1  0  0  0  0
 23 24  1  0  0  0  0
 23 21  2  0  0  0  0
 25 23  1  0  0  0  0
 26 25  2  0  0  0  0
 26 19  1  0  0  0  0
 27 26  1  0  0  0  0
 32  6  1  0  0  0  0
 33  8  1  0  0  0  0
 35 10  1  0  0  0  0
 38 24  1  0  0  0  0
 39 25  1  0  0  0  0
 40 27  1  0  0  0  0
M  END
$$$$
