40
rmsd80.gzmat
O          0.00000        0.00000        0.00000
C          1.21000        0.00000        0.00000
C          1.96970        0.00000        1.29590
C          1.96620        0.00600       -1.27160
C          3.36030       -0.04220       -1.31940
C          4.03200       -0.03500       -2.53510
C          3.30090        0.02400       -3.73090
C          1.89210        0.07010       -3.69060
C          1.24000        0.05960       -2.46700
N          3.90110        0.05650       -5.00340
C          5.26850       -0.10430       -5.26590
O          6.06820       -0.30440       -4.37820
C          5.61750        0.00560       -6.67730
C          4.93100       -0.57350       -7.79170
N          5.54310       -0.22190       -8.94250
N          6.60880        0.54650       -8.60150
H          7.15360        0.98880       -9.31820
C          6.70090        0.71680       -7.22970
C          7.74870        1.49390       -6.61170
C          8.35150        1.05910       -5.42220
C          9.31740        1.83760       -4.80880
Cl        10.02480        1.30300       -3.36350
C          9.70980        3.06410       -5.36660
O         10.65050        3.75630       -4.69660
C          9.14750        3.51790       -6.56240
C          8.18100        2.71230       -7.16510
O          7.61250        3.04880       -8.34730
H          1.28100       -0.03540        2.15440
H          2.57710        0.90790        1.40420
H          2.63560       -0.86860        1.37740
H          3.94250       -0.08560       -0.39750
H          5.12390       -0.07450       -2.54490
H          1.31490        0.11100       -4.60980
H          0.14580        0.09280       -2.42570
H          3.28500        0.22920       -5.79440
H          4.06870       -1.21670       -7.77830
H          8.04760        0.09430       -4.97950
H         10.88040        4.61390       -5.14020
H          9.45210        4.45690       -7.00520
H          7.85950        3.95910       -8.64910
