40
rmsd105.gzmat
O          0.00000        0.00000        0.00000
C          1.20960        0.00000        0.00000
C          1.97250        0.00000        1.29360
C          1.96710       -0.02260       -1.27050
C          3.32030        0.31060       -1.34520
C          3.99900        0.25970       -2.55630
C          3.31740       -0.14080       -3.71510
C          1.94260       -0.45070       -3.65060
C          1.28130       -0.38730       -2.43370
N          3.93470       -0.26520       -4.97340
C          5.30150       -0.09890       -5.24000
O          6.08260        0.23980       -4.37830
C          5.67200       -0.38010       -6.62150
C          5.16720       -1.43580       -7.44820
N          5.73510       -1.37550       -8.67040
N          6.60060       -0.33020       -8.64900
H          7.06680       -0.05400       -9.49300
C          6.60120        0.31350       -7.42120
C          7.44520        1.45470       -7.15490
C          8.08550        1.60200       -5.91560
C          8.86880        2.71650       -5.66760
Cl         9.63340        2.88330       -4.16340
C          9.03400        3.71010       -6.64460
O          9.81070        4.75880       -6.31310
C          8.42270        3.59040       -7.89480
C          7.64600        2.45460       -8.12360
O          7.05280        2.23430       -9.32110
H          1.29220       -0.14140        2.14800
H          2.49270        0.95390        1.45040
H          2.71590       -0.80660        1.32860
H          3.85960        0.61850       -0.44790
H          5.05690        0.53110       -2.59350
H          1.39850       -0.73870       -4.54570
H          0.21390       -0.62460       -2.37160
H          3.32810       -0.50510       -5.75440
H          4.46150       -2.20500       -7.18610
H          7.96040        0.82370       -5.14210
H          9.88390        5.42410       -7.04660
H          8.54910        4.34750       -8.65740
H          7.12530        3.00750       -9.93590
