40
rmsd131.gzmat
O          0.00000        0.00000        0.00000
C          1.20970        0.00000        0.00000
C          1.97020        0.00000        1.29370
C          1.96170       -0.00040       -1.27670
C          3.35430        0.04940       -1.33440
C          4.01580        0.06230       -2.55790
C          3.27250        0.02330       -3.74460
C          1.86580       -0.04240       -3.69500
C          1.22470       -0.04910       -2.46560
N          3.85530        0.05410       -5.03100
C          5.20830        0.18790       -5.31080
O          6.04780        0.25780       -4.42620
C          5.54650        0.27220       -6.72350
C          4.98470        1.19180       -7.66960
N          5.59470        1.05050       -8.86220
N          6.52680        0.07210       -8.71220
H          7.10580       -0.17740       -9.49210
C          6.53890       -0.43790       -7.42150
C          7.43390       -1.51710       -7.07760
C          7.38790       -2.70000       -7.83500
C          8.30570       -3.70520       -7.61480
Cl         8.23930       -5.12600       -8.54080
C          9.29880       -3.55810       -6.62630
O         10.15890       -4.58560       -6.48650
C          9.35710       -2.41330       -5.84420
C          8.39970       -1.40670       -6.05620
O          8.51530       -0.33650       -5.26890
H          1.28000       -0.01260        2.15260
H          2.59600        0.89590        1.39550
H          2.61470       -0.88370        1.38450
H          3.94390        0.08100       -0.41640
H          5.10750        0.10330       -2.57590
H          1.27870       -0.08500       -4.60870
H          0.13060       -0.08940       -2.41580
H          3.21790       -0.04290       -5.82120
H          4.20780        1.91880       -7.50320
H          6.61320       -2.81850       -8.59920
H         10.81910       -4.42680       -5.76070
H         10.10400       -2.27530       -5.06710
H          7.61070        0.05590       -5.00000
