27
rmsd16.gzmat
C          0.00000        0.00000        0.00000
C          1.33780        0.00000        0.00000
C          2.15250        0.00000        1.26900
H          2.51630       -1.04090        1.48630
C          1.33580        0.52260        2.47050
H          1.86030        0.36840        3.44570
C         -0.05480       -0.16160        2.51570
H         -0.62670        0.19210        3.40650
C         -0.85080        0.03930        1.22440
O          0.13420       -1.52760        2.79480
O          1.15120        1.91660        2.41460
O          3.24430        0.83660        0.85920
P          4.47760        1.27960        1.78170
O          5.69680        1.37690        1.00640
O          4.03060        2.64670        2.43920
O          4.38610        0.21280        2.97310
C         -0.77740       -0.02620       -1.25300
O         -1.94080       -0.30020       -1.39600
O         -0.01350        0.32730       -2.31930
H          1.93170        0.01060       -0.92400
H         -1.40730        1.00290        1.26870
H         -1.65650       -0.73300        1.16620
H          0.38620       -2.02960        1.99410
H          0.88180        2.19850        1.51060
H          3.02320        2.58940        2.67730
H          5.29090        0.13880        3.43480
H         -0.50970        0.33190       -3.17640
