
     RDKit          3D

 27 27  0  0  0  0  0  0  0  0999 V2000
    0.0652   -0.0315    0.0742 C   0  0  0  0  0  0  0  0  0  0  0  0
    1.4014   -0.0675    0.2186 C   0  0  0  0  0  0  0  0  0  0  0  0
    2.0817    0.0742    1.5463 C   0  0  2  0  0  0  0  0  0  0  0  0
    2.4485   -0.9082    1.8868 H   0  0  0  0  0  0  0  0  0  0  0  0
    1.1682    0.6599    2.6283 C   0  0  2  0  0  0  0  0  0  0  0  0
    1.6358    0.4687    3.6128 H   0  0  0  0  0  0  0  0  0  0  0  0
   -0.1932   -0.0456    2.5750 C   0  0  1  0  0  0  0  0  0  0  0  0
   -0.8178    0.3591    3.3860 H   0  0  0  0  0  0  0  0  0  0  0  0
   -0.8729    0.2192    1.2308 C   0  0  0  0  0  0  0  0  0  0  0  0
   -0.0343   -1.4303    2.8380 O   0  0  0  0  0  0  0  0  0  0  0  0
    0.9525    2.0322    2.4135 O   0  0  0  0  0  0  0  0  0  0  0  0
    3.2056    0.9788    1.4310 O   0  0  0  0  0  0  0  0  0  0  0  0
    4.7059    0.5004    1.1170 P   0  0  0  0  0  0  0  0  0  0  0  0
    5.6847    1.6005    1.0619 O   0  0  0  0  0  0  0  0  0  0  0  0
    4.8859   -0.6471    2.2374 O   0  0  0  0  0  0  0  0  0  0  0  0
    4.6048   -0.3928   -0.2372 O   0  0  0  0  0  0  0  0  0  0  0  0
   -0.4749   -0.1989   -1.3085 C   0  0  0  0  0  0  0  0  0  0  0  0
    0.1856   -0.3991   -2.3009 O   0  0  0  0  0  0  0  0  0  0  0  0
   -1.8200   -0.0961   -1.3445 O   0  0  0  0  0  0  0  0  0  0  0  0
    2.0310   -0.2366   -0.6576 H   0  0  0  0  0  0  0  0  0  0  0  0
   -1.2084    1.2682    1.1928 H   0  0  0  0  0  0  0  0  0  0  0  0
   -1.7750   -0.4043    1.1439 H   0  0  0  0  0  0  0  0  0  0  0  0
    0.1479   -1.8802    2.0020 H   0  0  0  0  0  0  0  0  0  0  0  0
    1.8154    2.4294    2.2240 H   0  0  0  0  0  0  0  0  0  0  0  0
    5.7920   -0.9857    2.2804 H   0  0  0  0  0  0  0  0  0  0  0  0
    4.8881    0.1230   -1.0075 H   0  0  0  0  0  0  0  0  0  0  0  0
   -2.0819   -0.2065   -2.2742 H   0  0  0  0  0  0  0  0  0  0  0  0
  1  2  2  0
  1  9  1  0
  1 17  1  0
  2  3  1  0
  2 20  1  0
  3  4  1  1
  3  5  1  0
  3 12  1  0
  5  6  1  1
  5  7  1  0
  5 11  1  0
  7  8  1  1
  7  9  1  0
  7 10  1  0
  9 21  1  0
  9 22  1  0
 10 23  1  0
 11 24  1  0
 13 12  1  0
 13 14  2  0
 13 15  1  0
 13 16  1  0
 15 25  1  0
 16 26  1  0
 17 18  2  0
 17 19  1  0
 19 27  1  0
M  END

