rmsd104.gzmat
 OpenBabel08211713433D

 27 27  0  0  1  0  0  0  0  0999 V2000
    0.0000    0.0000    0.0000 C   0  0  0  0  0  0  0  0  0  0  0  0
    1.3387    0.0000    0.0000 C   0  0  0  0  0  0  0  0  0  0  0  0
    2.1626    0.0000    1.2614 C   0  0  2  0  0  0  0  0  0  0  0  0
    2.6030   -1.0220    1.4185 H   0  0  0  0  0  0  0  0  0  0  0  0
    1.3415    0.4035    2.5065 C   0  0  2  0  0  0  0  0  0  0  0  0
    1.8726    0.1569    3.4584 H   0  0  0  0  0  0  0  0  0  0  0  0
   -0.0512   -0.2766    2.4956 C   0  0  1  0  0  0  0  0  0  0  0  0
   -0.6217    0.0015    3.4132 H   0  0  0  0  0  0  0  0  0  0  0  0
   -0.8448    0.0394    1.2253 C   0  0  0  0  0  0  0  0  0  0  0  0
    0.1336   -1.6631    2.6526 O   0  0  0  0  0  0  0  0  0  0  0  0
    1.1584    1.7963    2.5872 O   0  0  0  0  0  0  0  0  0  0  0  0
    3.1629    0.9617    0.8931 O   0  0  0  0  0  0  0  0  0  0  0  0
    4.4628    1.3263    1.7580 P   0  0  0  0  0  0  0  0  0  0  0  0
    5.5952    1.6077    0.9006 O   0  0  0  0  0  0  0  0  0  0  0  0
    4.0263    2.5499    2.6593 O   0  0  0  0  0  0  0  0  0  0  0  0
    4.5331    0.0886    2.7720 O   0  0  0  0  0  0  0  0  0  0  0  0
   -0.7042   -0.0194   -1.2951 C   0  0  0  0  0  0  0  0  0  0  0  0
   -0.2528   -0.2902   -2.3780 O   0  0  0  0  0  0  0  0  0  0  0  0
   -2.0112    0.3253   -1.1556 O   0  0  0  0  0  0  0  0  0  0  0  0
    1.9265    0.0100   -0.9283 H   0  0  0  0  0  0  0  0  0  0  0  0
   -1.3324    1.0373    1.3152 H   0  0  0  0  0  0  0  0  0  0  0  0
   -1.7018   -0.6693    1.1417 H   0  0  0  0  0  0  0  0  0  0  0  0
    0.3807   -2.0896    1.8069 H   0  0  0  0  0  0  0  0  0  0  0  0
    0.8876    2.1640    1.7147 H   0  0  0  0  0  0  0  0  0  0  0  0
    3.0340    2.4282    2.9342 H   0  0  0  0  0  0  0  0  0  0  0  0
    5.4904   -0.0261    3.1006 H   0  0  0  0  0  0  0  0  0  0  0  0
   -2.5083    0.3321   -2.0126 H   0  0  0  0  0  0  0  0  0  0  0  0
  1  2  2  0  0  0  0
  1  9  1  0  0  0  0
  2  3  1  0  0  0  0
  3  4  1  1  0  0  0
  3  5  1  0  0  0  0
  5  7  1  0  0  0  0
  5 11  1  0  0  0  0
  5  6  1  1  0  0  0
  7 10  1  0  0  0  0
  7  8  1  1  0  0  0
  9 21  1  0  0  0  0
  9  7  1  0  0  0  0
 12  3  1  0  0  0  0
 12 13  1  0  0  0  0
 13 15  1  0  0  0  0
 13 16  1  0  0  0  0
 14 13  2  0  0  0  0
 15 25  1  0  0  0  0
 16 26  1  0  0  0  0
 17 19  1  0  0  0  0
 17  1  1  0  0  0  0
 18 17  2  0  0  0  0
 20  2  1  0  0  0  0
 22  9  1  0  0  0  0
 23 10  1  0  0  0  0
 24 11  1  0  0  0  0
 27 19  1  0  0  0  0
M  END
$$$$
