rmsd18.gzmat
 OpenBabel08211713433D

 27 27  0  0  1  0  0  0  0  0999 V2000
    0.0000    0.0000    0.0000 C   0  0  0  0  0  0  0  0  0  0  0  0
    1.3375    0.0000    0.0000 C   0  0  0  0  0  0  0  0  0  0  0  0
    2.1570    0.0000    1.2653 C   0  0  2  0  0  0  0  0  0  0  0  0
    2.5660   -1.0301    1.4482 H   0  0  0  0  0  0  0  0  0  0  0  0
    1.3412    0.4571    2.4942 C   0  0  2  0  0  0  0  0  0  0  0  0
    1.8691    0.2402    3.4555 H   0  0  0  0  0  0  0  0  0  0  0  0
   -0.0570   -0.2117    2.5116 C   0  0  1  0  0  0  0  0  0  0  0  0
   -0.6286    0.1236    3.4103 H   0  0  0  0  0  0  0  0  0  0  0  0
   -0.8490    0.0310    1.2253 C   0  0  0  0  0  0  0  0  0  0  0  0
    0.1168   -1.5873    2.7528 O   0  0  0  0  0  0  0  0  0  0  0  0
    1.1714    1.8535    2.5221 O   0  0  0  0  0  0  0  0  0  0  0  0
    3.1879    0.9228    0.8800 O   0  0  0  0  0  0  0  0  0  0  0  0
    4.4925    1.2729    1.7438 P   0  0  0  0  0  0  0  0  0  0  0  0
    5.6382    1.5013    0.8878 O   0  0  0  0  0  0  0  0  0  0  0  0
    4.0840    2.5304    2.6127 O   0  0  0  0  0  0  0  0  0  0  0  0
    4.5255    0.0593    2.7883 O   0  0  0  0  0  0  0  0  0  0  0  0
   -0.7752   -0.0195   -1.2546 C   0  0  0  0  0  0  0  0  0  0  0  0
   -1.9523   -0.2299   -1.3943 O   0  0  0  0  0  0  0  0  0  0  0  0
    0.0112    0.2478   -2.3299 O   0  0  0  0  0  0  0  0  0  0  0  0
    1.9311    0.0124   -0.9245 H   0  0  0  0  0  0  0  0  0  0  0  0
   -1.3876    1.0036    1.2894 H   0  0  0  0  0  0  0  0  0  0  0  0
   -1.6685   -0.7255    1.1524 H   0  0  0  0  0  0  0  0  0  0  0  0
    0.3689   -2.0670    1.9385 H   0  0  0  0  0  0  0  0  0  0  0  0
    0.9353    2.1946    1.6286 H   0  0  0  0  0  0  0  0  0  0  0  0
    3.0840    2.4478    2.8738 H   0  0  0  0  0  0  0  0  0  0  0  0
    5.4790   -0.0713    3.1240 H   0  0  0  0  0  0  0  0  0  0  0  0
   -0.4796    0.2494   -3.1898 H   0  0  0  0  0  0  0  0  0  0  0  0
  1  2  2  0  0  0  0
  1  9  1  0  0  0  0
  2  3  1  0  0  0  0
  3  4  1  1  0  0  0
  3  5  1  0  0  0  0
  5  7  1  0  0  0  0
  5 11  1  0  0  0  0
  5  6  1  1  0  0  0
  7 10  1  0  0  0  0
  7  8  1  1  0  0  0
  9 21  1  0  0  0  0
  9  7  1  0  0  0  0
 12  3  1  0  0  0  0
 12 13  1  0  0  0  0
 13 15  1  0  0  0  0
 13 16  1  0  0  0  0
 14 13  2  0  0  0  0
 15 25  1  0  0  0  0
 16 26  1  0  0  0  0
 17  1  1  0  0  0  0
 18 17  2  0  0  0  0
 19 17  1  0  0  0  0
 20  2  1  0  0  0  0
 22  9  1  0  0  0  0
 23 10  1  0  0  0  0
 24 11  1  0  0  0  0
 27 19  1  0  0  0  0
M  END
$$$$
