27
rmsd126.gzmat
C          0.00000        0.00000        0.00000
C          1.33730        0.00000        0.00000
C          2.15770        0.00000        1.26330
H          2.58530       -1.02520        1.42890
C          1.34490        0.42990        2.50460
H          1.87220        0.17650        3.45740
C         -0.06490       -0.21210        2.51410
H         -0.63440        0.14230        3.40780
C         -0.84930        0.03480        1.22460
O          0.08110       -1.58870        2.76860
O          1.19990        1.82760        2.57430
O          3.15930        0.96290        0.89710
P          4.50360        1.25980        1.72040
O          5.60170        1.56930        0.82830
O          4.12770        2.43480        2.70980
O          4.60210       -0.03150        2.66160
C         -0.77670        0.00370       -1.25320
O         -1.97030        0.09530       -1.38170
O          0.02770       -0.11100       -2.34250
H          1.93030        0.01310       -0.92460
H         -1.38170        1.01200        1.28380
H         -1.67610       -0.71240        1.15060
H          0.33460       -2.07920        1.96170
H          0.96580        2.19910        1.69250
H          3.12560        2.35090        2.96390
H          5.58130       -0.22150        2.87100
H         -0.46520       -0.09660       -3.20090
