42
rmsd54.gzmat
C          0.00000        0.00000        0.00000
C          1.53910        0.00000        0.00000
C          2.07280        0.00000        1.39910
C          2.08960       -1.18510        2.14250
C          2.56140       -1.18390        3.45020
C          3.02940        0.00040        4.02370
C          3.03000        1.18110        3.27560
C          2.54780        1.18300        1.97070
C          3.52750        0.06580        5.41280
O          3.88230        1.10380        5.91680
C          3.51960       -1.19610        6.22890
H          2.49290       -1.55510        6.41660
C          4.55580       -1.37840        7.29730
C          4.60360       -2.24150        6.05220
C          4.25050       -3.70660        6.12510
O          3.32830       -4.17690        6.72850
C          5.24830       -4.43400        5.29860
C          5.39740       -5.79220        5.11090
C          6.44610       -6.23040        4.28720
C          7.30240       -5.32060        3.67510
C          7.14430       -3.93840        3.86500
C          6.11760       -3.51230        4.68130
C          5.74680       -2.12420        5.07440
O          6.26400       -1.11180        4.70090
C         -0.56910        1.31860        0.52100
H         -0.36650       -0.18660       -1.02800
H         -0.37620       -0.84130        0.61390
H          1.91230        0.87480       -0.56980
H          1.91040       -0.88610       -0.55500
H          1.72760       -2.10890        1.69650
H          2.56170       -2.11260        4.02110
H          3.41210        2.10260        3.72580
H          2.53700        2.10770        1.39780
H          5.31940       -0.60600        7.43360
H          4.28830       -1.83040        8.25180
H          4.72600       -6.50350        5.59150
H          6.58950       -7.29950        4.13060
H          8.11180       -5.68180        3.04060
H          7.81520       -3.22500        3.38520
H         -0.22340        2.17130       -0.07330
H         -0.26900        1.50000        1.56090
H         -1.66440        1.31720        0.49170
