42
rmsd51.gzmat
C          0.00000        0.00000        0.00000
C          1.53860        0.00000        0.00000
C          2.07250        0.00000        1.39950
C          2.01250       -1.16780        2.16770
C          2.48660       -1.16950        3.47480
C          3.03170       -0.00390        4.01250
C          3.11080        1.15930        3.24850
C          2.62450        1.16120        1.94350
C          3.53870        0.01750        5.40290
O          4.68500        0.26490        5.67570
C          2.55200       -0.29420        6.49550
H          2.90330       -1.12360        7.13320
C          1.07830       -0.09430        6.30290
C          1.84810        0.86350        7.18330
C          1.68360        0.86170        8.68320
O          1.45850       -0.09820        9.36340
C          1.85590        2.26620        9.13880
C          1.82360        2.77530       10.42010
C          2.03440        4.15350       10.58540
C          2.27040        4.97810        9.49000
C          2.30190        4.45610        8.18700
C          2.09090        3.10240        8.02910
C          2.07630        2.29880        6.77890
O          2.20570        2.70560        5.65940
C         -0.56290        1.33180        0.49320
H         -0.36840       -0.20930       -1.02210
H         -0.37610       -0.82620        0.63370
H          1.91030        0.87400       -0.57170
H          1.91300       -0.88690       -0.55100
H          1.59010       -2.07470        1.74180
H          2.43530       -2.07830        4.07290
H          3.54070        2.06770        3.67820
H          2.67400        2.07230        1.35080
H          0.69700        0.26430        5.34320
H          0.37110       -0.78580        6.76260
H          1.64330        2.12730       11.27780
H          2.01500        4.57780       11.58910
H          2.43570        6.04500        9.64010
H          2.49100        5.09880        7.32700
H         -0.26390        2.16140       -0.15630
H         -0.20670        1.56350        1.50520
H         -1.65740        1.31400        0.52570
