42
rmsd107.gzmat
C          0.00000        0.00000        0.00000
C          1.53890        0.00000        0.00000
C          2.02880        0.00000        1.41460
C          2.16280       -1.20630        2.10920
C          2.55840       -1.20230        3.44270
C          2.82620        0.00930        4.07910
C          2.71650        1.21470        3.38640
C          2.31510        1.20870        2.05360
C          3.22580        0.04960        5.50270
O          4.24170        0.57680        5.87760
C          2.30240       -0.59840        6.49750
H          2.83670       -1.33170        7.12690
C          0.84870       -0.81810        6.20060
C          1.25230        0.26490        7.17580
C          1.00250        0.12390        8.65740
O          1.05580       -0.89580        9.28360
C          0.67850        1.48020        9.17300
C          0.38260        1.87330       10.46140
C          0.10140        3.23040       10.68670
C          0.12650        4.14920        9.64240
C          0.43640        3.74650        8.33360
C          0.70830        2.41200        8.11630
C          1.06090        1.72480        6.84600
O          1.16290        2.22380        5.76170
C         -0.54710        0.14250       -1.41800
H         -0.37510       -0.93200        0.46450
H         -0.37520        0.82460        0.63750
H          1.91730        0.88130       -0.55560
H          1.91910       -0.87900       -0.55680
H          1.94880       -2.14720        1.60780
H          2.65670       -2.14140        3.98570
H          2.92840        2.15800        3.89630
H          2.21700        2.14870        1.51450
H          0.43680       -0.52340        5.23140
H          0.34720       -1.71150        6.57520
H          0.36950        1.15280       11.27970
H         -0.13840        3.56380       11.69640
H         -0.09550        5.19840        9.83790
H          0.46240        4.46610        7.51490
H         -0.16980       -0.64710       -2.07730
H         -0.26860        1.10580       -1.86140
H         -1.64140        0.08330       -1.42650
