42

C         -0.48690        0.07860        0.04410
C          1.03040        0.28680       -0.10210
C          1.75070        0.26130        1.22190
C          2.24780       -0.94040        1.74820
C          2.87000       -0.97560        2.99530
C          3.00990        0.19850        3.75240
C          2.51430        1.40450        3.23010
C          1.89430        1.43250        1.98580
C          3.68790        0.22590        5.08070
O          3.81940        1.24970        5.71890
C          4.20420       -1.09340        5.62080
H          3.45370       -1.88300        5.73870
C          5.37300       -1.12010        6.51700
C          5.53870       -1.63350        5.09450
C          5.64730       -3.10260        4.79690
O          5.11870       -4.00410        5.41120
C          6.50060       -3.22070        3.57850
C          6.89010       -4.36900        2.88950
C          7.69060       -4.21010        1.75460
C          8.08820       -2.93180        1.32250
C          7.69530       -1.78300        2.01550
C          6.89770       -1.94530        3.14750
C          6.34140       -0.89740        4.05640
O          6.50210        0.29890        3.96740
C         -1.22330        0.10640       -1.29320
H         -0.66650       -0.88260        0.55610
H         -0.89010        0.85660        0.71510
H          1.21390        1.25140       -0.60510
H          1.43930       -0.49620       -0.76290
H          2.14950       -1.86170        1.16770
H          3.25260       -1.92550        3.37110
H          2.63890        2.31120        3.82450
H          1.51740        2.37920        1.58870
H          5.84870       -0.15840        6.72620
H          5.41450       -1.88110        7.29940
H          6.57210       -5.35400        3.23720
H          8.01430       -5.08870        1.19160
H          8.71330       -2.84010        0.43110
H          7.99390       -0.78350        1.69300
H         -0.85550       -0.68400       -1.96850
H         -1.08130        1.07150       -1.80730
H         -2.30590       -0.04510       -1.15980
