rmsd56.gzmat
 OpenBabel08211713403D

 42 45  0  0  1  0  0  0  0  0999 V2000
    0.0000    0.0000    0.0000 C   0  0  0  0  0  0  0  0  0  0  0  0
    1.5391    0.0000    0.0000 C   0  0  0  0  0  0  0  0  0  0  0  0
    2.0673    0.0000    1.4017 C   0  0  0  0  0  0  0  0  0  0  0  0
    2.5374   -1.1844    1.9767 C   0  0  0  0  0  0  0  0  0  0  0  0
    3.0008   -1.1877    3.2887 C   0  0  0  0  0  0  0  0  0  0  0  0
    3.0002   -0.0033    4.0239 C   0  0  0  0  0  0  0  0  0  0  0  0
    2.5487    1.1860    3.4522 C   0  0  0  0  0  0  0  0  0  0  0  0
    2.0793    1.1854    2.1422 C   0  0  0  0  0  0  0  0  0  0  0  0
    3.4831    0.0166    5.4228 C   0  0  0  0  0  0  0  0  0  0  0  0
    4.3998    0.7075    5.7860 O   0  0  0  0  0  0  0  0  0  0  0  0
    2.7810   -0.8853    6.4008 C   0  0  2  0  0  0  0  0  0  0  0  0
    3.4894   -1.5723    6.8957 H   0  0  0  0  0  0  0  0  0  0  0  0
    1.3656   -1.3299    6.1829 C   0  0  0  0  0  0  0  0  0  0  0  0
    1.6657   -0.3067    7.2548 C   0  0  0  0  0  0  0  0  0  0  0  0
    1.5816   -0.6585    8.7200 C   0  0  0  0  0  0  0  0  0  0  0  0
    1.8564   -1.7196    9.2028 O   0  0  0  0  0  0  0  0  0  0  0  0
    1.0992    0.5553    9.4295 C   0  0  0  0  0  0  0  0  0  0  0  0
    0.8743    0.7432   10.7771 C   0  0  0  0  0  0  0  0  0  0  0  0
    0.4236    2.0040   11.1992 C   0  0  0  0  0  0  0  0  0  0  0  0
    0.2072    3.0294   10.2843 C   0  0  0  0  0  0  0  0  0  0  0  0
    0.4396    2.8348    8.9134 C   0  0  0  0  0  0  0  0  0  0  0  0
    0.8831    1.5950    8.5034 C   0  0  0  0  0  0  0  0  0  0  0  0
    1.2061    1.1244    7.1304 C   0  0  0  0  0  0  0  0  0  0  0  0
    1.1102    1.7495    6.1131 O   0  0  0  0  0  0  0  0  0  0  0  0
   -0.5652   -1.3323    0.4897 C   0  0  0  0  0  0  0  0  0  0  0  0
   -0.3744    0.8246    0.6375 H   0  0  0  0  0  0  0  0  0  0  0  0
   -0.3688    0.2128   -1.0213 H   0  0  0  0  0  0  0  0  0  0  0  0
    1.9126    0.8872   -0.5518 H   0  0  0  0  0  0  0  0  0  0  0  0
    1.9128   -0.8734   -0.5706 H   0  0  0  0  0  0  0  0  0  0  0  0
    2.5370   -2.1060    1.3990 H   0  0  0  0  0  0  0  0  0  0  0  0
    3.3644   -2.1118    3.7360 H   0  0  0  0  0  0  0  0  0  0  0  0
    2.5537    2.1089    4.0379 H   0  0  0  0  0  0  0  0  0  0  0  0
    1.7183    2.1098    1.6962 H   0  0  0  0  0  0  0  0  0  0  0  0
    0.8240   -1.0103    5.2887 H   0  0  0  0  0  0  0  0  0  0  0  0
    1.0606   -2.3347    6.4782 H   0  0  0  0  0  0  0  0  0  0  0  0
    1.0428   -0.0617   11.4927 H   0  0  0  0  0  0  0  0  0  0  0  0
    0.2454    2.1767   12.2605 H   0  0  0  0  0  0  0  0  0  0  0  0
   -0.1472    4.0000   10.6311 H   0  0  0  0  0  0  0  0  0  0  0  0
    0.2779    3.6393    8.1957 H   0  0  0  0  0  0  0  0  0  0  0  0
   -0.2244   -1.5558    1.5088 H   0  0  0  0  0  0  0  0  0  0  0  0
   -0.2530   -2.1636   -0.1512 H   0  0  0  0  0  0  0  0  0  0  0  0
   -1.6610   -1.3180    0.5043 H   0  0  0  0  0  0  0  0  0  0  0  0
  1 25  1  0  0  0  0
  1 26  1  0  0  0  0
  2  1  1  0  0  0  0
  2  3  1  0  0  0  0
  3  4  2  0  0  0  0
  3  8  1  0  0  0  0
  4  5  1  0  0  0  0
  5 31  1  0  0  0  0
  5  6  2  0  0  0  0
  6  9  1  0  0  0  0
  7  6  1  0  0  0  0
  7 32  1  0  0  0  0
  8  7  2  0  0  0  0
  9 10  2  0  0  0  0
  9 11  1  0  0  0  0
 11 12  1  1  0  0  0
 11 14  1  0  0  0  0
 13 11  1  0  0  0  0
 13 35  1  0  0  0  0
 13 14  1  0  0  0  0
 14 15  1  0  0  0  0
 15 16  2  0  0  0  0
 15 17  1  0  0  0  0
 17 18  2  0  0  0  0
 18 19  1  0  0  0  0
 18 36  1  0  0  0  0
 19 37  1  0  0  0  0
 20 38  1  0  0  0  0
 20 19  2  0  0  0  0
 21 20  1  0  0  0  0
 22 21  2  0  0  0  0
 22 17  1  0  0  0  0
 23 14  1  0  0  0  0
 23 22  1  0  0  0  0
 24 23  2  0  0  0  0
 25 42  1  0  0  0  0
 25 40  1  0  0  0  0
 27  1  1  0  0  0  0
 28  2  1  0  0  0  0
 29  2  1  0  0  0  0
 30  4  1  0  0  0  0
 33  8  1  0  0  0  0
 34 13  1  0  0  0  0
 39 21  1  0  0  0  0
 41 25  1  0  0  0  0
M  END
$$$$
