42

C          0.49170       -0.21680       -0.99330
C          1.85970       -0.56400       -0.38080
C          1.95850       -0.17950        1.07330
C          1.58320       -1.07850        2.08290
C          1.61700       -0.70600        3.42600
C          2.03540        0.58250        3.79450
C          2.41830        1.48540        2.78760
C          2.37580        1.10920        1.45010
C          2.11080        1.03330        5.21340
O          2.55910        2.11940        5.52030
C          1.66410        0.06360        6.29210
H          2.44720       -0.64730        6.58610
C          0.26960       -0.40500        6.48780
C          0.86710        0.58450        7.47300
C          1.28750        0.19190        8.86170
O          1.72240       -0.88580        9.20570
C          1.08200        1.39940        9.71400
C          1.35230        1.56720       11.07200
C          1.06920        2.80950       11.64660
C          0.52580        3.85480       10.87810
C          0.25200        3.68160        9.51830
C          0.54060        2.44320        8.94680
C          0.33230        1.99250        7.53780
O         -0.21600        2.60330        6.64930
C          0.38460       -0.60060       -2.46730
H         -0.29760       -0.72320       -0.41120
H          0.30980        0.86470       -0.86900
H          2.65080       -0.05150       -0.95410
H          2.04000       -1.64650       -0.49230
H          1.26060       -2.08680        1.80970
H          1.32020       -1.42550        4.19020
H          2.74730        2.48150        3.08850
H          2.67430        1.82190        0.67620
H         -0.50700        0.01910        5.84460
H          0.10950       -1.42330        6.85150
H          1.77200        0.74490       11.65500
H          1.27080        2.97540       12.70750
H          0.31580        4.81490       11.35550
H         -0.17130        4.48230        8.90850
H          0.53350       -1.68390       -2.61010
H          1.14650       -0.08090       -3.07180
H         -0.60300       -0.34170       -2.87980
