42
rmsd156.gzmat
C          0.00000        0.00000        0.00000
C          1.53830        0.00000        0.00000
C          2.04330        0.00000        1.40970
C          2.15040       -1.20410        2.11290
C          2.59440       -1.20580        3.43110
C          2.93880       -0.00210        4.04540
C          2.84720        1.20130        3.34650
C          2.39310        1.20130        2.03010
C          3.41550        0.02360        5.44650
O          4.48760        0.47520        5.75860
C          2.50540       -0.54780        6.49960
H          3.02880       -1.29270        7.12500
C          1.03080       -0.69670        6.27060
C          1.53240        0.38500        7.20050
C          1.33260        0.28700        8.69340
O          1.35320       -0.72180        9.33860
C          1.10400        1.66900        9.19130
C          0.88160        2.10360       10.48130
C          0.69660        3.48010       10.68840
C          0.73770        4.37580        9.62470
C          0.96550        3.92960        8.31320
C          1.14600        2.57670        8.11460
C          1.40690        1.84580        6.84680
O          1.49260        2.31800        5.74920
C         -0.54480        0.09650       -1.42330
H         -0.37470       -0.91760        0.49260
H         -0.37620        0.84440        0.60970
H          1.91620        0.87860       -0.56080
H          1.91800       -0.88070       -0.55590
H          1.88140       -2.13980        1.62810
H          2.67540       -2.14440        3.97770
H          3.11960        2.13910        3.83740
H          2.30970        2.14030        1.48670
H          0.59340       -0.40400        5.31230
H          0.49930       -1.55240        6.68980
H          0.85200        1.40090       11.31410
H          0.51940        3.84760       11.69940
H          0.59400        5.44060        9.80710
H          1.00190        4.63030        7.47880
H         -0.18270       -0.72540       -2.05060
H         -0.24710        1.03560       -1.90400
H         -1.64020        0.05610       -1.43290
