
     RDKit          3D

 42 45  0  0  0  0  0  0  0  0999 V2000
    0.4917   -0.2168   -0.9933 C   0  0  0  0  0  0  0  0  0  0  0  0
    1.8597   -0.5640   -0.3808 C   0  0  0  0  0  0  0  0  0  0  0  0
    1.9585   -0.1795    1.0733 C   0  0  0  0  0  0  0  0  0  0  0  0
    1.5832   -1.0785    2.0829 C   0  0  0  0  0  0  0  0  0  0  0  0
    1.6170   -0.7060    3.4260 C   0  0  0  0  0  0  0  0  0  0  0  0
    2.0354    0.5825    3.7945 C   0  0  0  0  0  0  0  0  0  0  0  0
    2.4183    1.4854    2.7876 C   0  0  0  0  0  0  0  0  0  0  0  0
    2.3758    1.1092    1.4501 C   0  0  0  0  0  0  0  0  0  0  0  0
    2.1108    1.0333    5.2134 C   0  0  0  0  0  0  0  0  0  0  0  0
    2.5591    2.1194    5.5203 O   0  0  0  0  0  0  0  0  0  0  0  0
    1.6641    0.0636    6.2921 C   0  0  2  0  0  0  0  0  0  0  0  0
    2.4472   -0.6473    6.5861 H   0  0  0  0  0  0  0  0  0  0  0  0
    0.2696   -0.4050    6.4878 C   0  0  0  0  0  0  0  0  0  0  0  0
    0.8671    0.5845    7.4730 C   0  0  0  0  0  0  0  0  0  0  0  0
    1.2875    0.1919    8.8617 C   0  0  0  0  0  0  0  0  0  0  0  0
    1.7224   -0.8858    9.2057 O   0  0  0  0  0  0  0  0  0  0  0  0
    1.0820    1.3994    9.7140 C   0  0  0  0  0  0  0  0  0  0  0  0
    1.3523    1.5672   11.0720 C   0  0  0  0  0  0  0  0  0  0  0  0
    1.0692    2.8095   11.6466 C   0  0  0  0  0  0  0  0  0  0  0  0
    0.5258    3.8548   10.8781 C   0  0  0  0  0  0  0  0  0  0  0  0
    0.2520    3.6816    9.5183 C   0  0  0  0  0  0  0  0  0  0  0  0
    0.5406    2.4432    8.9468 C   0  0  0  0  0  0  0  0  0  0  0  0
    0.3323    1.9925    7.5378 C   0  0  0  0  0  0  0  0  0  0  0  0
   -0.2160    2.6033    6.6493 O   0  0  0  0  0  0  0  0  0  0  0  0
    0.3846   -0.6006   -2.4673 C   0  0  0  0  0  0  0  0  0  0  0  0
   -0.2976   -0.7232   -0.4112 H   0  0  0  0  0  0  0  0  0  0  0  0
    0.3098    0.8647   -0.8690 H   0  0  0  0  0  0  0  0  0  0  0  0
    2.6508   -0.0515   -0.9541 H   0  0  0  0  0  0  0  0  0  0  0  0
    2.0400   -1.6465   -0.4923 H   0  0  0  0  0  0  0  0  0  0  0  0
    1.2606   -2.0868    1.8097 H   0  0  0  0  0  0  0  0  0  0  0  0
    1.3202   -1.4255    4.1902 H   0  0  0  0  0  0  0  0  0  0  0  0
    2.7473    2.4815    3.0885 H   0  0  0  0  0  0  0  0  0  0  0  0
    2.6743    1.8219    0.6762 H   0  0  0  0  0  0  0  0  0  0  0  0
   -0.5070    0.0191    5.8446 H   0  0  0  0  0  0  0  0  0  0  0  0
    0.1095   -1.4233    6.8515 H   0  0  0  0  0  0  0  0  0  0  0  0
    1.7720    0.7449   11.6550 H   0  0  0  0  0  0  0  0  0  0  0  0
    1.2708    2.9754   12.7075 H   0  0  0  0  0  0  0  0  0  0  0  0
    0.3158    4.8149   11.3555 H   0  0  0  0  0  0  0  0  0  0  0  0
   -0.1713    4.4823    8.9085 H   0  0  0  0  0  0  0  0  0  0  0  0
    0.5335   -1.6839   -2.6101 H   0  0  0  0  0  0  0  0  0  0  0  0
    1.1465   -0.0809   -3.0718 H   0  0  0  0  0  0  0  0  0  0  0  0
   -0.6030   -0.3417   -2.8798 H   0  0  0  0  0  0  0  0  0  0  0  0
  1  2  1  0
  1 25  1  0
  1 26  1  0
  1 27  1  0
  2  3  1  0
  2 28  1  0
  2 29  1  0
  3  4  2  0
  3  8  1  0
  4  5  1  0
  4 30  1  0
  5  6  2  0
  5 31  1  0
  6  7  1  0
  6  9  1  0
  7  8  2  0
  7 32  1  0
  8 33  1  0
  9 10  2  0
  9 11  1  0
 11 12  1  1
 11 13  1  0
 11 14  1  0
 13 14  1  0
 13 34  1  0
 13 35  1  0
 14 15  1  0
 14 23  1  0
 15 16  2  0
 15 17  1  0
 17 18  1  0
 17 22  2  0
 18 19  2  0
 18 36  1  0
 19 20  1  0
 19 37  1  0
 20 21  2  0
 20 38  1  0
 21 22  1  0
 21 39  1  0
 22 23  1  0
 23 24  2  0
 25 40  1  0
 25 41  1  0
 25 42  1  0
M  END

