rmsd14.gzmat
 OpenBabel08211713363D

 69 72  0  0  1  0  0  0  0  0999 V2000
    0.0000    0.0000    0.0000 C   0  0  1  0  0  0  0  0  0  0  0  0
    1.5146    0.0000    0.0000 C   0  0  0  0  0  0  0  0  0  0  0  0
    2.2109    0.0000    1.2090 C   0  0  0  0  0  0  0  0  0  0  0  0
    3.5934   -0.1606    1.1946 C   0  0  0  0  0  0  0  0  0  0  0  0
    4.3411   -0.2153    2.3596 O   0  0  0  0  0  0  0  0  0  0  0  0
    3.7239   -0.7456    3.4554 C   0  0  0  0  0  0  0  0  0  0  0  0
    4.1666   -0.2489    4.6938 C   0  0  0  0  0  0  0  0  0  0  0  0
    3.5854   -0.7541    5.8600 C   0  0  0  0  0  0  0  0  0  0  0  0
    2.5461   -1.6798    5.7862 C   0  0  0  0  0  0  0  0  0  0  0  0
    2.1080   -2.1496    4.5473 C   0  0  0  0  0  0  0  0  0  0  0  0
    2.7481   -1.7415    3.3806 C   0  0  0  0  0  0  0  0  0  0  0  0
    0.9594   -3.1337    4.4740 C   0  0  2  0  0  0  0  0  0  0  0  0
   -0.0173   -3.0234    5.5775 C   0  0  2  0  0  0  0  0  0  0  0  0
   -0.6785   -1.8577    5.9900 N   0  0  0  0  0  0  0  0  0  0  0  0
   -1.4946   -2.1941    7.0547 C   0  0  0  0  0  0  0  0  0  0  0  0
   -1.3721   -3.5114    7.3365 N   0  0  0  0  0  0  0  0  0  0  0  0
   -0.4749   -4.0374    6.4457 C   0  0  0  0  0  0  0  0  0  0  0  0
   -0.5794   -0.5430    5.3909 C   0  0  0  0  0  0  0  0  0  0  0  0
    1.5326   -4.5457    4.3588 C   0  0  0  0  0  0  0  0  0  0  0  0
    0.1376   -2.8653    3.1663 N   0  0  0  0  0  0  0  0  0  0  0  0
    0.0805   -1.8323    2.9298 H   0  0  0  0  0  0  0  0  0  0  0  0
   -0.8303   -3.1996    3.2946 H   0  0  0  0  0  0  0  0  0  0  0  0
    0.5535   -3.3541    2.3638 H   0  0  0  0  0  0  0  0  0  0  0  0
    5.1718    0.7495    4.7477 C   0  0  0  0  0  0  0  0  0  0  0  0
    5.9885    1.5677    4.7908 N   0  0  0  0  0  0  0  0  0  0  0  0
    4.3342   -0.2150    0.0169 C   0  0  0  0  0  0  0  0  0  0  0  0
    3.6325   -0.1343   -1.1830 C   0  0  0  0  0  0  0  0  0  0  0  0
    2.2394   -0.0489   -1.1943 C   0  0  0  0  0  0  0  0  0  0  0  0
   -0.4727    0.4368    1.4032 C   0  0  0  0  0  0  0  0  0  0  0  0
   -0.6516   -0.4203    2.2888 O   0  0  0  0  0  0  0  0  0  0  0  0
   -0.6345    1.7309    1.7672 N   0  0  0  0  0  0  0  0  0  0  0  0
   -0.4386    2.8614    0.8539 C   0  0  0  0  0  0  0  0  0  0  0  0
   -1.5916    2.9562   -0.1580 C   0  0  0  0  0  0  0  0  0  0  0  0
   -1.8605    1.6010   -0.8232 C   0  0  0  0  0  0  0  0  0  0  0  0
   -0.5527    0.8753   -1.1480 C   0  0  0  0  0  0  0  0  0  0  0  0
   -1.1660    2.0378    3.1001 C   0  0  0  0  0  0  0  0  0  0  0  0
   -0.5249   -1.4557   -0.1736 C   0  0  0  0  0  0  0  0  0  0  0  0
   -0.0098   -2.1789   -1.4136 C   0  0  0  0  0  0  0  0  0  0  0  0
    1.7013    0.1383    2.1603 H   0  0  0  0  0  0  0  0  0  0  0  0
    3.9397   -0.4056    6.8373 H   0  0  0  0  0  0  0  0  0  0  0  0
    2.0805   -2.0390    6.7080 H   0  0  0  0  0  0  0  0  0  0  0  0
    2.5200   -2.1817    2.4121 H   0  0  0  0  0  0  0  0  0  0  0  0
   -2.1339   -1.4999    7.5819 H   0  0  0  0  0  0  0  0  0  0  0  0
   -0.2066   -5.0805    6.4792 H   0  0  0  0  0  0  0  0  0  0  0  0
   -1.2022   -0.4729    4.4717 H   0  0  0  0  0  0  0  0  0  0  0  0
    0.4634   -0.2937    5.1149 H   0  0  0  0  0  0  0  0  0  0  0  0
   -0.9263    0.2380    6.0955 H   0  0  0  0  0  0  0  0  0  0  0  0
    0.7658   -5.3179    4.2144 H   0  0  0  0  0  0  0  0  0  0  0  0
    2.0745   -4.8172    5.2850 H   0  0  0  0  0  0  0  0  0  0  0  0
    2.2768   -4.6384    3.5533 H   0  0  0  0  0  0  0  0  0  0  0  0
    5.4201   -0.3119    0.0437 H   0  0  0  0  0  0  0  0  0  0  0  0
    4.1789   -0.1527   -2.1299 H   0  0  0  0  0  0  0  0  0  0  0  0
    1.7202   -0.0255   -2.1528 H   0  0  0  0  0  0  0  0  0  0  0  0
   -0.3527    3.8059    1.4402 H   0  0  0  0  0  0  0  0  0  0  0  0
    0.5419    2.7443    0.3325 H   0  0  0  0  0  0  0  0  0  0  0  0
   -2.5126    3.3215    0.3366 H   0  0  0  0  0  0  0  0  0  0  0  0
   -1.3410    3.7180   -0.9243 H   0  0  0  0  0  0  0  0  0  0  0  0
   -2.5087    0.9734   -0.1831 H   0  0  0  0  0  0  0  0  0  0  0  0
   -2.4459    1.7562   -1.7535 H   0  0  0  0  0  0  0  0  0  0  0  0
   -0.7077    0.2389   -2.0461 H   0  0  0  0  0  0  0  0  0  0  0  0
    0.2088    1.6178   -1.4679 H   0  0  0  0  0  0  0  0  0  0  0  0
   -1.6325    3.0386    3.1201 H   0  0  0  0  0  0  0  0  0  0  0  0
   -0.3531    2.0112    3.8484 H   0  0  0  0  0  0  0  0  0  0  0  0
   -1.9403    1.3043    3.3951 H   0  0  0  0  0  0  0  0  0  0  0  0
   -0.2603   -2.0497    0.7176 H   0  0  0  0  0  0  0  0  0  0  0  0
   -1.6350   -1.4196   -0.1949 H   0  0  0  0  0  0  0  0  0  0  0  0
    1.0727   -2.3532   -1.3689 H   0  0  0  0  0  0  0  0  0  0  0  0
   -0.2136   -1.6240   -2.3382 H   0  0  0  0  0  0  0  0  0  0  0  0
   -0.4946   -3.1579   -1.5261 H   0  0  0  0  0  0  0  0  0  0  0  0
  1 37  1  6  0  0  0
  1 29  1  0  0  0  0
  2  1  1  0  0  0  0
  2  3  2  0  0  0  0
  3 39  1  0  0  0  0
  4  3  1  0  0  0  0
  4  5  1  0  0  0  0
  5  6  1  0  0  0  0
  6  7  1  0  0  0  0
  7 24  1  0  0  0  0
  7  8  2  0  0  0  0
  8 40  1  0  0  0  0
  9  8  1  0  0  0  0
  9 41  1  0  0  0  0
 10  9  2  0  0  0  0
 11  6  2  0  0  0  0
 11 10  1  0  0  0  0
 12 19  1  6  0  0  0
 12 10  1  0  0  0  0
 13 12  1  1  0  0  0
 13 14  1  0  0  0  0
 13 17  1  0  0  0  0
 14 15  1  0  0  0  0
 15 16  2  0  0  0  0
 15 43  1  0  0  0  0
 17 44  1  0  0  0  0
 17 16  2  0  0  0  0
 18 14  1  0  0  0  0
 18 47  1  0  0  0  0
 19 49  1  0  0  0  0
 20 22  1  0  0  0  0
 20 12  1  0  0  0  0
 21 20  1  0  0  0  0
 23 20  1  0  0  0  0
 24 25  3  0  0  0  0
 26 51  1  0  0  0  0
 26  4  2  0  0  0  0
 27 26  1  0  0  0  0
 28 27  2  0  0  0  0
 28  2  1  0  0  0  0
 29 31  1  0  0  0  0
 29 30  2  0  0  0  0
 31 36  1  0  0  0  0
 32 54  1  0  0  0  0
 32 31  1  0  0  0  0
 33 56  1  0  0  0  0
 33 32  1  0  0  0  0
 34 58  1  0  0  0  0
 34 33  1  0  0  0  0
 35 34  1  0  0  0  0
 35  1  1  0  0  0  0
 36 62  1  0  0  0  0
 36 64  1  0  0  0  0
 36 63  1  0  0  0  0
 37 65  1  0  0  0  0
 38 67  1  0  0  0  0
 38 37  1  0  0  0  0
 42 11  1  0  0  0  0
 45 18  1  0  0  0  0
 46 18  1  0  0  0  0
 48 19  1  0  0  0  0
 50 19  1  0  0  0  0
 52 27  1  0  0  0  0
 53 28  1  0  0  0  0
 55 32  1  0  0  0  0
 57 33  1  0  0  0  0
 59 34  1  0  0  0  0
 60 35  1  0  0  0  0
 61 35  1  0  0  0  0
 66 37  1  0  0  0  0
 68 38  1  0  0  0  0
 69 38  1  0  0  0  0
M  RAD  1  13   2
M  END
$$$$
