69
rmsd250.gzmat
C          0.00000        0.00000        0.00000
C          1.51800        0.00000        0.00000
C          2.22830        0.00000        1.19770
C          3.60920       -0.18210        1.16580
O          4.35110       -0.27500        2.33440
C          3.69380       -0.82930        3.39800
C          4.02790       -0.31740        4.66090
C          3.36290       -0.82410        5.78330
C          2.37440       -1.79220        5.63890
C          2.07270       -2.31240        4.37510
C          2.76060       -1.86140        3.25720
C          0.95530       -3.32770        4.22570
C          0.88780       -4.26060        5.38560
N          1.94340       -5.06540        5.81340
C          1.49900       -5.79060        6.91200
N          0.21890       -5.47250        7.18690
C         -0.17950       -4.53930        6.26000
C          3.25760       -5.17710        5.21190
C          0.96270       -4.10480        2.91200
N         -0.34480       -2.48100        4.21610
H         -0.45060       -1.97210        5.10110
H         -1.16340       -3.08970        4.07190
H         -0.32880       -1.77130        3.39040
C          5.00440        0.70210        4.79180
N          5.79940        1.53440        4.90230
C          4.33470       -0.23670       -0.01940
C          3.61790       -0.13990       -1.21150
C          2.22600       -0.04710       -1.20620
C         -0.48100       -0.06770        1.45720
O         -0.65760       -1.18420        1.97420
N         -0.63350        1.02580        2.25240
C         -0.35530        2.39140        1.78880
C         -1.45130        2.90080        0.84150
C         -1.77310        1.87490       -0.25080
C         -0.50630        1.21900       -0.80470
C         -1.30360        0.89930        3.54970
C         -0.46310       -1.32120       -0.67780
C         -1.97930       -1.47020       -0.74550
H          1.73490        0.13460        2.15630
H          3.61570       -0.44180        6.77890
H          1.85290       -2.15840        6.52620
H          2.57660       -2.28180        2.26450
H          2.10330       -6.50130        7.45810
H         -1.17920       -4.15130        6.28670
H          4.01600       -5.44520        5.97570
H          3.58480       -4.22560        4.75120
H          3.26950       -5.96420        4.43080
H          0.24880       -4.94340        2.92170
H          1.94890       -4.55010        2.71210
H          0.71250       -3.47630        2.03890
H          5.41850       -0.34850       -0.00820
H          4.15430       -0.15520       -2.16400
H          1.68960       -0.01100       -2.15480
H         -0.25080        3.06700        2.66900
H          0.64030        2.40110        1.28080
H         -2.37080        3.14580        1.40750
H         -1.11810        3.85550        0.38390
H         -2.47310        1.10820        0.13300
H         -2.32390        2.37750       -1.07410
H         -0.69090        0.89960       -1.85340
H          0.29650        1.98200       -0.88800
H         -0.55760        0.85330        4.36260
H         -1.94740        0.00320        3.58660
H         -1.96170        1.77120        3.73560
H         -0.03760       -1.37820       -1.70010
H         -0.03210       -2.18080       -0.12350
H         -2.44790       -0.67220       -1.33330
H         -2.43270       -1.46660        0.25300
H         -2.25620       -2.42320       -1.21740
