rmsd118.gzmat
 OpenBabel08211713363D

 69 72  0  0  1  0  0  0  0  0999 V2000
    0.0000    0.0000    0.0000 C   0  0  1  0  0  0  0  0  0  0  0  0
    1.5193    0.0000    0.0000 C   0  0  0  0  0  0  0  0  0  0  0  0
    2.2034    0.0000    1.2166 C   0  0  0  0  0  0  0  0  0  0  0  0
    3.5935   -0.0630    1.1960 C   0  0  0  0  0  0  0  0  0  0  0  0
    4.3317   -0.0844    2.3740 O   0  0  0  0  0  0  0  0  0  0  0  0
    4.0098   -1.0293    3.2918 C   0  0  0  0  0  0  0  0  0  0  0  0
    4.6616   -0.8697    4.5312 C   0  0  0  0  0  0  0  0  0  0  0  0
    4.3911   -1.7839    5.5506 C   0  0  0  0  0  0  0  0  0  0  0  0
    3.4694   -2.8095    5.3520 C   0  0  0  0  0  0  0  0  0  0  0  0
    2.8327   -2.9564    4.1168 C   0  0  0  0  0  0  0  0  0  0  0  0
    3.1281   -2.0910    3.0699 C   0  0  0  0  0  0  0  0  0  0  0  0
    1.8079   -4.0657    3.9845 C   0  0  2  0  0  0  0  0  0  0  0  0
    0.6661   -3.9118    4.9139 C   0  0  1  0  0  0  0  0  0  0  0  0
    0.0806   -2.7118    5.3363 N   0  0  0  0  0  0  0  0  0  0  0  0
   -0.9660   -3.0332    6.1826 C   0  0  0  0  0  0  0  0  0  0  0  0
   -1.0729   -4.3760    6.3022 N   0  0  0  0  0  0  0  0  0  0  0  0
   -0.0806   -4.9323    5.5401 C   0  0  0  0  0  0  0  0  0  0  0  0
    0.4992   -1.3656    5.0001 C   0  0  0  0  0  0  0  0  0  0  0  0
    2.5026   -5.4202    4.1349 C   0  0  0  0  0  0  0  0  0  0  0  0
    1.1660   -4.0585    2.5649 N   0  0  0  0  0  0  0  0  0  0  0  0
    0.4387   -4.7843    2.5080 H   0  0  0  0  0  0  0  0  0  0  0  0
    1.8719   -4.2288    1.8348 H   0  0  0  0  0  0  0  0  0  0  0  0
    0.7035   -3.1250    2.3621 H   0  0  0  0  0  0  0  0  0  0  0  0
    5.5685    0.2011    4.7288 C   0  0  0  0  0  0  0  0  0  0  0  0
    6.3080    1.0762    4.8906 N   0  0  0  0  0  0  0  0  0  0  0  0
    4.3412   -0.0230    0.0243 C   0  0  0  0  0  0  0  0  0  0  0  0
    3.6430    0.0578   -1.1783 C   0  0  0  0  0  0  0  0  0  0  0  0
    2.2487    0.0548   -1.1916 C   0  0  0  0  0  0  0  0  0  0  0  0
   -0.4903   -0.8720    1.1660 C   0  0  0  0  0  0  0  0  0  0  0  0
    0.1776   -1.8737    1.4591 O   0  0  0  0  0  0  0  0  0  0  0  0
   -1.6424   -0.6647    1.8586 N   0  0  0  0  0  0  0  0  0  0  0  0
   -2.4104    0.5910    1.8854 C   0  0  0  0  0  0  0  0  0  0  0  0
   -2.8846    0.9987    0.4875 C   0  0  0  0  0  0  0  0  0  0  0  0
   -1.8408    1.8344   -0.2565 C   0  0  0  0  0  0  0  0  0  0  0  0
   -0.3921    1.4893    0.0952 C   0  0  0  0  0  0  0  0  0  0  0  0
   -2.1591   -1.7181    2.7415 C   0  0  0  0  0  0  0  0  0  0  0  0
   -0.5920   -0.6579   -1.2703 C   0  0  0  0  0  0  0  0  0  0  0  0
   -0.1389   -2.1006   -1.4784 C   0  0  0  0  0  0  0  0  0  0  0  0
    1.6714    0.0345    2.1626 H   0  0  0  0  0  0  0  0  0  0  0  0
    4.9002   -1.6855    6.5166 H   0  0  0  0  0  0  0  0  0  0  0  0
    3.2438   -3.4922    6.1732 H   0  0  0  0  0  0  0  0  0  0  0  0
    2.6917   -2.2019    2.0774 H   0  0  0  0  0  0  0  0  0  0  0  0
   -1.6008   -2.3120    6.6774 H   0  0  0  0  0  0  0  0  0  0  0  0
    0.0489   -6.0005    5.4914 H   0  0  0  0  0  0  0  0  0  0  0  0
    1.4755   -1.1222    5.4724 H   0  0  0  0  0  0  0  0  0  0  0  0
   -0.2348   -0.6200    5.3605 H   0  0  0  0  0  0  0  0  0  0  0  0
    0.6050   -1.2361    3.9039 H   0  0  0  0  0  0  0  0  0  0  0  0
    1.8608   -6.2740    3.8851 H   0  0  0  0  0  0  0  0  0  0  0  0
    2.8241   -5.5801    5.1804 H   0  0  0  0  0  0  0  0  0  0  0  0
    3.4198   -5.4890    3.5294 H   0  0  0  0  0  0  0  0  0  0  0  0
    5.4306   -0.0457    0.0554 H   0  0  0  0  0  0  0  0  0  0  0  0
    4.1936    0.1136   -2.1203 H   0  0  0  0  0  0  0  0  0  0  0  0
    1.7308    0.0973   -2.1505 H   0  0  0  0  0  0  0  0  0  0  0  0
   -3.2921    0.4623    2.5575 H   0  0  0  0  0  0  0  0  0  0  0  0
   -1.7892    1.3939    2.3478 H   0  0  0  0  0  0  0  0  0  0  0  0
   -3.1549    0.0958   -0.0968 H   0  0  0  0  0  0  0  0  0  0  0  0
   -3.8309    1.5738    0.5674 H   0  0  0  0  0  0  0  0  0  0  0  0
   -2.0013    1.7395   -1.3500 H   0  0  0  0  0  0  0  0  0  0  0  0
   -2.0036    2.9125   -0.0379 H   0  0  0  0  0  0  0  0  0  0  0  0
    0.2724    2.0702   -0.5877 H   0  0  0  0  0  0  0  0  0  0  0  0
   -0.1419    1.8679    1.1068 H   0  0  0  0  0  0  0  0  0  0  0  0
   -2.1216   -1.4053    3.7986 H   0  0  0  0  0  0  0  0  0  0  0  0
   -1.5904   -2.6561    2.6388 H   0  0  0  0  0  0  0  0  0  0  0  0
   -3.2104   -1.9486    2.4781 H   0  0  0  0  0  0  0  0  0  0  0  0
   -1.7000   -0.6302   -1.2232 H   0  0  0  0  0  0  0  0  0  0  0  0
   -0.3252   -0.0433   -2.1547 H   0  0  0  0  0  0  0  0  0  0  0  0
   -0.5576   -2.7713   -0.7198 H   0  0  0  0  0  0  0  0  0  0  0  0
    0.9524   -2.1993   -1.4258 H   0  0  0  0  0  0  0  0  0  0  0  0
   -0.4575   -2.4751   -2.4601 H   0  0  0  0  0  0  0  0  0  0  0  0
  1 37  1  6  0  0  0
  1  2  1  0  0  0  0
  1 35  1  0  0  0  0
  1 29  1  0  0  0  0
  2  3  2  0  0  0  0
  3 39  1  0  0  0  0
  4  3  1  0  0  0  0
  4  5  1  0  0  0  0
  5  6  1  0  0  0  0
  6  7  1  0  0  0  0
  7 24  1  0  0  0  0
  7  8  2  0  0  0  0
  8 40  1  0  0  0  0
  9  8  1  0  0  0  0
  9 41  1  0  0  0  0
 10  9  2  0  0  0  0
 11  6  2  0  0  0  0
 11 10  1  0  0  0  0
 12 10  1  0  0  0  0
 12 19  1  1  0  0  0
 13 12  1  6  0  0  0
 13 14  1  0  0  0  0
 13 17  1  0  0  0  0
 14 15  1  0  0  0  0
 15 16  2  0  0  0  0
 15 43  1  0  0  0  0
 17 16  2  0  0  0  0
 18 14  1  0  0  0  0
 18 46  1  0  0  0  0
 18 45  1  0  0  0  0
 19 49  1  0  0  0  0
 20 12  1  0  0  0  0
 21 20  1  0  0  0  0
 22 20  1  0  0  0  0
 23 20  1  0  0  0  0
 24 25  3  0  0  0  0
 26 51  1  0  0  0  0
 26  4  2  0  0  0  0
 27 26  1  0  0  0  0
 28 27  2  0  0  0  0
 28  2  1  0  0  0  0
 29 30  2  0  0  0  0
 29 31  1  0  0  0  0
 31 32  1  0  0  0  0
 31 36  1  0  0  0  0
 32 55  1  0  0  0  0
 32 54  1  0  0  0  0
 33 57  1  0  0  0  0
 33 32  1  0  0  0  0
 34 59  1  0  0  0  0
 34 35  1  0  0  0  0
 34 33  1  0  0  0  0
 35 61  1  0  0  0  0
 36 62  1  0  0  0  0
 37 65  1  0  0  0  0
 38 68  1  0  0  0  0
 38 37  1  0  0  0  0
 38 67  1  0  0  0  0
 42 11  1  0  0  0  0
 44 17  1  0  0  0  0
 47 18  1  0  0  0  0
 48 19  1  0  0  0  0
 50 19  1  0  0  0  0
 52 27  1  0  0  0  0
 53 28  1  0  0  0  0
 56 33  1  0  0  0  0
 58 34  1  0  0  0  0
 60 35  1  0  0  0  0
 63 36  1  0  0  0  0
 64 36  1  0  0  0  0
 66 37  1  0  0  0  0
 69 38  1  0  0  0  0
M  RAD  1  13   2
M  END
$$$$
