rmsd152.gzmat
 OpenBabel08211713363D

 69 72  0  0  1  0  0  0  0  0999 V2000
    0.0000    0.0000    0.0000 C   0  0  1  0  0  0  0  0  0  0  0  0
    1.5145    0.0000    0.0000 C   0  0  0  0  0  0  0  0  0  0  0  0
    2.2104    0.0000    1.2096 C   0  0  0  0  0  0  0  0  0  0  0  0
    3.5912   -0.1713    1.1958 C   0  0  0  0  0  0  0  0  0  0  0  0
    4.3397   -0.2329    2.3597 O   0  0  0  0  0  0  0  0  0  0  0  0
    3.7384   -0.7825    3.4529 C   0  0  0  0  0  0  0  0  0  0  0  0
    4.2412   -0.3388    4.6899 C   0  0  0  0  0  0  0  0  0  0  0  0
    3.6801   -0.8548    5.8601 C   0  0  0  0  0  0  0  0  0  0  0  0
    2.6053   -1.7407    5.7961 C   0  0  0  0  0  0  0  0  0  0  0  0
    2.1136   -2.1639    4.5609 C   0  0  0  0  0  0  0  0  0  0  0  0
    2.7287   -1.7448    3.3843 C   0  0  0  0  0  0  0  0  0  0  0  0
    0.9320   -3.1098    4.5003 C   0  0  2  0  0  0  0  0  0  0  0  0
    0.0028   -2.9992    5.6441 C   0  0  2  0  0  0  0  0  0  0  0  0
   -0.6193   -1.8262    6.0959 N   0  0  0  0  0  0  0  0  0  0  0  0
   -1.3916   -2.1588    7.1944 C   0  0  0  0  0  0  0  0  0  0  0  0
   -1.2792   -3.4803    7.4584 N   0  0  0  0  0  0  0  0  0  0  0  0
   -0.4330   -4.0133    6.5223 C   0  0  0  0  0  0  0  0  0  0  0  0
   -0.5162   -0.5063    5.5089 C   0  0  0  0  0  0  0  0  0  0  0  0
    1.4492   -4.5369    4.3243 C   0  0  0  0  0  0  0  0  0  0  0  0
    0.0724   -2.7772    3.2319 N   0  0  0  0  0  0  0  0  0  0  0  0
    0.0725   -1.7428    3.0006 H   0  0  0  0  0  0  0  0  0  0  0  0
   -0.9095   -3.0493    3.3987 H   0  0  0  0  0  0  0  0  0  0  0  0
    0.4203   -3.2859    2.4084 H   0  0  0  0  0  0  0  0  0  0  0  0
    5.2896    0.6146    4.7355 C   0  0  0  0  0  0  0  0  0  0  0  0
    6.1434    1.3943    4.7713 N   0  0  0  0  0  0  0  0  0  0  0  0
    4.3338   -0.2277    0.0191 C   0  0  0  0  0  0  0  0  0  0  0  0
    3.6337   -0.1419   -1.1812 C   0  0  0  0  0  0  0  0  0  0  0  0
    2.2406   -0.0549   -1.1934 C   0  0  0  0  0  0  0  0  0  0  0  0
   -0.4698    0.5011    1.3843 C   0  0  0  0  0  0  0  0  0  0  0  0
   -0.6319   -0.3172    2.3084 O   0  0  0  0  0  0  0  0  0  0  0  0
   -0.6243    1.8130    1.6874 N   0  0  0  0  0  0  0  0  0  0  0  0
   -0.5058    2.8959    0.7047 C   0  0  0  0  0  0  0  0  0  0  0  0
   -1.6842    2.8918   -0.2816 C   0  0  0  0  0  0  0  0  0  0  0  0
   -1.8969    1.5044   -0.8974 C   0  0  0  0  0  0  0  0  0  0  0  0
   -0.5602    0.8177   -1.1857 C   0  0  0  0  0  0  0  0  0  0  0  0
   -1.1549    2.1942    3.0016 C   0  0  0  0  0  0  0  0  0  0  0  0
   -0.5262   -1.4608   -0.1173 C   0  0  0  0  0  0  0  0  0  0  0  0
    0.0381   -2.2464   -1.2967 C   0  0  0  0  0  0  0  0  0  0  0  0
    1.7019    0.1464    2.1605 H   0  0  0  0  0  0  0  0  0  0  0  0
    4.0769   -0.5463    6.8343 H   0  0  0  0  0  0  0  0  0  0  0  0
    2.1564   -2.1054    6.7238 H   0  0  0  0  0  0  0  0  0  0  0  0
    2.4569   -2.1571    2.4148 H   0  0  0  0  0  0  0  0  0  0  0  0
   -1.9941   -1.4583    7.7560 H   0  0  0  0  0  0  0  0  0  0  0  0
   -0.1847   -5.0617    6.5331 H   0  0  0  0  0  0  0  0  0  0  0  0
   -0.8266    0.2707    6.2352 H   0  0  0  0  0  0  0  0  0  0  0  0
   -1.1689   -0.4121    4.6131 H   0  0  0  0  0  0  0  0  0  0  0  0
    0.5233   -0.2712    5.2061 H   0  0  0  0  0  0  0  0  0  0  0  0
    0.6479   -5.2787    4.2086 H   0  0  0  0  0  0  0  0  0  0  0  0
    2.0320   -4.8474    5.2127 H   0  0  0  0  0  0  0  0  0  0  0  0
    2.1432   -4.6373    3.4764 H   0  0  0  0  0  0  0  0  0  0  0  0
    5.4191   -0.3298    0.0478 H   0  0  0  0  0  0  0  0  0  0  0  0
    4.1817   -0.1580   -2.1271 H   0  0  0  0  0  0  0  0  0  0  0  0
    1.7233   -0.0364   -2.1528 H   0  0  0  0  0  0  0  0  0  0  0  0
   -0.4520    3.8759    1.2346 H   0  0  0  0  0  0  0  0  0  0  0  0
    0.4669    2.7926    0.1664 H   0  0  0  0  0  0  0  0  0  0  0  0
   -2.6115    3.2271    0.2217 H   0  0  0  0  0  0  0  0  0  0  0  0
   -1.4895    3.6387   -1.0787 H   0  0  0  0  0  0  0  0  0  0  0  0
   -2.5269    0.8769   -0.2391 H   0  0  0  0  0  0  0  0  0  0  0  0
   -2.4796    1.6030   -1.8372 H   0  0  0  0  0  0  0  0  0  0  0  0
   -0.6804    0.1483   -2.0648 H   0  0  0  0  0  0  0  0  0  0  0  0
    0.1803    1.5746   -1.5197 H   0  0  0  0  0  0  0  0  0  0  0  0
   -0.7805    3.1914    3.2961 H   0  0  0  0  0  0  0  0  0  0  0  0
   -0.8351    1.4770    3.7772 H   0  0  0  0  0  0  0  0  0  0  0  0
   -2.2601    2.2168    2.9881 H   0  0  0  0  0  0  0  0  0  0  0  0
   -0.3040   -2.0090    0.8123 H   0  0  0  0  0  0  0  0  0  0  0  0
   -1.6343   -1.4230   -0.1874 H   0  0  0  0  0  0  0  0  0  0  0  0
    1.1209   -2.4004   -1.2092 H   0  0  0  0  0  0  0  0  0  0  0  0
   -0.1427   -1.7463   -2.2567 H   0  0  0  0  0  0  0  0  0  0  0  0
   -0.4295   -3.2370   -1.3686 H   0  0  0  0  0  0  0  0  0  0  0  0
  1 37  1  6  0  0  0
  1 29  1  0  0  0  0
  2  1  1  0  0  0  0
  2  3  2  0  0  0  0
  3 39  1  0  0  0  0
  4  3  1  0  0  0  0
  4  5  1  0  0  0  0
  5  6  1  0  0  0  0
  6  7  1  0  0  0  0
  7 24  1  0  0  0  0
  7  8  2  0  0  0  0
  8 40  1  0  0  0  0
  9  8  1  0  0  0  0
  9 41  1  0  0  0  0
 10  9  2  0  0  0  0
 11  6  2  0  0  0  0
 11 10  1  0  0  0  0
 12 19  1  6  0  0  0
 12 10  1  0  0  0  0
 13 12  1  1  0  0  0
 13 14  1  0  0  0  0
 13 17  1  0  0  0  0
 14 15  1  0  0  0  0
 15 16  2  0  0  0  0
 15 43  1  0  0  0  0
 17 44  1  0  0  0  0
 17 16  2  0  0  0  0
 18 14  1  0  0  0  0
 18 45  1  0  0  0  0
 19 49  1  0  0  0  0
 20 22  1  0  0  0  0
 20 12  1  0  0  0  0
 21 20  1  0  0  0  0
 23 20  1  0  0  0  0
 24 25  3  0  0  0  0
 26 51  1  0  0  0  0
 26  4  2  0  0  0  0
 27 26  1  0  0  0  0
 28 27  2  0  0  0  0
 28  2  1  0  0  0  0
 29 31  1  0  0  0  0
 29 30  2  0  0  0  0
 31 36  1  0  0  0  0
 32 54  1  0  0  0  0
 32 31  1  0  0  0  0
 33 56  1  0  0  0  0
 33 32  1  0  0  0  0
 34 33  1  0  0  0  0
 34 58  1  0  0  0  0
 35 34  1  0  0  0  0
 35  1  1  0  0  0  0
 36 62  1  0  0  0  0
 36 63  1  0  0  0  0
 37 65  1  0  0  0  0
 38 67  1  0  0  0  0
 38 37  1  0  0  0  0
 42 11  1  0  0  0  0
 46 18  1  0  0  0  0
 47 18  1  0  0  0  0
 48 19  1  0  0  0  0
 50 19  1  0  0  0  0
 52 27  1  0  0  0  0
 53 28  1  0  0  0  0
 55 32  1  0  0  0  0
 57 33  1  0  0  0  0
 59 34  1  0  0  0  0
 60 35  1  0  0  0  0
 61 35  1  0  0  0  0
 64 36  1  0  0  0  0
 66 37  1  0  0  0  0
 68 38  1  0  0  0  0
 69 38  1  0  0  0  0
M  RAD  1  13   2
M  END
$$$$
