69
rmsd145.gzmat
C          0.00000        0.00000        0.00000
C          1.51750        0.00000        0.00000
C          2.22120        0.00000        1.20180
C          3.60080       -0.19410        1.17570
O          4.32990       -0.29280        2.35200
C          3.70500       -0.96240        3.36690
C          4.08070       -0.58310        4.66640
C          3.47690       -1.23060        5.74840
C          2.48620       -2.18750        5.53620
C          2.11690       -2.54430        4.23810
C          2.77460       -1.98160        3.14850
C          1.03090       -3.57590        4.01190
C          0.02820       -3.66280        5.09410
N         -0.71390       -2.59840        5.62490
C         -1.52530       -3.11040        6.62140
N         -1.32280       -4.44170        6.74780
C         -0.37890       -4.80060        5.82280
C         -0.70510       -1.22090        5.17790
C          1.69310       -4.92690        3.74000
N          0.21880       -3.19710        2.72630
H          0.10210       -2.14440        2.61220
H         -0.73040       -3.59700        2.79040
H          0.67460       -3.56210        1.88140
C          5.04180        0.43900        4.86950
N          5.82370        1.27510        5.03910
C          4.33020       -0.26410       -0.00620
C          3.61930       -0.17960       -1.20250
C          2.22790       -0.08070       -1.20230
C         -0.47800        0.25200        1.43780
O         -0.64940       -0.70170        2.21930
N         -0.64530        1.49520        1.95070
C         -0.37830        2.72450        1.19560
C         -1.49200        3.00000        0.17430
C         -1.80730        1.74850       -0.65270
C         -0.53080        1.00390       -1.05140
C         -1.22020        1.65580        3.29050
C         -0.43890       -1.43850       -0.39700
C         -1.94890       -1.64490       -0.35680
H          1.72670        0.14400        2.16100
H          3.77640       -0.97130        6.77060
H          2.00540       -2.66090        6.39650
H          2.59380       -2.32090        2.13080
H         -2.21770       -2.52510        7.21030
H         -0.04630       -5.82190        5.73760
H         -0.97620       -0.53730        6.00570
H         -1.43090       -1.06780        4.34910
H          0.29050       -0.90840        4.80890
H          0.97630       -5.72170        3.49550
H          2.24490       -5.27170        4.63530
H          2.44660       -4.87760        2.93970
H          5.41380       -0.38380        0.01140
H          4.15830       -0.21310       -2.15310
H          1.69590       -0.06920       -2.15390
H         -0.27300        3.58000        1.90310
H          0.61170        2.63230        0.68710
H         -2.40830        3.35230        0.68650
H         -1.18060        3.83240       -0.48940
H         -2.49260        1.08100       -0.09630
H         -2.36930        2.04230       -1.56400
H         -0.71220        0.46220       -2.00430
H          0.25840        1.74470       -1.30210
H         -0.42000        1.65330        4.05260
H         -1.92600        0.83560        3.52010
H         -1.78230        2.60420        3.36600
H         -0.06110       -1.65910       -1.41850
H          0.06070       -2.16710        0.26340
H         -2.46740       -1.00040       -1.07890
H         -2.36830       -1.42680        0.63330
H         -2.21700       -2.67860       -0.60900
