69
rmsd118.gzmat
C          0.00000        0.00000        0.00000
C          1.51930        0.00000        0.00000
C          2.20340        0.00000        1.21660
C          3.59350       -0.06300        1.19600
O          4.33170       -0.08440        2.37400
C          4.00980       -1.02930        3.29180
C          4.66160       -0.86970        4.53120
C          4.39110       -1.78390        5.55060
C          3.46940       -2.80950        5.35200
C          2.83270       -2.95640        4.11680
C          3.12810       -2.09100        3.06990
C          1.80790       -4.06570        3.98450
C          0.66610       -3.91180        4.91390
N          0.08060       -2.71180        5.33630
C         -0.96600       -3.03320        6.18260
N         -1.07290       -4.37600        6.30220
C         -0.08060       -4.93230        5.54010
C          0.49920       -1.36560        5.00010
C          2.50260       -5.42020        4.13490
N          1.16600       -4.05850        2.56490
H          0.43870       -4.78430        2.50800
H          1.87190       -4.22880        1.83480
H          0.70350       -3.12500        2.36210
C          5.56850        0.20110        4.72880
N          6.30800        1.07620        4.89060
C          4.34120       -0.02300        0.02430
C          3.64300        0.05780       -1.17830
C          2.24870        0.05480       -1.19160
C         -0.49030       -0.87200        1.16600
O          0.17760       -1.87370        1.45910
N         -1.64240       -0.66470        1.85860
C         -2.41040        0.59100        1.88540
C         -2.88460        0.99870        0.48750
C         -1.84080        1.83440       -0.25650
C         -0.39210        1.48930        0.09520
C         -2.15910       -1.71810        2.74150
C         -0.59200       -0.65790       -1.27030
C         -0.13890       -2.10060       -1.47840
H          1.67140        0.03450        2.16260
H          4.90020       -1.68550        6.51660
H          3.24380       -3.49220        6.17320
H          2.69170       -2.20190        2.07740
H         -1.60080       -2.31200        6.67740
H          0.04890       -6.00050        5.49140
H          1.47550       -1.12220        5.47240
H         -0.23480       -0.62000        5.36050
H          0.60500       -1.23610        3.90390
H          1.86080       -6.27400        3.88510
H          2.82410       -5.58010        5.18040
H          3.41980       -5.48900        3.52940
H          5.43060       -0.04570        0.05540
H          4.19360        0.11360       -2.12030
H          1.73080        0.09730       -2.15050
H         -3.29210        0.46230        2.55750
H         -1.78920        1.39390        2.34780
H         -3.15490        0.09580       -0.09680
H         -3.83090        1.57380        0.56740
H         -2.00130        1.73950       -1.35000
H         -2.00360        2.91250       -0.03790
H          0.27240        2.07020       -0.58770
H         -0.14190        1.86790        1.10680
H         -2.12160       -1.40530        3.79860
H         -1.59040       -2.65610        2.63880
H         -3.21040       -1.94860        2.47810
H         -1.70000       -0.63020       -1.22320
H         -0.32520       -0.04330       -2.15470
H         -0.55760       -2.77130       -0.71980
H          0.95240       -2.19930       -1.42580
H         -0.45750       -2.47510       -2.46010
