69
rmsd201.gzmat
C          0.00000        0.00000        0.00000
C          1.51780        0.00000        0.00000
C          2.22730        0.00000        1.19820
C          3.60730       -0.18670        1.16690
O          4.34720       -0.27950        2.33690
C          3.70270       -0.85790        3.39430
C          4.06700       -0.38190        4.66370
C          3.42840       -0.91930        5.78670
C          2.42960       -1.87670        5.63860
C          2.09020       -2.35360        4.36770
C          2.75630       -1.87680        3.24690
C          0.94940       -3.34130        4.21030
C          0.86170       -4.29330        5.35270
N          1.89160       -5.14720        5.74720
C          1.43250       -5.88510        6.83080
N          0.16670       -5.52970        7.12690
C         -0.20640       -4.55720        6.23050
C          3.19530       -5.27630        5.12730
C          0.93100       -4.09530        2.88260
N         -0.33030       -2.46340        4.22310
H         -0.41780       -1.96610        5.11660
H         -1.16490       -3.04970        4.07440
H         -0.30380       -1.74370        3.40890
C          5.04320        0.63790        4.79620
N          5.83520        1.47430        4.90480
C          4.33360       -0.24410       -0.01790
C          3.61770       -0.14640       -1.21030
C          2.22620       -0.05050       -1.20560
C         -0.47840       -0.04910        1.45870
O         -0.65130       -1.15930        1.99050
N         -0.63070        1.05390        2.24000
C         -0.36070        2.41510        1.75880
C         -1.46020        2.90590        0.80550
C         -1.77710        1.86480       -0.27340
C         -0.50770        1.20800       -0.81970
C         -1.28250        0.93970        3.54790
C         -0.46250       -1.33000       -0.66050
C         -1.97870       -1.48520       -0.71610
H          1.73520        0.13700        2.15730
H          3.70860       -0.56880        6.78660
H          1.92650       -2.26430        6.52760
H          2.54500       -2.26870        2.24840
H          2.01590       -6.63180        7.35140
H         -1.19080       -4.13320        6.27920
H          3.13070       -5.84170        4.17610
H          3.89530       -5.81990        5.79350
H          3.64530       -4.28570        4.91680
H          0.20630       -4.92460        2.88590
H          1.90990       -4.54670        2.66130
H          0.67750       -3.44880        2.02380
H          5.41700       -0.35970       -0.00640
H          4.15430       -0.16440       -2.16260
H          1.69050       -0.01660       -2.15460
H         -0.26060        3.10310        2.63010
H          0.63460        2.42420        1.25030
H         -2.38080        3.15210        1.36900
H         -1.13310        3.85680        0.33610
H         -2.47160        1.09920        0.12220
H         -2.33220        2.35230       -1.10230
H         -0.68960        0.87660       -1.86500
H          0.29320        1.97220       -0.90950
H         -0.52520        0.90380        4.35110
H         -1.92420        0.04290        3.60310
H         -1.93940        1.81200        3.73360
H         -0.04390       -1.39650       -1.68500
H         -0.02470       -2.18230       -0.10030
H         -2.45390       -0.69880       -1.31370
H         -2.42590       -1.46720        0.28490
H         -2.25490       -2.44670       -1.17070
