rmsd179.gzmat
 OpenBabel08211713403D

 33 34  0  0  1  0  0  0  0  0999 V2000
    0.0000    0.0000    0.0000 C   0  0  0  0  0  0  0  0  0  0  0  0
    1.2011    0.0000    0.0000 O   0  0  0  0  0  0  0  0  0  0  0  0
   -0.8949    0.0000   -1.1789 C   0  0  0  0  0  0  0  0  0  0  0  0
   -0.3544   -0.3772   -2.4101 C   0  0  0  0  0  0  0  0  0  0  0  0
   -1.1602   -0.3763   -3.5449 C   0  0  0  0  0  0  0  0  0  0  0  0
   -2.4973    0.0091   -3.4216 C   0  0  0  0  0  0  0  0  0  0  0  0
   -3.0438    0.3926   -2.1949 C   0  0  0  0  0  0  0  0  0  0  0  0
   -2.2310    0.3861   -1.0647 C   0  0  0  0  0  0  0  0  0  0  0  0
   -3.3478    0.0135   -4.6086 N   0  0  0  0  0  0  0  0  0  0  0  0
   -4.5177    0.3323   -4.4760 O   0  0  0  0  0  0  0  0  0  0  0  0
   -2.8470   -0.3021   -5.6750 O   0  0  0  0  0  0  0  0  0  0  0  0
   -0.7416   -0.0291    1.1429 O   0  0  0  0  0  0  0  0  0  0  0  0
   -0.0397    0.1495    2.3659 C   0  0  0  0  0  0  0  0  0  0  0  0
    0.0488    1.6695    2.6103 C   0  0  1  0  0  0  0  0  0  0  0  0
   -0.9799    2.1280    2.5783 H   0  0  0  0  0  0  0  0  0  0  0  0
    0.7408    1.9469    3.9155 C   0  0  0  0  0  0  0  0  0  0  0  0
    2.1315    1.9313    4.0118 C   0  0  0  0  0  0  0  0  0  0  0  0
    2.7439    2.1915    5.2373 C   0  0  0  0  0  0  0  0  0  0  0  0
    1.9692    2.4575    6.3643 C   0  0  0  0  0  0  0  0  0  0  0  0
    0.5781    2.4647    6.2676 C   0  0  0  0  0  0  0  0  0  0  0  0
   -0.0367    2.2123    5.0444 C   0  0  0  0  0  0  0  0  0  0  0  0
    0.7564    2.2009    1.5822 F   0  0  0  0  0  0  0  0  0  0  0  0
    0.6999   -0.6652   -2.4786 H   0  0  0  0  0  0  0  0  0  0  0  0
   -0.7539   -0.6702   -4.5188 H   0  0  0  0  0  0  0  0  0  0  0  0
   -4.0941    0.6940   -2.1245 H   0  0  0  0  0  0  0  0  0  0  0  0
   -2.6388    0.6826   -0.0943 H   0  0  0  0  0  0  0  0  0  0  0  0
    0.9510   -0.3408    2.3375 H   0  0  0  0  0  0  0  0  0  0  0  0
   -0.6861   -0.3552    3.1061 H   0  0  0  0  0  0  0  0  0  0  0  0
    2.7486    1.7202    3.1373 H   0  0  0  0  0  0  0  0  0  0  0  0
    3.8302    2.1868    5.3116 H   0  0  0  0  0  0  0  0  0  0  0  0
    2.4490    2.6605    7.3198 H   0  0  0  0  0  0  0  0  0  0  0  0
   -0.0278    2.6711    7.1477 H   0  0  0  0  0  0  0  0  0  0  0  0
   -1.1227    2.2263    4.9725 H   0  0  0  0  0  0  0  0  0  0  0  0
  1 12  1  0  0  0  0
  2  1  2  0  0  0  0
  3  8  1  0  0  0  0
  3  1  1  0  0  0  0
  4  3  2  0  0  0  0
  5  6  2  0  0  0  0
  5  4  1  0  0  0  0
  6  7  1  0  0  0  0
  7 25  1  0  0  0  0
  7  8  2  0  0  0  0
  8 26  1  0  0  0  0
  9 10  2  0  0  0  0
  9  6  1  0  0  0  0
 11  9  2  0  0  0  0
 12 13  1  0  0  0  0
 13 14  1  0  0  0  0
 13 28  1  0  0  0  0
 14 15  1  1  0  0  0
 14 16  1  0  0  0  0
 16 17  2  0  0  0  0
 16 21  1  0  0  0  0
 17 18  1  0  0  0  0
 18 30  1  0  0  0  0
 18 19  2  0  0  0  0
 19 31  1  0  0  0  0
 20 19  1  0  0  0  0
 20 32  1  0  0  0  0
 21 20  2  0  0  0  0
 22 14  1  0  0  0  0
 23  4  1  0  0  0  0
 24  5  1  0  0  0  0
 27 13  1  0  0  0  0
 29 17  1  0  0  0  0
 33 21  1  0  0  0  0
M  END
$$$$
