33
rmsd230.gzmat
C          0.00000        0.00000        0.00000
O          1.20510        0.00000        0.00000
C         -0.88550        0.00000       -1.18490
C         -2.26900        0.13160       -1.05470
C         -3.07090        0.12660       -2.19300
C         -2.46590       -0.01380       -3.44400
C         -1.08310       -0.15130       -3.58350
C         -0.28930       -0.14220       -2.44030
N         -3.30380       -0.01550       -4.64070
O         -2.76400       -0.19760       -5.71930
O         -4.50170        0.16870       -4.50280
O         -0.73160        0.00000        1.14270
C         -0.01670       -0.06470        2.37000
C          0.55980       -1.48350        2.54360
H          1.38120       -1.67010        1.79220
C          1.04840       -1.66220        3.95480
C          0.16640       -1.98050        4.98700
C          0.64600       -2.12400        6.28830
C          2.00060       -1.94280        6.55930
C          2.88050       -1.62190        5.52640
C          2.40640       -1.48410        4.22420
F         -0.43850       -2.36310        2.27980
H         -2.72430        0.23460       -0.06500
H         -4.15820        0.23020       -2.11040
H         -0.63300       -0.26460       -4.57550
H          0.79830       -0.24580       -2.51950
H         -0.80990        0.17310        3.10610
H          0.77530        0.70390        2.40340
H         -0.89610       -2.12180        4.78880
H         -0.04160       -2.37610        7.09380
H          2.37230       -2.05280        7.57620
H          3.93930       -1.48130        5.73720
H          3.09870       -1.23910        3.41960
