rmsd247.gzmat
 OpenBabel08211713403D

 33 34  0  0  1  0  0  0  0  0999 V2000
    0.0000    0.0000    0.0000 C   0  0  0  0  0  0  0  0  0  0  0  0
    1.2014    0.0000    0.0000 O   0  0  0  0  0  0  0  0  0  0  0  0
   -0.8940    0.0000   -1.1796 C   0  0  0  0  0  0  0  0  0  0  0  0
   -2.1968    0.4911   -1.0868 C   0  0  0  0  0  0  0  0  0  0  0  0
   -3.0116    0.4945   -2.2159 C   0  0  0  0  0  0  0  0  0  0  0  0
   -2.4993    0.0042   -3.4192 C   0  0  0  0  0  0  0  0  0  0  0  0
   -1.1947   -0.4848   -3.5207 C   0  0  0  0  0  0  0  0  0  0  0  0
   -0.3875   -0.4850   -2.3870 C   0  0  0  0  0  0  0  0  0  0  0  0
   -3.3513    0.0043   -4.6051 N   0  0  0  0  0  0  0  0  0  0  0  0
   -2.8939   -0.4483   -5.6414 O   0  0  0  0  0  0  0  0  0  0  0  0
   -4.4798    0.4557   -4.5012 O   0  0  0  0  0  0  0  0  0  0  0  0
   -0.7435   -0.0365    1.1413 O   0  0  0  0  0  0  0  0  0  0  0  0
   -0.0396    0.1048    2.3685 C   0  0  0  0  0  0  0  0  0  0  0  0
   -0.0356    1.6105    2.7053 C   0  0  1  0  0  0  0  0  0  0  0  0
   -1.0900    1.9885    2.8192 H   0  0  0  0  0  0  0  0  0  0  0  0
    0.7850    1.8595    3.9402 C   0  0  0  0  0  0  0  0  0  0  0  0
    2.1767    1.9206    3.8751 C   0  0  0  0  0  0  0  0  0  0  0  0
    2.9156    2.1436    5.0362 C   0  0  0  0  0  0  0  0  0  0  0  0
    2.2672    2.2953    6.2599 C   0  0  0  0  0  0  0  0  0  0  0  0
    0.8756    2.2282    6.3243 C   0  0  0  0  0  0  0  0  0  0  0  0
    0.1338    2.0137    5.1655 C   0  0  0  0  0  0  0  0  0  0  0  0
    0.5101    2.2565    1.6444 F   0  0  0  0  0  0  0  0  0  0  0  0
   -2.5751    0.8723   -0.1344 H   0  0  0  0  0  0  0  0  0  0  0  0
   -4.0367    0.8758   -2.1628 H   0  0  0  0  0  0  0  0  0  0  0  0
   -0.8145   -0.8586   -4.4775 H   0  0  0  0  0  0  0  0  0  0  0  0
    0.6410   -0.8557   -2.4390 H   0  0  0  0  0  0  0  0  0  0  0  0
    0.9789   -0.3223    2.3044 H   0  0  0  0  0  0  0  0  0  0  0  0
   -0.6449   -0.4803    3.0834 H   0  0  0  0  0  0  0  0  0  0  0  0
    2.6955    1.7965    2.9230 H   0  0  0  0  0  0  0  0  0  0  0  0
    4.0022    2.1982    4.9842 H   0  0  0  0  0  0  0  0  0  0  0  0
    2.8457    2.4655    7.1660 H   0  0  0  0  0  0  0  0  0  0  0  0
    0.3688    2.3470    7.2803 H   0  0  0  0  0  0  0  0  0  0  0  0
   -0.9523    1.9698    5.2204 H   0  0  0  0  0  0  0  0  0  0  0  0
  1 12  1  0  0  0  0
  2  1  2  0  0  0  0
  3  4  1  0  0  0  0
  3  1  1  0  0  0  0
  4 23  1  0  0  0  0
  5 24  1  0  0  0  0
  5  4  2  0  0  0  0
  6  5  1  0  0  0  0
  7  6  2  0  0  0  0
  7  8  1  0  0  0  0
  8  3  2  0  0  0  0
  9 11  2  0  0  0  0
  9  6  1  0  0  0  0
 10  9  2  0  0  0  0
 12 13  1  0  0  0  0
 13 14  1  0  0  0  0
 13 28  1  0  0  0  0
 14 15  1  1  0  0  0
 14 16  1  0  0  0  0
 16 21  1  0  0  0  0
 17 16  2  0  0  0  0
 17 18  1  0  0  0  0
 18 19  2  0  0  0  0
 19 20  1  0  0  0  0
 19 31  1  0  0  0  0
 20 32  1  0  0  0  0
 21 33  1  0  0  0  0
 21 20  2  0  0  0  0
 22 14  1  0  0  0  0
 25  7  1  0  0  0  0
 26  8  1  0  0  0  0
 27 13  1  0  0  0  0
 29 17  1  0  0  0  0
 30 18  1  0  0  0  0
M  END
$$$$
