33

C         -0.01900       -0.05020       -0.01720
O          1.18010       -0.16330       -0.06990
C         -0.90810       -0.03060       -1.21940
C         -2.29920        0.12250       -1.11770
C         -3.08600        0.13720       -2.26740
C         -2.46110       -0.00230       -3.50620
C         -1.08020       -0.15470       -3.63400
C         -0.30430       -0.16800       -2.47850
N         -3.29390        0.01240       -4.72980
O         -2.72220       -0.11230       -5.79970
O         -4.49770        0.14780       -4.58860
O         -0.72430        0.05240        1.13020
C          0.00590        0.18900        2.34860
C         -0.00080        1.64780        2.79070
H         -1.04490        1.99160        2.89260
C          0.74630        1.82600        4.08920
C          2.11370        2.12890        4.07760
C          2.81640        2.23860        5.27950
C          2.16180        2.04010        6.49850
C          0.79720        1.73730        6.51350
C          0.09170        1.63420        5.31260
F          0.58250        2.39700        1.77990
H         -2.75620        0.23060       -0.13470
H         -4.16790        0.25440       -2.22610
H         -0.64360       -0.25870       -4.62630
H          0.77930       -0.28310       -2.52810
H          1.03930       -0.15540        2.20730
H         -0.49540       -0.43350        3.10290
H          2.61570        2.29010        3.12220
H          3.88160        2.48130        5.26400
H          2.71360        2.12640        7.43750
H          0.27850        1.58900        7.46350
H         -0.97900        1.41020        5.32780
