
     RDKit          3D

 33 34  0  0  0  0  0  0  0  0999 V2000
   -0.0190   -0.0502   -0.0172 C   0  0  0  0  0  0  0  0  0  0  0  0
    1.1801   -0.1633   -0.0699 O   0  0  0  0  0  0  0  0  0  0  0  0
   -0.9081   -0.0306   -1.2194 C   0  0  0  0  0  0  0  0  0  0  0  0
   -2.2992    0.1225   -1.1177 C   0  0  0  0  0  0  0  0  0  0  0  0
   -3.0860    0.1372   -2.2674 C   0  0  0  0  0  0  0  0  0  0  0  0
   -2.4611   -0.0023   -3.5062 C   0  0  0  0  0  0  0  0  0  0  0  0
   -1.0802   -0.1547   -3.6340 C   0  0  0  0  0  0  0  0  0  0  0  0
   -0.3043   -0.1680   -2.4785 C   0  0  0  0  0  0  0  0  0  0  0  0
   -3.2939    0.0124   -4.7298 N   0  0  0  0  0  0  0  0  0  0  0  0
   -2.7222   -0.1123   -5.7997 O   0  0  0  0  0  0  0  0  0  0  0  0
   -4.4977    0.1478   -4.5886 O   0  0  0  0  0  0  0  0  0  0  0  0
   -0.7243    0.0524    1.1302 O   0  0  0  0  0  0  0  0  0  0  0  0
    0.0059    0.1890    2.3486 C   0  0  0  0  0  0  0  0  0  0  0  0
   -0.0008    1.6478    2.7907 C   0  0  1  0  0  0  0  0  0  0  0  0
   -1.0449    1.9916    2.8926 H   0  0  0  0  0  0  0  0  0  0  0  0
    0.7463    1.8260    4.0892 C   0  0  0  0  0  0  0  0  0  0  0  0
    2.1137    2.1289    4.0776 C   0  0  0  0  0  0  0  0  0  0  0  0
    2.8164    2.2386    5.2795 C   0  0  0  0  0  0  0  0  0  0  0  0
    2.1618    2.0401    6.4985 C   0  0  0  0  0  0  0  0  0  0  0  0
    0.7972    1.7373    6.5135 C   0  0  0  0  0  0  0  0  0  0  0  0
    0.0917    1.6342    5.3126 C   0  0  0  0  0  0  0  0  0  0  0  0
    0.5825    2.3970    1.7799 F   0  0  0  0  0  0  0  0  0  0  0  0
   -2.7562    0.2306   -0.1347 H   0  0  0  0  0  0  0  0  0  0  0  0
   -4.1679    0.2544   -2.2261 H   0  0  0  0  0  0  0  0  0  0  0  0
   -0.6436   -0.2587   -4.6263 H   0  0  0  0  0  0  0  0  0  0  0  0
    0.7793   -0.2831   -2.5281 H   0  0  0  0  0  0  0  0  0  0  0  0
    1.0393   -0.1554    2.2073 H   0  0  0  0  0  0  0  0  0  0  0  0
   -0.4954   -0.4335    3.1029 H   0  0  0  0  0  0  0  0  0  0  0  0
    2.6157    2.2901    3.1222 H   0  0  0  0  0  0  0  0  0  0  0  0
    3.8816    2.4813    5.2640 H   0  0  0  0  0  0  0  0  0  0  0  0
    2.7136    2.1264    7.4375 H   0  0  0  0  0  0  0  0  0  0  0  0
    0.2785    1.5890    7.4635 H   0  0  0  0  0  0  0  0  0  0  0  0
   -0.9790    1.4102    5.3278 H   0  0  0  0  0  0  0  0  0  0  0  0
  1  2  2  0
  1  3  1  0
  1 12  1  0
  3  4  2  0
  3  8  1  0
  4  5  1  0
  4 23  1  0
  5  6  2  0
  5 24  1  0
  6  7  1  0
  6  9  1  0
  7  8  2  0
  7 25  1  0
  8 26  1  0
  9 10  1  0
  9 11  2  0
 12 13  1  0
 13 14  1  0
 13 27  1  0
 13 28  1  0
 14 15  1  1
 14 16  1  0
 14 22  1  0
 16 17  2  0
 16 21  1  0
 17 18  1  0
 17 29  1  0
 18 19  2  0
 18 30  1  0
 19 20  1  0
 19 31  1  0
 20 21  2  0
 20 32  1  0
 21 33  1  0
M  CHG  2   9   1  10  -1
M  END

