33

C         -0.17280       -0.10340        0.05970
O          0.99260       -0.41200        0.07560
C         -1.01030       -0.07360       -1.17890
C         -0.40060       -0.44550       -2.38660
C         -1.12920       -0.43510       -3.57260
C         -2.46880       -0.04810       -3.52710
C         -3.09810        0.32720       -2.34060
C         -2.35900        0.31290       -1.15970
N         -3.25100       -0.03470       -4.78360
O         -4.41940        0.30820       -4.71440
O         -2.67650       -0.36770       -5.80630
O         -0.88550        0.23580        1.15570
C         -0.17970        0.38610        2.38680
C          0.03670        1.86670        2.67730
H         -0.94050        2.38010        2.69360
C          0.76240        2.06410        3.98520
C          2.16010        2.14950        4.00780
C          2.83390        2.27680        5.22450
C          2.11870        2.31230        6.42500
C          0.72360        2.22680        6.40590
C          0.04820        2.10670        5.18940
F          0.76470        2.40060        1.62460
H          0.64980       -0.73910       -2.37260
H         -0.68680       -0.71770       -4.52680
H         -4.14630        0.62180       -2.36300
H         -2.82050        0.60180       -0.21610
H          0.78810       -0.13040        2.32970
H         -0.79750       -0.06440        3.17620
H          2.71060        2.12870        3.06580
H          3.92400        2.34930        5.23500
H          2.64790        2.41190        7.37560
H          0.15890        2.26210        7.34040
H         -1.04440        2.05330        5.17640
