33
rmsd243.gzmat
C          0.00000        0.00000        0.00000
O          1.20440        0.00000        0.00000
C         -0.89060        0.00000       -1.18140
C         -0.38140       -0.49380       -2.38440
C         -1.19270       -0.52100       -3.51490
C         -2.50260       -0.04590       -3.41590
C         -3.01600        0.45740       -2.21840
C         -2.19860        0.47790       -1.09160
N         -3.36180       -0.07890       -4.59690
O         -4.50990        0.31680       -4.48240
O         -2.88950       -0.50100       -5.63930
O         -0.73730       -0.01050        1.13880
C         -0.03060       -0.06690        2.37100
C          0.58920       -1.46770        2.54090
H          1.42820       -1.62030        1.80120
C          1.05900       -1.64330        3.95890
C          0.16410       -1.97280        4.97640
C          0.62410       -2.11650        6.28460
C          1.97260       -1.92250        6.57770
C          2.86510       -1.58790        5.56010
C          2.41090       -1.45250        4.25050
F         -0.37410       -2.37870        2.25430
H          0.65130       -0.85330       -2.43430
H         -0.81270       -0.90830       -4.46640
H         -4.04600        0.82580       -2.16650
H         -2.58200        0.86130       -0.14200
H         -0.83730        0.13940        3.10240
H          0.73760        0.72480        2.41780
H         -0.89360       -2.12430        4.76070
H         -0.07320       -2.38060        7.07770
H          2.32900       -2.03380        7.60000
H          3.91840       -1.43530        5.78840
H          3.11360       -1.20100        3.45700
