33
rmsd233.gzmat
C          0.00000        0.00000        0.00000
O          1.20470        0.00000        0.00000
C         -0.88750        0.00000       -1.18340
C         -0.30930       -0.24770       -2.43060
C         -1.10840       -0.26150       -3.56990
C         -2.47740       -0.01870       -3.43560
C         -3.06310        0.23360       -2.19330
C         -2.25720        0.23860       -1.05800
N         -3.32090       -0.03040       -4.62840
O         -4.52430        0.10270       -4.48150
O         -2.78000       -0.17240       -5.71220
O         -0.73310       -0.00060        1.14150
C         -0.02190       -0.03280        2.37160
C          0.59160       -1.43260        2.57190
H          1.42110       -1.61160        1.82700
C          1.08680       -1.56320        3.98640
C          0.27230       -2.05640        5.00430
C          0.76500       -2.14170        6.30630
C          2.06370       -1.72840        6.59280
C          2.87580       -1.23020        5.57440
C          2.39050       -1.15120        4.27210
F         -0.38120       -2.34260        2.32010
H          0.76810       -0.42840       -2.50640
H         -0.67310       -0.45920       -4.55520
H         -4.13920        0.42190       -2.11360
H         -2.69860        0.42380       -0.07410
H         -0.82450        0.19470        3.10070
H          0.75040        0.75590        2.39690
H         -0.74770       -2.38020        4.79920
H          0.13030       -2.53220        7.09980
H          2.44460       -1.79540        7.61010
H          3.89030       -0.90440        5.79700
H          3.03130       -0.76860        3.47830
