rmsd237.gzmat
 OpenBabel08211713403D

 33 34  0  0  1  0  0  0  0  0999 V2000
    0.0000    0.0000    0.0000 C   0  0  0  0  0  0  0  0  0  0  0  0
    1.2046    0.0000    0.0000 O   0  0  0  0  0  0  0  0  0  0  0  0
   -0.8885    0.0000   -1.1820 C   0  0  0  0  0  0  0  0  0  0  0  0
   -0.3625    0.4559   -2.3927 C   0  0  0  0  0  0  0  0  0  0  0  0
   -1.1668    0.4744   -3.5279 C   0  0  0  0  0  0  0  0  0  0  0  0
   -2.4863    0.0269   -3.4260 C   0  0  0  0  0  0  0  0  0  0  0  0
   -3.0167   -0.4387   -2.2211 C   0  0  0  0  0  0  0  0  0  0  0  0
   -2.2058   -0.4500   -1.0888 C   0  0  0  0  0  0  0  0  0  0  0  0
   -3.3357    0.0506   -4.6142 N   0  0  0  0  0  0  0  0  0  0  0  0
   -4.5050   -0.2731   -4.4910 O   0  0  0  0  0  0  0  0  0  0  0  0
   -2.8336    0.3957   -5.6709 O   0  0  0  0  0  0  0  0  0  0  0  0
   -0.7339    0.0137    1.1413 O   0  0  0  0  0  0  0  0  0  0  0  0
   -0.0154   -0.0235    2.3688 C   0  0  0  0  0  0  0  0  0  0  0  0
    0.4851   -1.4589    2.6114 C   0  0  1  0  0  0  0  0  0  0  0  0
    1.1112   -1.8088    1.7392 H   0  0  0  0  0  0  0  0  0  0  0  0
    1.2632   -1.5126    3.8971 C   0  0  0  0  0  0  0  0  0  0  0  0
    0.6285   -1.6865    5.1257 C   0  0  0  0  0  0  0  0  0  0  0  0
    1.3847   -1.7193    6.2970 C   0  0  0  0  0  0  0  0  0  0  0  0
    2.7685   -1.5688    6.2419 C   0  0  0  0  0  0  0  0  0  0  0  0
    3.4015   -1.3887    5.0123 C   0  0  0  0  0  0  0  0  0  0  0  0
    2.6512   -1.3646    3.8399 C   0  0  0  0  0  0  0  0  0  0  0  0
   -0.5989   -2.2712    2.6816 F   0  0  0  0  0  0  0  0  0  0  0  0
    0.6780    0.7919   -2.4441 H   0  0  0  0  0  0  0  0  0  0  0  0
   -0.7741    0.8338   -4.4849 H   0  0  0  0  0  0  0  0  0  0  0  0
   -4.0540   -0.7870   -2.1683 H   0  0  0  0  0  0  0  0  0  0  0  0
   -2.6004   -0.8086   -0.1328 H   0  0  0  0  0  0  0  0  0  0  0  0
   -0.7857    0.3011    3.0955 H   0  0  0  0  0  0  0  0  0  0  0  0
    0.8198    0.7005    2.3581 H   0  0  0  0  0  0  0  0  0  0  0  0
   -0.4532   -1.8014    5.1847 H   0  0  0  0  0  0  0  0  0  0  0  0
    0.8902   -1.8618    7.2562 H   0  0  0  0  0  0  0  0  0  0  0  0
    3.3563   -1.5924    7.1575 H   0  0  0  0  0  0  0  0  0  0  0  0
    4.4826   -1.2702    4.9693 H   0  0  0  0  0  0  0  0  0  0  0  0
    3.1499   -1.2324    2.8798 H   0  0  0  0  0  0  0  0  0  0  0  0
  1  2  2  0  0  0  0
  1 12  1  0  0  0  0
  3  8  1  0  0  0  0
  3  1  1  0  0  0  0
  4  3  2  0  0  0  0
  5  6  2  0  0  0  0
  5  4  1  0  0  0  0
  6  7  1  0  0  0  0
  7 25  1  0  0  0  0
  7  8  2  0  0  0  0
  8 26  1  0  0  0  0
  9 10  2  0  0  0  0
  9  6  1  0  0  0  0
 11  9  2  0  0  0  0
 12 13  1  0  0  0  0
 13 14  1  0  0  0  0
 13 27  1  0  0  0  0
 14 15  1  6  0  0  0
 14 22  1  0  0  0  0
 14 16  1  0  0  0  0
 16 17  1  0  0  0  0
 17 29  1  0  0  0  0
 17 18  2  0  0  0  0
 18 30  1  0  0  0  0
 19 18  1  0  0  0  0
 19 31  1  0  0  0  0
 20 19  2  0  0  0  0
 21 16  2  0  0  0  0
 21 20  1  0  0  0  0
 23  4  1  0  0  0  0
 24  5  1  0  0  0  0
 28 13  1  0  0  0  0
 32 20  1  0  0  0  0
 33 21  1  0  0  0  0
M  END
$$$$
