33

C         -0.12720       -0.02800        0.07160
O          1.08230        0.01540        0.07080
C         -0.96720        0.00830       -1.16310
C         -0.31170        0.13990       -2.39680
C         -1.04530        0.17830       -3.57910
C         -2.43490        0.08100       -3.50270
C         -3.11010       -0.05320       -2.28990
C         -2.36630       -0.08890       -1.11240
N         -3.22240        0.12090       -4.75600
O         -4.43490        0.03420       -4.66020
O         -2.60660        0.23810       -5.80190
O         -0.86720       -0.11290        1.19070
C         -0.15080       -0.16660        2.42820
C          0.36900       -1.56770        2.72690
H          0.92730       -1.94180        1.85330
C          1.26170       -1.56100        3.94500
C          0.78880       -2.01000        5.18270
C          1.61680       -1.96100        6.30780
C          2.91690       -1.46080        6.20360
C          3.39210       -1.01240        4.96680
C          2.56890       -1.06420        3.84110
F         -0.72200       -2.40230        2.91630
H          0.77680        0.21050       -2.40620
H         -0.56960        0.28070       -4.55330
H         -4.19660       -0.12700       -2.28940
H         -2.86220       -0.19520       -0.14790
H         -0.86880        0.12720        3.20520
H          0.68720        0.54290        2.40430
H         -0.22420       -2.40850        5.25330
H          1.24350       -2.31780        7.27080
H          3.56270       -1.42410        7.08410
H          4.41040       -0.62660        4.87780
H          2.94230       -0.72170        2.87150
