33

C         -0.03100       -0.01470       -0.04400
O          1.17430        0.07330       -0.10860
C         -0.93630       -0.00230       -1.23210
C         -2.32630       -0.15060       -1.10810
C         -3.13240       -0.13550       -2.24440
C         -2.52800        0.02990       -3.49020
C         -1.14880        0.17800       -3.63920
C         -0.35250        0.15970       -2.49770
N         -3.38180        0.04810       -4.69970
O         -2.82710        0.19300       -5.77590
O         -4.58370       -0.08260       -4.54050
O         -0.70670       -0.13310        1.11220
C          0.07630       -0.16630        2.30940
C          0.66300       -1.54840        2.57040
H          1.18490       -1.89810        1.66480
C          1.62160       -1.51340        3.73680
C          1.23640       -1.98610        4.99590
C          2.12390       -1.91080        6.07320
C          3.39620       -1.36060        5.89990
C          3.78370       -0.88850        4.64150
C          2.90110       -0.96640        3.56330
F         -0.38440       -2.42360        2.81520
H         -2.76610       -0.28020       -0.11960
H         -4.21400       -0.24870       -2.18700
H         -0.72940        0.30300       -4.63650
H          0.73070        0.27000       -2.56410
H         -0.60950        0.09660        3.12560
H          0.88480        0.57420        2.24580
H          0.24480       -2.42340        5.12030
H          1.81910       -2.28620        7.05310
H          4.08850       -1.30340        6.74310
H          4.78000       -0.46350        4.49830
H          3.20610       -0.60530        2.57670
