33
rmsd236.gzmat
C          0.00000        0.00000        0.00000
O          1.20450        0.00000        0.00000
C         -0.89040        0.00000       -1.18080
C         -0.37490        0.46780       -2.39160
C         -1.18350        0.48040       -3.52420
C         -2.49490        0.01010       -3.42090
C         -3.01360       -0.47070       -2.21680
C         -2.20100       -0.46950       -1.08580
N         -3.34920        0.02450       -4.60550
O         -4.47610       -0.43170       -4.50660
O         -2.89460        0.49550       -5.63470
O         -0.73390        0.01120        1.14140
C         -0.01850       -0.05560        2.36910
C          0.44220       -1.50850        2.58990
H          1.13580       -1.82960        1.75910
C          1.09780       -1.63760        3.93720
C          0.33990       -1.78470        5.09800
C          0.97750       -1.88770        6.33370
C          2.36760       -1.83500        6.41110
C          3.12430       -1.68380        5.24960
C          2.49140       -1.58900        4.01300
F         -0.65830       -2.29940        2.52710
H          0.66150        0.81540       -2.44640
H         -0.79980        0.85150       -4.48070
H         -4.04340       -0.84030       -2.16270
H         -2.58920       -0.83380       -0.12920
H         -0.78300        0.27560        3.09890
H          0.83450        0.64660        2.37080
H         -0.74790       -1.82350        5.05210
H          0.38620       -2.01060        7.23910
H          2.86270       -1.91420        7.37720
H          4.21070       -1.64380        5.30830
H          3.08700       -1.47800        3.10730
