38
rmsd30.gzmat
O          0.00000        0.00000        0.00000
C          1.19740        0.00000        0.00000
N          2.00980        0.00000        1.17670
C          3.40190       -0.00140        0.84940
O          4.28960        0.00230        1.65290
C          3.46780       -0.00590       -0.64230
C          4.55830       -0.01120       -1.47880
C          4.31360       -0.01560       -2.86570
C          3.01830       -0.01500       -3.36570
C          1.90490       -0.00760       -2.50330
C          2.15020       -0.00320       -1.15080
C          1.50100       -0.00630        2.50150
C          0.30630       -0.68170        2.78630
C         -0.18560       -0.69750        4.08400
C          0.51980       -0.04650        5.11060
N         -0.02520       -0.03580        6.40840
C          0.74160       -0.19210        7.57380
C          2.07530       -0.63040        7.55210
C          2.77760       -0.75020        8.74600
C          2.16600       -0.45650        9.96330
C          0.83550       -0.03880        9.98470
C          0.11720        0.09580        8.80350
C          1.70420        0.64810        4.81650
C          2.19360        0.66660        3.51840
H          5.57630       -0.01240       -1.08780
H          5.16160       -0.01960       -3.55090
H          2.85200       -0.02060       -4.44350
H          0.88860       -0.00540       -2.89830
H         -0.24180       -1.19570        1.99460
H         -1.11200       -1.22400        4.30080
H         -1.02200       -0.19140        6.48950
H          2.55500       -0.89880        6.61330
H          3.81470       -1.08520        8.72720
H          2.71990       -0.55690       10.89160
H          0.35520        0.18550       10.93680
H         -0.91440        0.43290        8.82870
H          2.22860        1.18910        5.60460
H          3.11710        1.20480        3.29610
