38
rmsd31.gzmat
O          0.00000        0.00000        0.00000
C          1.19730        0.00000        0.00000
N          2.01160        0.00000        1.17510
C          3.40320       -0.00210        0.84620
O          4.29160        0.00300        1.64880
C          3.46680       -0.00680       -0.64560
C          4.55550       -0.01020       -1.48430
C          4.30810       -0.00730       -2.87060
C          3.01180       -0.00630       -3.36760
C          1.90020       -0.00400       -2.50320
C          2.14850       -0.00310       -1.15160
C          1.50480        0.00960        2.50040
C          0.30810       -0.65830        2.79270
C         -0.18940       -0.64730        4.08810
C          0.51290        0.02280        5.10450
N         -0.04420        0.07070        6.39530
C          0.71110       -0.04110        7.57240
C          2.03650       -0.50350        7.58130
C          2.72550       -0.58260        8.78630
C          2.11090       -0.21900        9.98290
C          0.78940        0.22600        9.97340
C          0.08260        0.31600        8.78120
C          1.70600        0.69980        4.80430
C          2.20040        0.69240        3.50830
H          5.57390       -0.01560       -1.09560
H          5.15460       -0.00600       -3.55770
H          2.84260       -0.00780       -4.44470
H          0.88310       -0.00250       -2.89590
H         -0.23840       -1.18460        2.00800
H         -1.11810       -1.16610        4.31240
H         -1.04320       -0.06940        6.47300
H          2.51980       -0.81920        6.65920
H          3.75520       -0.93970        8.79340
H          2.65620       -0.28570       10.91920
H          0.30700        0.50660       10.90940
H         -0.94290        0.67150        8.77940
H          2.23180        1.24950        5.58500
H          3.12900        1.21940        3.28020
