38

O          0.03470       -0.02210       -0.05690
C          1.24120       -0.00230       -0.03780
N          2.05620       -0.02220        1.12020
C          3.43240        0.00560        0.78720
O          4.35160        0.00270        1.56920
C          3.48840        0.04490       -0.70350
C          4.58570        0.08080       -1.55420
C          4.33140        0.11370       -2.93350
C          3.01870        0.11080       -3.42770
C          1.91820        0.07380       -2.55850
C          2.18230        0.04080       -1.19530
C          1.55640       -0.06540        2.45110
C          0.44920       -0.86230        2.76980
C         -0.04620       -0.90300        4.07020
C          0.57210       -0.16630        5.09870
N          0.10820       -0.15170        6.41050
C         -0.68120       -1.08480        7.08340
C         -0.71860       -2.44830        6.73330
C         -1.50520       -3.33930        7.46410
C         -2.25450       -2.90660        8.56160
C         -2.20420       -1.55750        8.92510
C         -1.43500       -0.65500        8.19330
C          1.68520        0.63040        4.76520
C          2.16340        0.69290        3.46160
H          5.60180        0.08320       -1.15510
H          5.16750        0.14230       -3.63610
H          2.85340        0.13740       -4.50720
H          0.89110        0.07040       -2.92850
H         -0.05000       -1.43350        1.98870
H         -0.93390       -1.49740        4.28170
H          0.37090        0.66200        6.95200
H         -0.11210       -2.81450        5.90560
H         -1.51830       -4.39350        7.17590
H         -2.86550       -3.61160        9.12890
H         -2.77870       -1.19850        9.78270
H         -1.41550        0.40180        8.47380
H          2.18240        1.20940        5.54790
H          3.02860        1.31280        3.23210
