rmsd25.gzmat
 OpenBabel08211713403D

 38 41  0  0  0  0  0  0  0  0999 V2000
    0.0000    0.0000    0.0000 O   0  0  0  0  0  0  0  0  0  0  0  0
    1.1975    0.0000    0.0000 C   0  0  0  0  0  0  0  0  0  0  0  0
    2.0109    0.0000    1.1743 N   0  0  0  0  0  0  0  0  0  0  0  0
    3.4026    0.0139    0.8481 C   0  0  0  0  0  0  0  0  0  0  0  0
    4.2896    0.0168    1.6527 O   0  0  0  0  0  0  0  0  0  0  0  0
    3.4678    0.0196   -0.6436 C   0  0  0  0  0  0  0  0  0  0  0  0
    4.5576    0.0340   -1.4808 C   0  0  0  0  0  0  0  0  0  0  0  0
    4.3124    0.0325   -2.8676 C   0  0  0  0  0  0  0  0  0  0  0  0
    3.0171    0.0172   -3.3669 C   0  0  0  0  0  0  0  0  0  0  0  0
    1.9043    0.0046   -2.5035 C   0  0  0  0  0  0  0  0  0  0  0  0
    2.1500    0.0060   -1.1513 C   0  0  0  0  0  0  0  0  0  0  0  0
    1.5096   -0.0012    2.5018 C   0  0  0  0  0  0  0  0  0  0  0  0
    2.1926   -0.7095    3.4994 C   0  0  0  0  0  0  0  0  0  0  0  0
    1.7161   -0.6999    4.8024 C   0  0  0  0  0  0  0  0  0  0  0  0
    0.5554    0.0221    5.1208 C   0  0  0  0  0  0  0  0  0  0  0  0
    0.0338    0.0780    6.4238 N   0  0  0  0  0  0  0  0  0  0  0  0
    0.7731   -0.2537    7.5724 C   0  0  0  0  0  0  0  0  0  0  0  0
    2.1250    0.1065    7.6980 C   0  0  0  0  0  0  0  0  0  0  0  0
    2.8046   -0.1891    8.8734 C   0  0  0  0  0  0  0  0  0  0  0  0
    2.1549   -0.8300    9.9278 C   0  0  0  0  0  0  0  0  0  0  0  0
    0.8087   -1.1698    9.8069 C   0  0  0  0  0  0  0  0  0  0  0  0
    0.1096   -0.8840    8.6396 C   0  0  0  0  0  0  0  0  0  0  0  0
   -0.1413    0.7115    4.1098 C   0  0  0  0  0  0  0  0  0  0  0  0
    0.3375    0.7039    2.8083 C   0  0  0  0  0  0  0  0  0  0  0  0
    5.5752    0.0469   -1.0905 H   0  0  0  0  0  0  0  0  0  0  0  0
    5.1600    0.0432   -3.5532 H   0  0  0  0  0  0  0  0  0  0  0  0
    2.8503    0.0147   -4.4446 H   0  0  0  0  0  0  0  0  0  0  0  0
    0.8880   -0.0052   -2.8976 H   0  0  0  0  0  0  0  0  0  0  0  0
    3.0996   -1.2678    3.2589 H   0  0  0  0  0  0  0  0  0  0  0  0
    2.2376   -1.2701    5.5702 H   0  0  0  0  0  0  0  0  0  0  0  0
   -0.9731    0.1119    6.5143 H   0  0  0  0  0  0  0  0  0  0  0  0
    2.6286    0.6344    6.8898 H   0  0  0  0  0  0  0  0  0  0  0  0
    3.8535    0.0892    8.9735 H   0  0  0  0  0  0  0  0  0  0  0  0
    2.6945   -1.0586   10.8421 H   0  0  0  0  0  0  0  0  0  0  0  0
    0.2998   -1.6669   10.6319 H   0  0  0  0  0  0  0  0  0  0  0  0
   -0.9383   -1.1541    8.5532 H   0  0  0  0  0  0  0  0  0  0  0  0
   -1.0470    1.2635    4.3499 H   0  0  0  0  0  0  0  0  0  0  0  0
   -0.2015    1.2438    2.0276 H   0  0  0  0  0  0  0  0  0  0  0  0
  2  1  2  0  0  0  0
  2  3  1  0  0  0  0
  3 12  1  0  0  0  0
  4  3  1  0  0  0  0
  4  5  2  0  0  0  0
  6  4  1  0  0  0  0
  7 25  1  0  0  0  0
  7  6  2  0  0  0  0
  8  7  1  0  0  0  0
  9  8  2  0  0  0  0
  9 10  1  0  0  0  0
 10 11  2  0  0  0  0
 11  6  1  0  0  0  0
 11  2  1  0  0  0  0
 12 24  2  0  0  0  0
 12 13  1  0  0  0  0
 13 14  2  0  0  0  0
 14 15  1  0  0  0  0
 14 30  1  0  0  0  0
 15 16  1  0  0  0  0
 16 31  1  0  0  0  0
 16 17  1  0  0  0  0
 17 18  2  0  0  0  0
 17 22  1  0  0  0  0
 18 19  1  0  0  0  0
 19 33  1  0  0  0  0
 19 20  2  0  0  0  0
 20 34  1  0  0  0  0
 21 20  1  0  0  0  0
 21 35  1  0  0  0  0
 22 21  2  0  0  0  0
 23 37  1  0  0  0  0
 23 15  2  0  0  0  0
 24 23  1  0  0  0  0
 26  8  1  0  0  0  0
 27  9  1  0  0  0  0
 28 10  1  0  0  0  0
 29 13  1  0  0  0  0
 32 18  1  0  0  0  0
 36 22  1  0  0  0  0
 38 24  1  0  0  0  0
M  END
$$$$
