rmsd2.gzmat
 OpenBabel08211713403D

 38 41  0  0  0  0  0  0  0  0999 V2000
    0.0000    0.0000    0.0000 O   0  0  0  0  0  0  0  0  0  0  0  0
    1.1974    0.0000    0.0000 C   0  0  0  0  0  0  0  0  0  0  0  0
    2.0097    0.0000    1.1758 N   0  0  0  0  0  0  0  0  0  0  0  0
    3.4012   -0.0002    0.8509 C   0  0  0  0  0  0  0  0  0  0  0  0
    4.2877    0.0078    1.6556 O   0  0  0  0  0  0  0  0  0  0  0  0
    3.4682   -0.0047   -0.6415 C   0  0  0  0  0  0  0  0  0  0  0  0
    4.5576   -0.0055   -1.4793 C   0  0  0  0  0  0  0  0  0  0  0  0
    4.3114   -0.0049   -2.8660 C   0  0  0  0  0  0  0  0  0  0  0  0
    3.0160   -0.0043   -3.3651 C   0  0  0  0  0  0  0  0  0  0  0  0
    1.9034   -0.0045   -2.5018 C   0  0  0  0  0  0  0  0  0  0  0  0
    2.1503   -0.0026   -1.1499 C   0  0  0  0  0  0  0  0  0  0  0  0
    1.4952    0.0014    2.4983 C   0  0  0  0  0  0  0  0  0  0  0  0
    0.3206   -0.7046    2.7886 C   0  0  0  0  0  0  0  0  0  0  0  0
   -0.1860   -0.7030    4.0806 C   0  0  0  0  0  0  0  0  0  0  0  0
    0.4719    0.0121    5.0934 C   0  0  0  0  0  0  0  0  0  0  0  0
    0.0053    0.0558    6.4166 N   0  0  0  0  0  0  0  0  0  0  0  0
   -1.2969   -0.3114    6.7994 C   0  0  0  0  0  0  0  0  0  0  0  0
   -1.4752   -0.9664    8.0308 C   0  0  0  0  0  0  0  0  0  0  0  0
   -2.7602   -1.2784    8.4598 C   0  0  0  0  0  0  0  0  0  0  0  0
   -3.8669   -0.9514    7.6783 C   0  0  0  0  0  0  0  0  0  0  0  0
   -3.6863   -0.2947    6.4613 C   0  0  0  0  0  0  0  0  0  0  0  0
   -2.4111    0.0363    6.0190 C   0  0  0  0  0  0  0  0  0  0  0  0
    1.6619    0.7063    4.7997 C   0  0  0  0  0  0  0  0  0  0  0  0
    2.1669    0.7040    3.5084 C   0  0  0  0  0  0  0  0  0  0  0  0
    5.5759   -0.0045   -1.0907 H   0  0  0  0  0  0  0  0  0  0  0  0
    5.1577   -0.0038   -3.5533 H   0  0  0  0  0  0  0  0  0  0  0  0
    2.8488   -0.0023   -4.4425 H   0  0  0  0  0  0  0  0  0  0  0  0
    0.8869   -0.0068   -2.8957 H   0  0  0  0  0  0  0  0  0  0  0  0
   -0.2007   -1.2574    2.0050 H   0  0  0  0  0  0  0  0  0  0  0  0
   -1.0835   -1.2778    4.3049 H   0  0  0  0  0  0  0  0  0  0  0  0
    0.7026    0.1127    7.1481 H   0  0  0  0  0  0  0  0  0  0  0  0
   -0.6176   -1.2378    8.6381 H   0  0  0  0  0  0  0  0  0  0  0  0
   -2.9009   -1.7867    9.4130 H   0  0  0  0  0  0  0  0  0  0  0  0
   -4.8672   -1.2044    8.0169 H   0  0  0  0  0  0  0  0  0  0  0  0
   -4.5524   -0.0336    5.8533 H   0  0  0  0  0  0  0  0  0  0  0  0
   -2.2773    0.5800    5.0854 H   0  0  0  0  0  0  0  0  0  0  0  0
    2.1812    1.2557    5.5812 H   0  0  0  0  0  0  0  0  0  0  0  0
    3.0884    1.2446    3.2849 H   0  0  0  0  0  0  0  0  0  0  0  0
  1  2  2  0  0  0  0
  2  3  1  0  0  0  0
  3 12  1  0  0  0  0
  4  3  1  0  0  0  0
  4  5  2  0  0  0  0
  6  4  1  0  0  0  0
  7 25  1  0  0  0  0
  7  6  2  0  0  0  0
  8  7  1  0  0  0  0
  9  8  2  0  0  0  0
  9 10  1  0  0  0  0
 10 11  2  0  0  0  0
 11  6  1  0  0  0  0
 11  2  1  0  0  0  0
 12 13  2  0  0  0  0
 12 24  1  0  0  0  0
 13 14  1  0  0  0  0
 14 30  1  0  0  0  0
 14 15  2  0  0  0  0
 15 16  1  0  0  0  0
 16 17  1  0  0  0  0
 16 31  1  0  0  0  0
 17 18  2  0  0  0  0
 18 19  1  0  0  0  0
 18 32  1  0  0  0  0
 19 33  1  0  0  0  0
 20 34  1  0  0  0  0
 20 19  2  0  0  0  0
 21 20  1  0  0  0  0
 22 21  2  0  0  0  0
 22 17  1  0  0  0  0
 23 15  1  0  0  0  0
 23 37  1  0  0  0  0
 24 23  2  0  0  0  0
 26  8  1  0  0  0  0
 27  9  1  0  0  0  0
 28 10  1  0  0  0  0
 29 13  1  0  0  0  0
 35 21  1  0  0  0  0
 36 22  1  0  0  0  0
 38 24  1  0  0  0  0
M  END
$$$$
