38
rmsd37.gzmat
O          0.00000        0.00000        0.00000
C          1.19730        0.00000        0.00000
N          2.00800        0.00000        1.17650
C          3.40040       -0.01300        0.85460
O          4.28500       -0.01510        1.66170
C          3.46970       -0.01650       -0.63640
C          4.56430       -0.02660       -1.46720
C          4.32590       -0.02130       -2.85500
C          3.03260       -0.01020       -3.35980
C          1.91500       -0.00280       -2.50230
C          2.15340       -0.00490       -1.14870
C          1.50710       -0.00330        2.50420
C          0.35510       -0.73360        2.82110
C         -0.10980       -0.75870        4.12930
C          0.56870       -0.04530        5.12960
N          0.17440       -0.06550        6.47550
C         -1.12250       -0.33890        6.93110
C         -1.26600       -0.86710        8.22860
C         -2.53810       -1.11630        8.72870
C         -3.66890       -0.84670        7.95910
C         -3.52320       -0.30500        6.68270
C         -2.26070       -0.04050        6.16450
C          1.72500        0.69060        4.80430
C          2.18690        0.71560        3.49800
H          5.57930       -0.03880       -1.06940
H          5.17640       -0.02690       -3.53710
H          2.87080       -0.00850       -4.43830
H          0.90100        0.00290       -2.90320
H         -0.17830       -1.28670        2.04600
H         -0.98590       -1.35610        4.37760
H          0.89940        0.04810        7.17140
H         -0.39190       -1.08860        8.83260
H         -2.65090       -1.52950        9.73030
H         -4.65910       -1.05420        8.35380
H         -4.40790       -0.08010        6.08640
H         -2.15750        0.41930        5.18360
H          2.25380        1.24670        5.57440
H          3.08190        1.28860        3.24880
