rmsd37.gzmat
 OpenBabel08211713403D

 38 41  0  0  0  0  0  0  0  0999 V2000
    0.0000    0.0000    0.0000 O   0  0  0  0  0  0  0  0  0  0  0  0
    1.1973    0.0000    0.0000 C   0  0  0  0  0  0  0  0  0  0  0  0
    2.0080    0.0000    1.1765 N   0  0  0  0  0  0  0  0  0  0  0  0
    3.4004   -0.0130    0.8546 C   0  0  0  0  0  0  0  0  0  0  0  0
    4.2850   -0.0151    1.6617 O   0  0  0  0  0  0  0  0  0  0  0  0
    3.4697   -0.0165   -0.6364 C   0  0  0  0  0  0  0  0  0  0  0  0
    4.5643   -0.0266   -1.4672 C   0  0  0  0  0  0  0  0  0  0  0  0
    4.3259   -0.0213   -2.8550 C   0  0  0  0  0  0  0  0  0  0  0  0
    3.0326   -0.0102   -3.3598 C   0  0  0  0  0  0  0  0  0  0  0  0
    1.9150   -0.0028   -2.5023 C   0  0  0  0  0  0  0  0  0  0  0  0
    2.1534   -0.0049   -1.1487 C   0  0  0  0  0  0  0  0  0  0  0  0
    1.5071   -0.0033    2.5042 C   0  0  0  0  0  0  0  0  0  0  0  0
    0.3551   -0.7336    2.8211 C   0  0  0  0  0  0  0  0  0  0  0  0
   -0.1098   -0.7587    4.1293 C   0  0  0  0  0  0  0  0  0  0  0  0
    0.5687   -0.0453    5.1296 C   0  0  0  0  0  0  0  0  0  0  0  0
    0.1744   -0.0655    6.4755 N   0  0  0  0  0  0  0  0  0  0  0  0
   -1.1225   -0.3389    6.9311 C   0  0  0  0  0  0  0  0  0  0  0  0
   -1.2660   -0.8671    8.2286 C   0  0  0  0  0  0  0  0  0  0  0  0
   -2.5381   -1.1163    8.7287 C   0  0  0  0  0  0  0  0  0  0  0  0
   -3.6689   -0.8467    7.9591 C   0  0  0  0  0  0  0  0  0  0  0  0
   -3.5232   -0.3050    6.6827 C   0  0  0  0  0  0  0  0  0  0  0  0
   -2.2607   -0.0405    6.1645 C   0  0  0  0  0  0  0  0  0  0  0  0
    1.7250    0.6906    4.8043 C   0  0  0  0  0  0  0  0  0  0  0  0
    2.1869    0.7156    3.4980 C   0  0  0  0  0  0  0  0  0  0  0  0
    5.5793   -0.0388   -1.0694 H   0  0  0  0  0  0  0  0  0  0  0  0
    5.1764   -0.0269   -3.5371 H   0  0  0  0  0  0  0  0  0  0  0  0
    2.8708   -0.0085   -4.4383 H   0  0  0  0  0  0  0  0  0  0  0  0
    0.9010    0.0029   -2.9032 H   0  0  0  0  0  0  0  0  0  0  0  0
   -0.1783   -1.2867    2.0460 H   0  0  0  0  0  0  0  0  0  0  0  0
   -0.9859   -1.3561    4.3776 H   0  0  0  0  0  0  0  0  0  0  0  0
    0.8994    0.0481    7.1714 H   0  0  0  0  0  0  0  0  0  0  0  0
   -0.3919   -1.0886    8.8326 H   0  0  0  0  0  0  0  0  0  0  0  0
   -2.6509   -1.5295    9.7303 H   0  0  0  0  0  0  0  0  0  0  0  0
   -4.6591   -1.0542    8.3538 H   0  0  0  0  0  0  0  0  0  0  0  0
   -4.4079   -0.0801    6.0864 H   0  0  0  0  0  0  0  0  0  0  0  0
   -2.1575    0.4193    5.1836 H   0  0  0  0  0  0  0  0  0  0  0  0
    2.2538    1.2467    5.5744 H   0  0  0  0  0  0  0  0  0  0  0  0
    3.0819    1.2886    3.2488 H   0  0  0  0  0  0  0  0  0  0  0  0
  1  2  2  0  0  0  0
  2  3  1  0  0  0  0
  3 12  1  0  0  0  0
  4  3  1  0  0  0  0
  4  5  2  0  0  0  0
  6  4  1  0  0  0  0
  7 25  1  0  0  0  0
  7  6  2  0  0  0  0
  8  7  1  0  0  0  0
  9  8  2  0  0  0  0
  9 10  1  0  0  0  0
 10 11  2  0  0  0  0
 11  6  1  0  0  0  0
 11  2  1  0  0  0  0
 12 13  2  0  0  0  0
 12 24  1  0  0  0  0
 13 14  1  0  0  0  0
 14 30  1  0  0  0  0
 14 15  2  0  0  0  0
 15 16  1  0  0  0  0
 16 17  1  0  0  0  0
 16 31  1  0  0  0  0
 17 18  2  0  0  0  0
 18 19  1  0  0  0  0
 18 32  1  0  0  0  0
 19 33  1  0  0  0  0
 20 34  1  0  0  0  0
 20 19  2  0  0  0  0
 21 20  1  0  0  0  0
 22 21  2  0  0  0  0
 22 17  1  0  0  0  0
 23 15  1  0  0  0  0
 23 37  1  0  0  0  0
 24 23  2  0  0  0  0
 26  8  1  0  0  0  0
 27  9  1  0  0  0  0
 28 10  1  0  0  0  0
 29 13  1  0  0  0  0
 35 21  1  0  0  0  0
 36 22  1  0  0  0  0
 38 24  1  0  0  0  0
M  END
$$$$
