rmsd30.gzmat
 OpenBabel08211713403D

 38 41  0  0  0  0  0  0  0  0999 V2000
    0.0000    0.0000    0.0000 O   0  0  0  0  0  0  0  0  0  0  0  0
    1.1974    0.0000    0.0000 C   0  0  0  0  0  0  0  0  0  0  0  0
    2.0098    0.0000    1.1767 N   0  0  0  0  0  0  0  0  0  0  0  0
    3.4019   -0.0014    0.8494 C   0  0  0  0  0  0  0  0  0  0  0  0
    4.2896    0.0023    1.6529 O   0  0  0  0  0  0  0  0  0  0  0  0
    3.4678   -0.0059   -0.6423 C   0  0  0  0  0  0  0  0  0  0  0  0
    4.5583   -0.0112   -1.4788 C   0  0  0  0  0  0  0  0  0  0  0  0
    4.3136   -0.0156   -2.8657 C   0  0  0  0  0  0  0  0  0  0  0  0
    3.0183   -0.0150   -3.3657 C   0  0  0  0  0  0  0  0  0  0  0  0
    1.9049   -0.0076   -2.5033 C   0  0  0  0  0  0  0  0  0  0  0  0
    2.1502   -0.0032   -1.1508 C   0  0  0  0  0  0  0  0  0  0  0  0
    1.5010   -0.0063    2.5015 C   0  0  0  0  0  0  0  0  0  0  0  0
    0.3063   -0.6817    2.7863 C   0  0  0  0  0  0  0  0  0  0  0  0
   -0.1856   -0.6975    4.0840 C   0  0  0  0  0  0  0  0  0  0  0  0
    0.5198   -0.0465    5.1106 C   0  0  0  0  0  0  0  0  0  0  0  0
   -0.0252   -0.0358    6.4084 N   0  0  0  0  0  0  0  0  0  0  0  0
    0.7416   -0.1921    7.5738 C   0  0  0  0  0  0  0  0  0  0  0  0
    2.0753   -0.6304    7.5521 C   0  0  0  0  0  0  0  0  0  0  0  0
    2.7776   -0.7502    8.7460 C   0  0  0  0  0  0  0  0  0  0  0  0
    2.1660   -0.4565    9.9633 C   0  0  0  0  0  0  0  0  0  0  0  0
    0.8355   -0.0388    9.9847 C   0  0  0  0  0  0  0  0  0  0  0  0
    0.1172    0.0958    8.8035 C   0  0  0  0  0  0  0  0  0  0  0  0
    1.7042    0.6481    4.8165 C   0  0  0  0  0  0  0  0  0  0  0  0
    2.1936    0.6666    3.5184 C   0  0  0  0  0  0  0  0  0  0  0  0
    5.5763   -0.0124   -1.0878 H   0  0  0  0  0  0  0  0  0  0  0  0
    5.1616   -0.0196   -3.5509 H   0  0  0  0  0  0  0  0  0  0  0  0
    2.8520   -0.0206   -4.4435 H   0  0  0  0  0  0  0  0  0  0  0  0
    0.8886   -0.0054   -2.8983 H   0  0  0  0  0  0  0  0  0  0  0  0
   -0.2418   -1.1957    1.9946 H   0  0  0  0  0  0  0  0  0  0  0  0
   -1.1120   -1.2240    4.3008 H   0  0  0  0  0  0  0  0  0  0  0  0
   -1.0220   -0.1914    6.4895 H   0  0  0  0  0  0  0  0  0  0  0  0
    2.5550   -0.8988    6.6133 H   0  0  0  0  0  0  0  0  0  0  0  0
    3.8147   -1.0852    8.7272 H   0  0  0  0  0  0  0  0  0  0  0  0
    2.7199   -0.5569   10.8916 H   0  0  0  0  0  0  0  0  0  0  0  0
    0.3552    0.1855   10.9368 H   0  0  0  0  0  0  0  0  0  0  0  0
   -0.9144    0.4329    8.8287 H   0  0  0  0  0  0  0  0  0  0  0  0
    2.2286    1.1891    5.6046 H   0  0  0  0  0  0  0  0  0  0  0  0
    3.1171    1.2048    3.2961 H   0  0  0  0  0  0  0  0  0  0  0  0
  1  2  2  0  0  0  0
  2  3  1  0  0  0  0
  3 12  1  0  0  0  0
  4  3  1  0  0  0  0
  4  5  2  0  0  0  0
  6  4  1  0  0  0  0
  7 25  1  0  0  0  0
  7  6  2  0  0  0  0
  8  7  1  0  0  0  0
  9  8  2  0  0  0  0
  9 10  1  0  0  0  0
 10 11  2  0  0  0  0
 11  6  1  0  0  0  0
 11  2  1  0  0  0  0
 12 13  2  0  0  0  0
 12 24  1  0  0  0  0
 13 14  1  0  0  0  0
 14 30  1  0  0  0  0
 14 15  2  0  0  0  0
 15 16  1  0  0  0  0
 16 31  1  0  0  0  0
 16 17  1  0  0  0  0
 17 22  1  0  0  0  0
 18 17  2  0  0  0  0
 18 19  1  0  0  0  0
 19 20  2  0  0  0  0
 20 21  1  0  0  0  0
 20 34  1  0  0  0  0
 21 35  1  0  0  0  0
 22 36  1  0  0  0  0
 22 21  2  0  0  0  0
 23 15  1  0  0  0  0
 23 37  1  0  0  0  0
 24 23  2  0  0  0  0
 26  8  1  0  0  0  0
 27  9  1  0  0  0  0
 28 10  1  0  0  0  0
 29 13  1  0  0  0  0
 32 18  1  0  0  0  0
 33 19  1  0  0  0  0
 38 24  1  0  0  0  0
M  END
$$$$
