65
rmsd169.gzmat
C          0.00000        0.00000        0.00000
C          1.40100        0.00000        0.00000
C          2.10780        0.00000        1.21000
C          1.42540        0.02030        2.42130
C          0.03090        0.03480        2.38830
C         -0.70120        0.02280        1.20070
F         -0.62800        0.05610        3.53550
C          2.11630       -0.00570       -1.25410
C          3.26040        0.66450       -1.61040
C          3.98490        1.67610       -0.82640
N          5.31330        1.50840       -0.70110
C          5.98970        2.45540        0.04060
N          7.31490        2.21600        0.25600
C          8.21580        3.30670        0.69730
H          7.64010        3.97550        1.40390
C          8.67200        4.08990       -0.51470
C          9.49340        3.50140       -1.47730
C          9.88830        4.23100       -2.59590
C          9.46370        5.54940       -2.75530
C          8.64050        6.13600       -1.79610
C          8.24230        5.40700       -0.67710
C          9.39420        2.68480        1.45170
N          5.38830        3.56100        0.60390
C          4.06800        3.68720        0.45380
C          3.29670        2.75280       -0.26240
N          3.74000        0.22240       -2.87180
N          2.66640       -0.54320       -3.45630
C          3.15760       -1.57960       -4.38300
C          2.12080       -1.79460       -5.50540
C          0.98960       -2.74150       -5.13640
N          1.54140       -4.06160       -4.62460
H          2.10600       -4.51360       -5.37080
H          0.75290       -4.69760       -4.38450
C          2.40890       -3.84480       -3.39470
C          3.56620       -2.90770       -3.70750
C          1.72470       -0.82850       -2.39750
O          0.80520       -1.59900       -2.55450
C          4.27430        1.25310       -3.78010
H         -0.54060       -0.02120       -0.94760
H          3.19860       -0.01880        1.20210
H          1.96860        0.02400        3.36610
H         -1.79060        0.03160        1.20760
H          7.74390        1.44110       -0.24190
H          9.83460        2.47570       -1.35670
H         10.53540        3.77260       -3.34160
H          9.77970        6.12100       -3.62700
H          8.30840        7.16630       -1.91840
H          7.59170        5.86830        0.06720
H         10.08970        3.46870        1.78430
H          9.96970        1.98260        0.83920
H          9.05270        2.14490        2.34540
H          3.61260        4.57280        0.92440
H          2.22320        2.86460       -0.36170
H          4.09440       -1.16370       -4.87090
H          2.64420       -2.13460       -6.42220
H          1.68010       -0.80350       -5.78280
H          0.33050       -2.94170       -6.01200
H          0.33610       -2.28340       -4.33860
H          1.76690       -3.43640       -2.56740
H          2.78300       -4.83490       -3.04310
H          4.11430       -2.67280       -2.75950
H          4.32630       -3.41470       -4.33720
H          4.66050        0.79180       -4.70360
H          5.13630        1.73690       -3.27060
H          3.53800        2.02620       -4.05790
