65
rmsd16.gzmat
C          0.00000        0.00000        0.00000
C          1.40130        0.00000        0.00000
C          2.10690        0.00000        1.21040
C          1.42290       -0.01570        2.42100
C          0.02850       -0.02570        2.38760
C         -0.70250       -0.01990        1.19960
F         -0.63020       -0.03680        3.53510
C          2.12240        0.00370       -1.25050
C          1.81880       -0.61760       -2.43490
C          0.71240       -1.55170       -2.69530
N         -0.16030       -1.19930       -3.65470
C         -1.22280       -2.05570       -3.86680
N         -2.16690       -1.63340       -4.75450
C         -3.17080       -2.57940       -5.29610
H         -3.49330       -3.26370       -4.45590
C         -2.54710       -3.38300       -6.41610
C         -2.17860       -2.77390       -7.61620
C         -1.58730       -3.52820       -8.62660
C         -1.36230       -4.89130       -8.43980
C         -1.72780       -5.49900       -7.24020
C         -2.31810       -4.74590       -6.22730
C         -4.38200       -1.77550       -5.77700
N         -1.39510       -3.24570       -3.19130
C         -0.49730       -3.55830       -2.25420
C          0.59920       -2.72970       -1.95290
N          2.69460       -0.20260       -3.47470
N          3.77660        0.49630       -2.82340
C          4.37010        1.53010       -3.69210
C          5.86220        1.70600       -3.34020
C          6.12330        2.63040       -2.16070
N          5.42820        3.96720       -2.35970
H          5.80810        4.43140       -3.20820
H          5.61870        4.58150       -1.54090
C          3.92680        3.78210       -2.51490
C          3.61590        2.87850       -3.69870
C          3.34850        0.77160       -1.47060
O          3.97850        1.49790       -0.73670
C          3.16100       -1.25820       -4.39290
H         -0.54360        0.02130       -0.94580
H          3.19810        0.01500        1.20080
H          1.96550       -0.02140        3.36560
H         -1.79220       -0.02960        1.20550
H         -1.96440       -0.80730       -5.30940
H         -2.35540       -1.71210       -7.77150
H         -1.30590       -3.05320       -9.56490
H         -0.90430       -5.48130       -9.23270
H         -1.55440       -6.56450       -7.09410
H         -2.59420       -5.22300       -5.28570
H         -5.14770       -2.45070       -6.18620
H         -4.13140       -1.05960       -6.56740
H         -4.84280       -1.21560       -4.95210
H         -0.66570       -4.50950       -1.72480
H          1.30700       -2.99030       -1.17560
H          4.32350        1.12780       -4.75240
H          6.40850        2.04810       -4.24300
H          6.29830        0.70090       -3.10970
H          7.21390        2.81010       -2.02340
H          5.75250        2.16220       -1.20320
H          3.51400        3.35920       -1.55920
H          3.45470        4.78420       -2.64430
H          2.51540        2.67280       -3.72640
H          3.81410        3.39980       -4.65800
H          3.81750       -0.83400       -5.17000
H          2.26690       -1.67460       -4.90510
H          3.70370       -2.07780       -3.89050
