rmsd63.gzmat
 OpenBabel08211713363D

 65 69  0  0  1  0  0  0  0  0999 V2000
    0.0000    0.0000    0.0000 C   0  0  0  0  0  0  0  0  0  0  0  0
    1.4022    0.0000    0.0000 C   0  0  0  0  0  0  0  0  0  0  0  0
    2.1039    0.0000    1.2144 C   0  0  0  0  0  0  0  0  0  0  0  0
    1.4168   -0.0180    2.4226 C   0  0  0  0  0  0  0  0  0  0  0  0
    0.0222   -0.0322    2.3875 C   0  0  0  0  0  0  0  0  0  0  0  0
   -0.7056   -0.0196    1.1968 C   0  0  0  0  0  0  0  0  0  0  0  0
   -0.6403   -0.0561    3.5311 F   0  0  0  0  0  0  0  0  0  0  0  0
    2.1267    0.0013   -1.2464 C   0  0  0  0  0  0  0  0  0  0  0  0
    1.7905   -0.4949   -2.4614 C   0  0  0  0  0  0  0  0  0  0  0  0
    0.5594   -1.1313   -2.9386 C   0  0  0  0  0  0  0  0  0  0  0  0
   -0.1173   -0.3967   -3.8578 N   0  0  0  0  0  0  0  0  0  0  0  0
   -1.2967   -0.9450   -4.3236 C   0  0  0  0  0  0  0  0  0  0  0  0
   -1.9930   -0.2059   -5.2236 N   0  0  0  0  0  0  0  0  0  0  0  0
   -3.2787   -0.6679   -5.8041 C   0  0  2  0  0  0  0  0  0  0  0  0
   -3.2068   -1.7846   -5.9646 H   0  0  0  0  0  0  0  0  0  0  0  0
   -3.4480    0.0510   -7.1226 C   0  0  0  0  0  0  0  0  0  0  0  0
   -3.3087   -0.6680   -8.3102 C   0  0  0  0  0  0  0  0  0  0  0  0
   -3.4630   -0.0233   -9.5359 C   0  0  0  0  0  0  0  0  0  0  0  0
   -3.7559    1.3385   -9.5776 C   0  0  0  0  0  0  0  0  0  0  0  0
   -3.8941    2.0569   -8.3908 C   0  0  0  0  0  0  0  0  0  0  0  0
   -3.7386    1.4156   -7.1643 C   0  0  0  0  0  0  0  0  0  0  0  0
   -4.4345   -0.3861   -4.8395 C   0  0  0  0  0  0  0  0  0  0  0  0
   -1.7727   -2.1843   -3.9426 N   0  0  0  0  0  0  0  0  0  0  0  0
   -1.0670   -2.8701   -3.0455 C   0  0  0  0  0  0  0  0  0  0  0  0
    0.1298   -2.3720   -2.4861 C   0  0  0  0  0  0  0  0  0  0  0  0
    2.7728   -0.1742   -3.4841 N   0  0  0  0  0  0  0  0  0  0  0  0
    3.7868    0.6129   -2.8321 N   0  0  0  0  0  0  0  0  0  0  0  0
    4.0183    1.9311   -3.4810 C   0  0  0  0  0  0  0  0  0  0  0  0
    3.0368    3.0486   -3.0571 C   0  0  0  0  0  0  0  0  0  0  0  0
    1.6004    2.8272   -3.5308 C   0  0  0  0  0  0  0  0  0  0  0  0
    1.5536    2.0321   -4.8265 N   0  0  0  0  0  0  0  0  0  0  0  0
    0.6761    2.2283   -5.3376 H   0  0  0  0  0  0  0  0  0  0  0  0
    1.5421    0.9983   -4.5719 H   0  0  0  0  0  0  0  0  0  0  0  0
    2.7603    2.3366   -5.6872 C   0  0  0  0  0  0  0  0  0  0  0  0
    4.0522    1.8448   -5.0202 C   0  0  0  0  0  0  0  0  0  0  0  0
    3.4333    0.7085   -1.4131 C   0  0  0  0  0  0  0  0  0  0  0  0
    4.1230    1.2935   -0.6327 O   0  0  0  0  0  0  0  0  0  0  0  0
    3.3863   -1.3991   -4.0617 C   0  0  0  0  0  0  0  0  0  0  0  0
   -0.5455    0.0189   -0.9423 H   0  0  0  0  0  0  0  0  0  0  0  0
    3.1980    0.0147    1.2137 H   0  0  0  0  0  0  0  0  0  0  0  0
    1.9584   -0.0202    3.3702 H   0  0  0  0  0  0  0  0  0  0  0  0
   -1.7954   -0.0259    1.2013 H   0  0  0  0  0  0  0  0  0  0  0  0
   -1.6917    0.7304   -5.4338 H   0  0  0  0  0  0  0  0  0  0  0  0
   -3.0862   -1.7351   -8.2848 H   0  0  0  0  0  0  0  0  0  0  0  0
   -3.3615   -0.5875  -10.4636 H   0  0  0  0  0  0  0  0  0  0  0  0
   -3.8860    1.8404  -10.5370 H   0  0  0  0  0  0  0  0  0  0  0  0
   -4.1379    3.1184   -8.4231 H   0  0  0  0  0  0  0  0  0  0  0  0
   -3.8681    1.9790   -6.2425 H   0  0  0  0  0  0  0  0  0  0  0  0
   -5.3995   -0.6065   -5.3185 H   0  0  0  0  0  0  0  0  0  0  0  0
   -4.4643    0.6552   -4.5046 H   0  0  0  0  0  0  0  0  0  0  0  0
   -4.3617   -1.0212   -3.9443 H   0  0  0  0  0  0  0  0  0  0  0  0
   -1.4748   -3.8544   -2.7584 H   0  0  0  0  0  0  0  0  0  0  0  0
    0.6778   -2.9335   -1.7355 H   0  0  0  0  0  0  0  0  0  0  0  0
    5.0523    2.2109   -3.1044 H   0  0  0  0  0  0  0  0  0  0  0  0
    3.4288    4.0174   -3.4349 H   0  0  0  0  0  0  0  0  0  0  0  0
    3.0499    3.1726   -1.9493 H   0  0  0  0  0  0  0  0  0  0  0  0
    1.0808    3.8009   -3.6734 H   0  0  0  0  0  0  0  0  0  0  0  0
    1.0159    2.2547   -2.7662 H   0  0  0  0  0  0  0  0  0  0  0  0
    2.6242    1.8420   -6.6776 H   0  0  0  0  0  0  0  0  0  0  0  0
    2.8048    3.4342   -5.8725 H   0  0  0  0  0  0  0  0  0  0  0  0
    4.2890    0.8063   -5.3384 H   0  0  0  0  0  0  0  0  0  0  0  0
    4.9068    2.4464   -5.4014 H   0  0  0  0  0  0  0  0  0  0  0  0
    4.1875   -1.1213   -4.7675 H   0  0  0  0  0  0  0  0  0  0  0  0
    2.6041   -1.9517   -4.6109 H   0  0  0  0  0  0  0  0  0  0  0  0
    3.8360   -2.0676   -3.3050 H   0  0  0  0  0  0  0  0  0  0  0  0
  1  6  1  0  0  0  0
  2  1  2  0  0  0  0
  2  3  1  0  0  0  0
  3  4  2  0  0  0  0
  4 41  1  0  0  0  0
  5  4  1  0  0  0  0
  5  7  1  0  0  0  0
  6 42  1  0  0  0  0
  6  5  2  0  0  0  0
  8  2  1  0  0  0  0
  9  8  2  0  0  0  0
 10 25  1  0  0  0  0
 10  9  1  0  0  0  0
 11 10  2  0  0  0  0
 12 23  2  0  0  0  0
 12 11  2  0  0  0  0
 13 12  1  0  0  0  0
 14 15  1  6  0  0  0
 14 13  1  0  0  0  0
 14 22  1  0  0  0  0
 16 14  1  0  0  0  0
 17 44  1  0  0  0  0
 17 16  2  0  0  0  0
 18 17  1  0  0  0  0
 19 18  2  0  0  0  0
 19 20  1  0  0  0  0
 20 21  2  0  0  0  0
 21 16  1  0  0  0  0
 21 48  1  0  0  0  0
 22 50  1  0  0  0  0
 22 51  1  0  0  0  0
 23 24  2  0  0  0  0
 24 52  1  0  0  0  0
 24 25  1  0  0  0  0
 25 53  1  0  0  0  0
 26 27  1  0  0  0  0
 26  9  1  0  0  0  0
 27 36  1  0  0  0  0
 28 54  1  0  0  0  0
 28 29  1  0  0  0  0
 28 27  1  0  0  0  0
 29 56  1  0  0  0  0
 30 29  1  0  0  0  0
 30 58  1  0  0  0  0
 31 33  1  0  0  0  0
 31 30  1  0  0  0  0
 32 31  1  0  0  0  0
 34 35  1  0  0  0  0
 34 31  1  0  0  0  0
 35 28  1  0  0  0  0
 36  8  1  0  0  0  0
 36 37  2  0  0  0  0
 38 26  1  0  0  0  0
 38 65  1  0  0  0  0
 39  1  1  0  0  0  0
 40  3  1  0  0  0  0
 43 13  1  0  0  0  0
 45 18  1  0  0  0  0
 46 19  1  0  0  0  0
 47 20  1  0  0  0  0
 49 22  1  0  0  0  0
 55 29  1  0  0  0  0
 57 30  1  0  0  0  0
 59 34  1  0  0  0  0
 60 34  1  0  0  0  0
 61 35  1  0  0  0  0
 62 35  1  0  0  0  0
 63 38  1  0  0  0  0
 64 38  1  0  0  0  0
M  RAD  1  25   2
M  END
$$$$
