65
rmsd32.gzmat
C          0.00000        0.00000        0.00000
C          1.40140        0.00000        0.00000
C          2.10800        0.00000        1.20930
C          1.42430       -0.01780        2.42040
C          0.03000       -0.03070        2.38750
C         -0.70180       -0.02050        1.19990
F         -0.62870       -0.04910        3.53490
C          2.11970        0.00700       -1.25270
C          1.85230       -0.67380       -2.41460
C          0.81570       -1.69590       -2.62570
N          0.04760       -1.56440       -3.72120
C         -0.94450       -2.51030       -3.89840
N         -1.77380       -2.31400       -4.95520
C         -2.73640       -3.34390       -5.40720
H         -2.74840       -4.19400       -4.66170
C         -2.28050       -3.84470       -6.76030
C         -2.40890       -3.05330       -7.90240
C         -1.96560       -3.53120       -9.13360
C         -1.39040       -4.79750       -9.22600
C         -1.25940       -5.58690       -8.08480
C         -1.70320       -5.11190       -6.85260
C         -4.13650       -2.72300       -5.45600
N         -1.14540       -3.57960       -3.04860
C         -0.35540       -3.67130       -1.97740
C          0.66100       -2.73630       -1.70610
N          2.68290       -0.22280       -3.47430
N          3.71360        0.57720       -2.85850
C          4.21050        1.63350       -3.76040
C          5.70000        1.90270       -3.46080
C          5.94070        2.85460       -2.29930
N          5.16490        4.14710       -2.49310
H          5.49180        4.62000       -3.35860
H          5.34530        4.78290       -1.68840
C          3.67260        3.87540       -2.59850
C          3.37630        2.93400       -3.75650
C          3.28660        0.85100       -1.50450
O          3.88020        1.63160       -0.79620
C          3.22270       -1.25310       -4.38010
H         -0.54270        0.01880       -0.94590
H          3.19900        0.01500        1.19790
H          1.96690       -0.02240        3.36490
H         -1.79160       -0.02700        1.20740
H         -1.57300       -1.55390       -5.59710
H         -2.86330       -2.06640       -7.84090
H         -2.07490       -2.91640      -10.02610
H         -1.04810       -5.17160      -10.19020
H         -0.81280       -6.57810       -8.15600
H         -1.59920       -5.73390       -5.96330
H         -4.85050       -3.42190       -5.91360
H         -4.16960       -1.79320       -6.03340
H         -4.49950       -2.49270       -4.44500
H         -0.54660       -4.52640       -1.31000
H          1.28230       -2.81970       -0.82230
H          4.15180        1.21620       -4.81430
H          6.19550        2.26470       -4.38450
H          6.20250        0.92830       -3.23310
H          7.02250        3.09830       -2.19640
H          5.62270        2.37820       -1.32720
H          3.31290        3.44860       -1.62340
H          3.14100        4.84730       -2.72950
H          2.29040        2.66200       -3.74120
H          3.50800        3.45140       -4.72950
H          3.81850       -0.78820       -5.18270
H          2.35980       -1.76270       -4.86280
H          3.84950       -2.00630       -3.87260
