rmsd106.gzmat
 OpenBabel08211713363D

 65 69  0  0  1  0  0  0  0  0999 V2000
    0.0000    0.0000    0.0000 C   0  0  0  0  0  0  0  0  0  0  0  0
    1.4005    0.0000    0.0000 C   0  0  0  0  0  0  0  0  0  0  0  0
    2.1057    0.0000    1.2112 C   0  0  0  0  0  0  0  0  0  0  0  0
    1.4228   -0.0178    2.4220 C   0  0  0  0  0  0  0  0  0  0  0  0
    0.0283   -0.0288    2.3886 C   0  0  0  0  0  0  0  0  0  0  0  0
   -0.7022   -0.0186    1.2005 C   0  0  0  0  0  0  0  0  0  0  0  0
   -0.6317   -0.0445    3.5351 F   0  0  0  0  0  0  0  0  0  0  0  0
    2.1245    0.0194   -1.2498 C   0  0  0  0  0  0  0  0  0  0  0  0
    3.2641   -0.6515   -1.6101 C   0  0  0  0  0  0  0  0  0  0  0  0
    4.0004   -1.6317   -0.7956 C   0  0  0  0  0  0  0  0  0  0  0  0
    5.3011   -1.3794   -0.5676 N   0  0  0  0  0  0  0  0  0  0  0  0
    5.9687   -2.2709    0.2533 C   0  0  0  0  0  0  0  0  0  0  0  0
    7.2678   -1.9896    0.5134 N   0  0  0  0  0  0  0  0  0  0  0  0
    8.1103   -2.8750    1.3501 C   0  0  2  0  0  0  0  0  0  0  0  0
    7.4749   -3.2565    2.2036 H   0  0  0  0  0  0  0  0  0  0  0  0
    9.2659   -2.0519    1.8709 C   0  0  0  0  0  0  0  0  0  0  0  0
   10.2244   -1.5315    0.9994 C   0  0  0  0  0  0  0  0  0  0  0  0
   11.2851   -0.7801    1.4998 C   0  0  0  0  0  0  0  0  0  0  0  0
   11.3910   -0.5481    2.8703 C   0  0  0  0  0  0  0  0  0  0  0  0
   10.4342   -1.0673    3.7403 C   0  0  0  0  0  0  0  0  0  0  0  0
    9.3700   -1.8164    3.2422 C   0  0  0  0  0  0  0  0  0  0  0  0
    8.6052   -4.0754    0.5346 C   0  0  0  0  0  0  0  0  0  0  0  0
    5.3799   -3.3889    0.8125 N   0  0  0  0  0  0  0  0  0  0  0  0
    4.0903   -3.6024    0.5467 C   0  0  0  0  0  0  0  0  0  0  0  0
    3.3329   -2.7388   -0.2672 C   0  0  0  0  0  0  0  0  0  0  0  0
    3.6177   -0.3888   -2.9685 N   0  0  0  0  0  0  0  0  0  0  0  0
    2.7696    0.7082   -3.3719 N   0  0  0  0  0  0  0  0  0  0  0  0
    2.5710    0.7957   -4.8254 C   0  0  0  0  0  0  0  0  0  0  0  0
    2.5318    2.2831   -5.2391 C   0  0  0  0  0  0  0  0  0  0  0  0
    1.1822    2.9441   -5.0112 C   0  0  0  0  0  0  0  0  0  0  0  0
    0.0850    2.1659   -5.7186 N   0  0  0  0  0  0  0  0  0  0  0  0
    0.2699    2.1609   -6.7409 H   0  0  0  0  0  0  0  0  0  0  0  0
   -0.8303    2.6350   -5.5566 H   0  0  0  0  0  0  0  0  0  0  0  0
    0.0131    0.7349   -5.2102 C   0  0  0  0  0  0  0  0  0  0  0  0
    1.3491    0.0227   -5.3700 C   0  0  0  0  0  0  0  0  0  0  0  0
    1.7223    0.8348   -2.3996 C   0  0  0  0  0  0  0  0  0  0  0  0
    0.7445    1.5227   -2.5924 O   0  0  0  0  0  0  0  0  0  0  0  0
    5.0485   -0.1121   -3.2151 C   0  0  0  0  0  0  0  0  0  0  0  0
   -0.5407    0.0211   -0.9455 H   0  0  0  0  0  0  0  0  0  0  0  0
    3.1966    0.0216    1.2036 H   0  0  0  0  0  0  0  0  0  0  0  0
    1.9665   -0.0172    3.3669 H   0  0  0  0  0  0  0  0  0  0  0  0
   -1.7909   -0.0207    1.2073 H   0  0  0  0  0  0  0  0  0  0  0  0
    7.6964   -1.1720    0.0952 H   0  0  0  0  0  0  0  0  0  0  0  0
   10.1548   -1.7206   -0.0698 H   0  0  0  0  0  0  0  0  0  0  0  0
   12.0359   -0.3781    0.8213 H   0  0  0  0  0  0  0  0  0  0  0  0
   12.2230    0.0370    3.2611 H   0  0  0  0  0  0  0  0  0  0  0  0
   10.5181   -0.8881    4.8120 H   0  0  0  0  0  0  0  0  0  0  0  0
    8.6243   -2.2169    3.9287 H   0  0  0  0  0  0  0  0  0  0  0  0
    9.3194   -4.6708    1.1197 H   0  0  0  0  0  0  0  0  0  0  0  0
    9.1049   -3.7759   -0.3918 H   0  0  0  0  0  0  0  0  0  0  0  0
    7.7698   -4.7367    0.2648 H   0  0  0  0  0  0  0  0  0  0  0  0
    3.6443   -4.4976    1.0083 H   0  0  0  0  0  0  0  0  0  0  0  0
    2.2834   -2.9217   -0.4589 H   0  0  0  0  0  0  0  0  0  0  0  0
    3.4857    0.3335   -5.3133 H   0  0  0  0  0  0  0  0  0  0  0  0
    2.8532    2.3765   -6.2960 H   0  0  0  0  0  0  0  0  0  0  0  0
    3.3075    2.8403   -4.6556 H   0  0  0  0  0  0  0  0  0  0  0  0
    1.1763    3.9934   -5.3842 H   0  0  0  0  0  0  0  0  0  0  0  0
    0.9454    2.9920   -3.9089 H   0  0  0  0  0  0  0  0  0  0  0  0
   -0.3084    0.7518   -4.1329 H   0  0  0  0  0  0  0  0  0  0  0  0
   -0.7886    0.2000   -5.7711 H   0  0  0  0  0  0  0  0  0  0  0  0
    1.2954   -0.9697   -4.8577 H   0  0  0  0  0  0  0  0  0  0  0  0
    1.5328   -0.2318   -6.4347 H   0  0  0  0  0  0  0  0  0  0  0  0
    5.2170    0.1904   -4.2590 H   0  0  0  0  0  0  0  0  0  0  0  0
    5.6072   -1.0549   -3.0340 H   0  0  0  0  0  0  0  0  0  0  0  0
    5.4711    0.6606   -2.5463 H   0  0  0  0  0  0  0  0  0  0  0  0
  1  2  2  0  0  0  0
  1  6  1  0  0  0  0
  2  3  1  0  0  0  0
  3  4  2  0  0  0  0
  4 41  1  0  0  0  0
  5  4  1  0  0  0  0
  5  7  1  0  0  0  0
  6 42  1  0  0  0  0
  6  5  2  0  0  0  0
  8  2  1  0  0  0  0
  9  8  2  0  0  0  0
  9 10  1  0  0  0  0
 10 11  2  0  0  0  0
 10 25  1  0  0  0  0
 11 12  2  0  0  0  0
 12 13  1  0  0  0  0
 12 23  2  0  0  0  0
 13 14  1  0  0  0  0
 14 16  1  0  0  0  0
 14 15  1  1  0  0  0
 16 21  2  0  0  0  0
 17 18  2  0  0  0  0
 17 16  1  0  0  0  0
 18 19  1  0  0  0  0
 19 46  1  0  0  0  0
 19 20  2  0  0  0  0
 20 47  1  0  0  0  0
 21 20  1  0  0  0  0
 21 48  1  0  0  0  0
 22 49  1  0  0  0  0
 22 14  1  0  0  0  0
 24 23  2  0  0  0  0
 24 52  1  0  0  0  0
 25 24  1  0  0  0  0
 26  9  1  0  0  0  0
 27 26  1  0  0  0  0
 27 36  1  0  0  0  0
 28 27  1  0  0  0  0
 29 30  1  0  0  0  0
 29 28  1  0  0  0  0
 29 56  1  0  0  0  0
 30 58  1  0  0  0  0
 31 33  1  0  0  0  0
 31 34  1  0  0  0  0
 31 30  1  0  0  0  0
 32 31  1  0  0  0  0
 34 59  1  0  0  0  0
 35 34  1  0  0  0  0
 35 61  1  0  0  0  0
 35 28  1  0  0  0  0
 36  8  1  0  0  0  0
 37 36  2  0  0  0  0
 38 64  1  0  0  0  0
 38 26  1  0  0  0  0
 38 65  1  0  0  0  0
 39  1  1  0  0  0  0
 40  3  1  0  0  0  0
 43 13  1  0  0  0  0
 44 17  1  0  0  0  0
 45 18  1  0  0  0  0
 50 22  1  0  0  0  0
 51 22  1  0  0  0  0
 53 25  1  0  0  0  0
 54 28  1  0  0  0  0
 55 29  1  0  0  0  0
 57 30  1  0  0  0  0
 60 34  1  0  0  0  0
 62 35  1  0  0  0  0
 63 38  1  0  0  0  0
M  RAD  1  25   2
M  END
$$$$
