65
rmsd222.gzmat
C          0.00000        0.00000        0.00000
C          1.40200        0.00000        0.00000
C          2.10440        0.00000        1.21420
C          1.41770       -0.01570        2.42260
C          0.02300       -0.03000        2.38770
C         -0.70530       -0.02010        1.19710
F         -0.63940       -0.05150        3.53150
C          2.12790       -0.00520       -1.24570
C          1.79500       -0.51360       -2.45590
C          0.55890       -1.13720       -2.93700
N         -0.13930       -0.35800       -3.80130
C         -1.33440       -0.87810       -4.25820
N         -2.05710       -0.08480       -5.09050
C         -3.38340       -0.49420       -5.61820
H         -3.29740       -1.56730       -5.96150
C         -3.69050        0.42160       -6.78030
C         -3.68000       -0.09270       -8.07700
C         -3.96850        0.73970       -9.15700
C         -4.26390        2.08490       -8.94370
C         -4.26940        2.59980       -7.64820
C         -3.98340        1.77010       -6.56690
C         -4.45610       -0.41220       -4.52820
N         -1.79430       -2.14070       -3.94070
C         -1.06220       -2.87480       -3.10430
C          0.14500       -2.40330       -2.54450
N          2.78540       -0.21410       -3.47800
N          3.79940        0.57670       -2.83050
C          4.05740        1.87680       -3.50460
C          3.08380        3.01660       -3.12490
C          1.65550        2.81680       -3.63260
N          1.62260        1.96820       -4.89340
H          0.75310        2.14490       -5.42600
H          1.60180        0.94710       -4.59340
C          2.84440        2.22790       -5.74700
C          4.12170        1.75300       -5.04030
C          3.43540        0.69940       -1.41670
O          4.11900        1.29910       -0.64180
C          3.39500       -1.45410       -4.02710
H         -0.54550        0.01990       -0.94230
H          3.19850        0.01260        1.21130
H          1.95940       -0.01640        3.37000
H         -1.79500       -0.02880        1.20160
H         -1.77650        0.87400       -5.22090
H         -3.45510       -1.14530       -8.25000
H         -3.96980        0.33490      -10.16970
H         -4.49960        2.73330       -9.78840
H         -4.51280        3.64890       -7.48060
H         -4.01340        2.17160       -5.55600
H         -5.45390       -0.59360       -4.95320
H         -4.48430        0.56230       -4.03130
H         -4.28830       -1.17620       -3.75400
H         -1.45850       -3.87660       -2.86560
H          0.71100       -3.00310       -1.83860
H          5.08810        2.15190       -3.11480
H          3.50270        3.97300       -3.50650
H          3.07080        3.15660       -2.01900
H          1.17080        3.79810       -3.83330
H          1.03100        2.29580       -2.86310
H          2.71930        1.69420       -6.71830
H          2.90080        3.31660       -5.97680
H          4.36480        0.70690       -5.32710
H          4.98450        2.34480       -5.41860
H          4.15130       -1.19320       -4.78670
H          2.60070       -2.05180       -4.50690
H          3.89810       -2.07450       -3.26250
