52

N          0.05650       -0.01610       -0.12710
C          1.36890       -0.37220       -0.23680
O          1.96780       -0.84690        0.71920
C          2.04460       -0.07060       -1.56880
H          3.11500       -0.19220       -1.35700
C          1.78100       -1.11560       -2.70030
H          1.99400       -2.11700       -2.29920
C          0.34230       -1.07990       -3.22830
O          0.07230       -0.41930       -4.22440
N         -0.61870       -1.75620       -2.53790
O         -0.24470       -2.79780       -1.71350
O          2.63050       -0.84610       -3.78320
C          1.79030        1.36690       -2.04690
C          2.10070        2.47060       -1.02220
C          3.52950        2.37880       -0.47610
C          1.82920        3.84500       -1.64110
C         -0.63160       -0.13430        1.13510
H         -0.04120        0.40870        1.89390
C         -2.04090        0.53150        1.07580
C         -2.72510        0.38340        2.44440
C         -1.85310        2.02980        0.77490
C         -2.92930       -0.11080       -0.00400
C         -0.68610       -1.60740        1.56110
O         -1.04410       -2.49100        0.77940
N         -0.37950       -1.85940        2.84770
C         -0.32220       -3.20030        3.39400
H         -0.45770        0.27190       -0.94800
H         -1.49120       -1.90720       -3.04630
H         -0.58830       -2.58470       -0.80540
H          2.06570       -0.40700       -4.44550
H          0.74660        1.47810       -2.38980
H          2.41060        1.52340       -2.94390
H          1.40750        2.34760       -0.17010
H          4.26690        2.41000       -1.29650
H          3.69180        1.45120        0.09270
H          3.74490        3.22300        0.19830
H          2.50240        4.02960       -2.49530
H          1.98730        4.65320       -0.90930
H          0.79410        3.92200       -2.01260
H         -2.93630       -0.66840        2.68680
H         -3.68230        0.92670        2.44660
H         -2.10250        0.80140        3.25230
H         -1.38400        2.20200       -0.20510
H         -1.21980        2.51170        1.53670
H         -2.82830        2.54090        0.77070
H         -2.50580        0.00000       -1.01460
H         -3.91640        0.37700       -0.01050
H         -3.06900       -1.18450        0.17950
H          0.04650       -1.10680        3.37470
H         -0.78080       -3.23030        4.39410
H          0.71810       -3.55960        3.46530
H         -0.87440       -3.86630        2.71970
