
     RDKit          3D

 52 51  0  0  0  0  0  0  0  0999 V2000
    0.1249   -0.2537    0.0705 N   0  0  0  0  0  0  0  0  0  0  0  0
    1.4527   -0.0535    0.0016 C   0  0  0  0  0  0  0  0  0  0  0  0
    2.1494    0.1943    0.9946 O   0  0  0  0  0  0  0  0  0  0  0  0
    2.0748   -0.1131   -1.3848 C   0  0  1  0  0  0  0  0  0  0  0  0
    1.2720   -0.1540   -2.1347 H   0  0  0  0  0  0  0  0  0  0  0  0
    2.8238    1.2237   -1.5979 C   0  0  1  0  0  0  0  0  0  0  0  0
    3.2805    1.2175   -2.6004 H   0  0  0  0  0  0  0  0  0  0  0  0
    1.8068    2.3649   -1.5788 C   0  0  0  0  0  0  0  0  0  0  0  0
    0.7029    2.3266   -2.1323 O   0  0  0  0  0  0  0  0  0  0  0  0
    2.1893    3.4459   -0.8881 N   0  0  0  0  0  0  0  0  0  0  0  0
    1.2891    4.4797   -0.7465 O   0  0  0  0  0  0  0  0  0  0  0  0
    3.8532    1.4262   -0.6593 O   0  0  0  0  0  0  0  0  0  0  0  0
    3.0027   -1.3396   -1.5231 C   0  0  0  0  0  0  0  0  0  0  0  0
    2.9548   -2.0277   -2.8968 C   0  0  0  0  0  0  0  0  0  0  0  0
    3.3262   -1.0972   -4.0562 C   0  0  0  0  0  0  0  0  0  0  0  0
    3.8502   -3.2704   -2.8905 C   0  0  0  0  0  0  0  0  0  0  0  0
   -0.6343   -0.2128    1.3049 C   0  0  1  0  0  0  0  0  0  0  0  0
    0.0998   -0.2501    2.1187 H   0  0  0  0  0  0  0  0  0  0  0  0
   -1.4489    1.1198    1.4573 C   0  0  0  0  0  0  0  0  0  0  0  0
   -2.2740    1.0659    2.7522 C   0  0  0  0  0  0  0  0  0  0  0  0
   -0.4542    2.2892    1.5410 C   0  0  0  0  0  0  0  0  0  0  0  0
   -2.3773    1.3424    0.2526 C   0  0  0  0  0  0  0  0  0  0  0  0
   -1.5279   -1.4594    1.2954 C   0  0  0  0  0  0  0  0  0  0  0  0
   -2.1323   -1.7743    0.2788 O   0  0  0  0  0  0  0  0  0  0  0  0
   -1.6180   -2.1920    2.4376 N   0  0  0  0  0  0  0  0  0  0  0  0
   -0.8413   -2.0522    3.6560 C   0  0  0  0  0  0  0  0  0  0  0  0
   -0.3973   -0.4823   -0.7689 H   0  0  0  0  0  0  0  0  0  0  0  0
    3.0276    3.4919   -0.3218 H   0  0  0  0  0  0  0  0  0  0  0  0
    0.5406    4.1440   -1.2893 H   0  0  0  0  0  0  0  0  0  0  0  0
    3.5126    1.0448    0.1826 H   0  0  0  0  0  0  0  0  0  0  0  0
    2.7323   -2.0860   -0.7588 H   0  0  0  0  0  0  0  0  0  0  0  0
    4.0347   -1.0315   -1.2867 H   0  0  0  0  0  0  0  0  0  0  0  0
    1.9120   -2.3621   -3.0578 H   0  0  0  0  0  0  0  0  0  0  0  0
    4.3412   -0.6857   -3.9225 H   0  0  0  0  0  0  0  0  0  0  0  0
    2.6263   -0.2533   -4.1544 H   0  0  0  0  0  0  0  0  0  0  0  0
    3.3119   -1.6429   -5.0129 H   0  0  0  0  0  0  0  0  0  0  0  0
    4.9057   -2.9897   -2.7344 H   0  0  0  0  0  0  0  0  0  0  0  0
    3.7867   -3.8144   -3.8463 H   0  0  0  0  0  0  0  0  0  0  0  0
    3.5681   -3.9673   -2.0850 H   0  0  0  0  0  0  0  0  0  0  0  0
   -2.9945    0.2336    2.7517 H   0  0  0  0  0  0  0  0  0  0  0  0
   -2.8444    1.9997    2.8720 H   0  0  0  0  0  0  0  0  0  0  0  0
   -1.6249    0.9640    3.6368 H   0  0  0  0  0  0  0  0  0  0  0  0
    0.0698    2.4382    0.5892 H   0  0  0  0  0  0  0  0  0  0  0  0
    0.2992    2.1305    2.3271 H   0  0  0  0  0  0  0  0  0  0  0  0
   -0.9927    3.2244    1.7613 H   0  0  0  0  0  0  0  0  0  0  0  0
   -1.7948    1.4462   -0.6756 H   0  0  0  0  0  0  0  0  0  0  0  0
   -2.9425    2.2777    0.3906 H   0  0  0  0  0  0  0  0  0  0  0  0
   -3.0916    0.5175    0.1250 H   0  0  0  0  0  0  0  0  0  0  0  0
   -2.2266   -2.9996    2.3451 H   0  0  0  0  0  0  0  0  0  0  0  0
    0.2438   -2.0810    3.4641 H   0  0  0  0  0  0  0  0  0  0  0  0
   -1.0853   -2.8914    4.3210 H   0  0  0  0  0  0  0  0  0  0  0  0
   -1.0736   -1.1215    4.1956 H   0  0  0  0  0  0  0  0  0  0  0  0
  1  2  1  0
  1 17  1  0
  1 27  1  0
  2  3  2  0
  2  4  1  0
  4  5  1  6
  4  6  1  0
  4 13  1  0
  6  7  1  6
  6  8  1  0
  6 12  1  0
  8  9  2  0
  8 10  1  0
 10 11  1  0
 10 28  1  0
 11 29  1  0
 12 30  1  0
 13 14  1  0
 13 31  1  0
 13 32  1  0
 14 15  1  0
 14 16  1  0
 14 33  1  0
 15 34  1  0
 15 35  1  0
 15 36  1  0
 16 37  1  0
 16 38  1  0
 16 39  1  0
 17 18  1  1
 17 19  1  0
 17 23  1  0
 19 20  1  0
 19 21  1  0
 19 22  1  0
 20 40  1  0
 20 41  1  0
 20 42  1  0
 21 43  1  0
 21 44  1  0
 21 45  1  0
 22 46  1  0
 22 47  1  0
 22 48  1  0
 23 24  2  0
 23 25  1  0
 25 26  1  0
 25 49  1  0
 26 50  1  0
 26 51  1  0
 26 52  1  0
M  END

