rmsd175.gzmat
 OpenBabel08211713373D

 52 51  0  0  1  0  0  0  0  0999 V2000
    0.0000    0.0000    0.0000 N   0  0  0  0  0  0  0  0  0  0  0  0
    1.3827    0.0000    0.0000 C   0  0  0  0  0  0  0  0  0  0  0  0
    1.9893    0.0000    1.0545 O   0  0  0  0  0  0  0  0  0  0  0  0
    2.0835    0.0543   -1.3452 C   0  0  1  0  0  0  0  0  0  0  0  0
    3.1940    0.0016   -1.1279 H   0  0  0  0  0  0  0  0  0  0  0  0
    1.7780   -1.1740   -2.2285 C   0  0  1  0  0  0  0  0  0  0  0  0
    1.8014   -2.1243   -1.6369 H   0  0  0  0  0  0  0  0  0  0  0  0
    0.4864   -1.0272   -3.0355 C   0  0  0  0  0  0  0  0  0  0  0  0
    0.4212   -0.3195   -4.0172 O   0  0  0  0  0  0  0  0  0  0  0  0
   -0.7006   -1.6055   -2.5463 N   0  0  0  0  0  0  0  0  0  0  0  0
   -0.4771   -2.7761   -1.8188 O   0  0  0  0  0  0  0  0  0  0  0  0
    2.8291   -1.3499   -3.1420 O   0  0  0  0  0  0  0  0  0  0  0  0
    1.8002    1.3870   -2.0466 C   0  0  0  0  0  0  0  0  0  0  0  0
    2.2157    2.6049   -1.1964 C   0  0  0  0  0  0  0  0  0  0  0  0
    3.7178    2.6016   -0.8977 C   0  0  0  0  0  0  0  0  0  0  0  0
    1.8312    3.8896   -1.9411 C   0  0  0  0  0  0  0  0  0  0  0  0
   -0.7054   -0.1495    1.2690 C   0  0  1  0  0  0  0  0  0  0  0  0
   -0.1461    0.4330    2.0542 H   0  0  0  0  0  0  0  0  0  0  0  0
   -2.1628    0.4122    1.1961 C   0  0  0  0  0  0  0  0  0  0  0  0
   -2.8364    0.1616    2.5535 C   0  0  0  0  0  0  0  0  0  0  0  0
   -2.0799    1.9248    0.9440 C   0  0  0  0  0  0  0  0  0  0  0  0
   -2.9813   -0.2520    0.0865 C   0  0  0  0  0  0  0  0  0  0  0  0
   -0.7090   -1.6506    1.6012 C   0  0  0  0  0  0  0  0  0  0  0  0
   -1.0764   -2.4911    0.7857 O   0  0  0  0  0  0  0  0  0  0  0  0
   -0.3177   -2.1007    2.8331 N   0  0  0  0  0  0  0  0  0  0  0  0
    0.3634   -1.2595    3.8163 C   0  0  0  0  0  0  0  0  0  0  0  0
   -0.5338   -0.1664   -0.8436 H   0  0  0  0  0  0  0  0  0  0  0  0
   -1.4508   -1.8035   -3.2018 H   0  0  0  0  0  0  0  0  0  0  0  0
   -0.7258   -2.5446   -0.8547 H   0  0  0  0  0  0  0  0  0  0  0  0
    2.7936   -0.6659   -3.8544 H   0  0  0  0  0  0  0  0  0  0  0  0
    0.7251    1.4759   -2.3023 H   0  0  0  0  0  0  0  0  0  0  0  0
    2.3300    1.4134   -3.0199 H   0  0  0  0  0  0  0  0  0  0  0  0
    1.6604    2.5742   -0.2264 H   0  0  0  0  0  0  0  0  0  0  0  0
    4.3145    2.4829   -1.8073 H   0  0  0  0  0  0  0  0  0  0  0  0
    3.9849    1.7906   -0.2076 H   0  0  0  0  0  0  0  0  0  0  0  0
    4.0286    3.5373   -0.4200 H   0  0  0  0  0  0  0  0  0  0  0  0
    2.3655    3.9764   -2.8936 H   0  0  0  0  0  0  0  0  0  0  0  0
    2.0751    4.7785   -1.3492 H   0  0  0  0  0  0  0  0  0  0  0  0
    0.7585    3.9244   -2.1588 H   0  0  0  0  0  0  0  0  0  0  0  0
   -2.9564   -0.9093    2.7575 H   0  0  0  0  0  0  0  0  0  0  0  0
   -3.8399    0.6029    2.5800 H   0  0  0  0  0  0  0  0  0  0  0  0
   -2.2710    0.6012    3.3805 H   0  0  0  0  0  0  0  0  0  0  0  0
   -1.5389    2.1495    0.0166 H   0  0  0  0  0  0  0  0  0  0  0  0
   -1.5633    2.4467    1.7562 H   0  0  0  0  0  0  0  0  0  0  0  0
   -3.0789    2.3651    0.8536 H   0  0  0  0  0  0  0  0  0  0  0  0
   -2.6199    0.0112   -0.9137 H   0  0  0  0  0  0  0  0  0  0  0  0
   -4.0333    0.0505    0.1347 H   0  0  0  0  0  0  0  0  0  0  0  0
   -2.9614   -1.3491    0.1636 H   0  0  0  0  0  0  0  0  0  0  0  0
   -0.2998   -3.1012    2.9947 H   0  0  0  0  0  0  0  0  0  0  0  0
    1.1887   -0.6775    3.3506 H   0  0  0  0  0  0  0  0  0  0  0  0
    0.8101   -1.8828    4.6098 H   0  0  0  0  0  0  0  0  0  0  0  0
   -0.3435   -0.5580    4.2934 H   0  0  0  0  0  0  0  0  0  0  0  0
  1  2  1  0  0  0  0
  1 17  1  0  0  0  0
  2  3  2  0  0  0  0
  4  5  1  1  0  0  0
  4  2  1  0  0  0  0
  6  7  1  1  0  0  0
  6  4  1  0  0  0  0
  8 10  1  0  0  0  0
  8  6  1  0  0  0  0
  9  8  2  0  0  0  0
 10 11  1  0  0  0  0
 11 29  1  0  0  0  0
 12  6  1  0  0  0  0
 13  4  1  0  0  0  0
 13 14  1  0  0  0  0
 14 15  1  0  0  0  0
 14 33  1  0  0  0  0
 15 36  1  0  0  0  0
 15 35  1  0  0  0  0
 16 38  1  0  0  0  0
 16 14  1  0  0  0  0
 17 23  1  0  0  0  0
 17 18  1  1  0  0  0
 19 17  1  0  0  0  0
 19 20  1  0  0  0  0
 20 41  1  0  0  0  0
 20 40  1  0  0  0  0
 20 42  1  0  0  0  0
 21 19  1  0  0  0  0
 21 44  1  0  0  0  0
 22 47  1  0  0  0  0
 22 48  1  0  0  0  0
 22 19  1  0  0  0  0
 23 25  1  0  0  0  0
 24 23  2  0  0  0  0
 25 49  1  0  0  0  0
 25 26  1  0  0  0  0
 26 52  1  0  0  0  0
 26 51  1  0  0  0  0
 27  1  1  0  0  0  0
 28 10  1  0  0  0  0
 30 12  1  0  0  0  0
 31 13  1  0  0  0  0
 32 13  1  0  0  0  0
 34 15  1  0  0  0  0
 37 16  1  0  0  0  0
 39 16  1  0  0  0  0
 43 21  1  0  0  0  0
 45 21  1  0  0  0  0
 46 22  1  0  0  0  0
 50 26  1  0  0  0  0
M  END
$$$$
