rmsd218.gzmat
 OpenBabel08211713373D

 52 51  0  0  1  0  0  0  0  0999 V2000
    0.0000    0.0000    0.0000 N   0  0  0  0  0  0  0  0  0  0  0  0
    1.3727    0.0000    0.0000 C   0  0  0  0  0  0  0  0  0  0  0  0
    1.9886    0.0000    1.0556 O   0  0  0  0  0  0  0  0  0  0  0  0
    2.0603    0.0704   -1.3517 C   0  0  1  0  0  0  0  0  0  0  0  0
    1.3153    0.0931   -2.1915 H   0  0  0  0  0  0  0  0  0  0  0  0
    2.8394    1.4060   -1.4176 C   0  0  1  0  0  0  0  0  0  0  0  0
    2.2867    2.2320   -0.9058 H   0  0  0  0  0  0  0  0  0  0  0  0
    4.2647    1.2609   -0.8692 C   0  0  0  0  0  0  0  0  0  0  0  0
    5.2241    1.2454   -1.6139 O   0  0  0  0  0  0  0  0  0  0  0  0
    4.3948    1.3303    0.5147 N   0  0  0  0  0  0  0  0  0  0  0  0
    5.6344    0.9179    1.0100 O   0  0  0  0  0  0  0  0  0  0  0  0
    2.8822    1.8224   -2.7552 O   0  0  0  0  0  0  0  0  0  0  0  0
    2.9675   -1.1534   -1.5319 C   0  0  0  0  0  0  0  0  0  0  0  0
    2.2227   -2.3951   -2.0613 C   0  0  0  0  0  0  0  0  0  0  0  0
    3.2571   -3.4239   -2.5395 C   0  0  0  0  0  0  0  0  0  0  0  0
    1.3333   -3.0278   -0.9881 C   0  0  0  0  0  0  0  0  0  0  0  0
   -0.7298   -0.1687    1.2563 C   0  0  1  0  0  0  0  0  0  0  0  0
   -0.0098   -0.0722    2.1179 H   0  0  0  0  0  0  0  0  0  0  0  0
   -1.8461    0.9115    1.4286 C   0  0  0  0  0  0  0  0  0  0  0  0
   -2.6483    0.5756    2.6941 C   0  0  0  0  0  0  0  0  0  0  0  0
   -1.1680    2.2773    1.6063 C   0  0  0  0  0  0  0  0  0  0  0  0
   -2.7837    0.9516    0.2188 C   0  0  0  0  0  0  0  0  0  0  0  0
   -1.3331   -1.5858    1.2019 C   0  0  0  0  0  0  0  0  0  0  0  0
   -1.8614   -2.0148    0.1934 O   0  0  0  0  0  0  0  0  0  0  0  0
   -1.2057   -2.3514    2.3323 N   0  0  0  0  0  0  0  0  0  0  0  0
   -1.6995   -3.7290    2.3474 C   0  0  0  0  0  0  0  0  0  0  0  0
   -0.5507   -0.0882   -0.8464 H   0  0  0  0  0  0  0  0  0  0  0  0
    3.6916    0.8954    1.1203 H   0  0  0  0  0  0  0  0  0  0  0  0
    6.3099    1.5002    0.5394 H   0  0  0  0  0  0  0  0  0  0  0  0
    3.7359    1.5570   -3.1823 H   0  0  0  0  0  0  0  0  0  0  0  0
    3.4781   -1.4031   -0.5793 H   0  0  0  0  0  0  0  0  0  0  0  0
    3.7821   -0.8997   -2.2446 H   0  0  0  0  0  0  0  0  0  0  0  0
    1.5875   -2.0977   -2.9303 H   0  0  0  0  0  0  0  0  0  0  0  0
    3.9003   -3.7558   -1.7169 H   0  0  0  0  0  0  0  0  0  0  0  0
    3.9036   -3.0145   -3.3227 H   0  0  0  0  0  0  0  0  0  0  0  0
    2.7684   -4.3132   -2.9517 H   0  0  0  0  0  0  0  0  0  0  0  0
    1.8697   -3.1645   -0.0432 H   0  0  0  0  0  0  0  0  0  0  0  0
    0.9707   -4.0135   -1.3013 H   0  0  0  0  0  0  0  0  0  0  0  0
    0.4417   -2.4263   -0.7817 H   0  0  0  0  0  0  0  0  0  0  0  0
   -3.2019   -0.3652    2.5879 H   0  0  0  0  0  0  0  0  0  0  0  0
   -3.3904    1.3559    2.9047 H   0  0  0  0  0  0  0  0  0  0  0  0
   -2.0078    0.4964    3.5777 H   0  0  0  0  0  0  0  0  0  0  0  0
   -0.5631    2.5424    0.7310 H   0  0  0  0  0  0  0  0  0  0  0  0
   -0.5037    2.2937    2.4773 H   0  0  0  0  0  0  0  0  0  0  0  0
   -1.9101    3.0707    1.7444 H   0  0  0  0  0  0  0  0  0  0  0  0
   -2.2975    1.3771   -0.6652 H   0  0  0  0  0  0  0  0  0  0  0  0
   -3.6679    1.5653    0.4224 H   0  0  0  0  0  0  0  0  0  0  0  0
   -3.1433   -0.0517   -0.0519 H   0  0  0  0  0  0  0  0  0  0  0  0
   -0.7515   -2.0192    3.1640 H   0  0  0  0  0  0  0  0  0  0  0  0
   -2.0355   -4.0399    1.3369 H   0  0  0  0  0  0  0  0  0  0  0  0
   -2.5606   -3.8259    3.0306 H   0  0  0  0  0  0  0  0  0  0  0  0
   -0.9033   -4.4227    2.6668 H   0  0  0  0  0  0  0  0  0  0  0  0
  1  2  1  0  0  0  0
  1 17  1  0  0  0  0
  2  3  2  0  0  0  0
  4  5  1  6  0  0  0
  4  2  1  0  0  0  0
  6  4  1  0  0  0  0
  6  7  1  1  0  0  0
  6  8  1  0  0  0  0
  8 10  1  0  0  0  0
  9  8  2  0  0  0  0
 10 11  1  0  0  0  0
 10 28  1  0  0  0  0
 12  6  1  0  0  0  0
 13  4  1  0  0  0  0
 13 31  1  0  0  0  0
 14 13  1  0  0  0  0
 14 16  1  0  0  0  0
 15 14  1  0  0  0  0
 15 34  1  0  0  0  0
 16 39  1  0  0  0  0
 16 37  1  0  0  0  0
 17 19  1  0  0  0  0
 17 18  1  1  0  0  0
 19 21  1  0  0  0  0
 19 20  1  0  0  0  0
 20 41  1  0  0  0  0
 20 42  1  0  0  0  0
 21 45  1  0  0  0  0
 21 44  1  0  0  0  0
 22 47  1  0  0  0  0
 22 19  1  0  0  0  0
 23 17  1  0  0  0  0
 23 25  1  0  0  0  0
 24 23  2  0  0  0  0
 25 26  1  0  0  0  0
 25 49  1  0  0  0  0
 26 52  1  0  0  0  0
 26 51  1  0  0  0  0
 27  1  1  0  0  0  0
 29 11  1  0  0  0  0
 30 12  1  0  0  0  0
 32 13  1  0  0  0  0
 33 14  1  0  0  0  0
 35 15  1  0  0  0  0
 36 15  1  0  0  0  0
 38 16  1  0  0  0  0
 40 20  1  0  0  0  0
 43 21  1  0  0  0  0
 46 22  1  0  0  0  0
 48 22  1  0  0  0  0
 50 26  1  0  0  0  0
M  END
$$$$
