rmsd200.gzmat
 OpenBabel08211713373D

 52 51  0  0  1  0  0  0  0  0999 V2000
    0.0000    0.0000    0.0000 N   0  0  0  0  0  0  0  0  0  0  0  0
    1.3836    0.0000    0.0000 C   0  0  0  0  0  0  0  0  0  0  0  0
    1.9915    0.0000    1.0521 O   0  0  0  0  0  0  0  0  0  0  0  0
    2.0785    0.0582   -1.3491 C   0  0  1  0  0  0  0  0  0  0  0  0
    3.1897    0.0024   -1.1374 H   0  0  0  0  0  0  0  0  0  0  0  0
    1.7648   -1.1614   -2.2406 C   0  0  1  0  0  0  0  0  0  0  0  0
    1.7629   -2.1149   -1.6545 H   0  0  0  0  0  0  0  0  0  0  0  0
    0.4872   -0.9811   -3.0632 C   0  0  0  0  0  0  0  0  0  0  0  0
    0.4461   -0.2607   -4.0367 O   0  0  0  0  0  0  0  0  0  0  0  0
   -0.7161   -1.5409   -2.5904 N   0  0  0  0  0  0  0  0  0  0  0  0
   -0.5203   -2.7311   -1.8869 O   0  0  0  0  0  0  0  0  0  0  0  0
    2.8244   -1.3517   -3.1413 O   0  0  0  0  0  0  0  0  0  0  0  0
    1.7904    1.3939   -2.0426 C   0  0  0  0  0  0  0  0  0  0  0  0
    2.3131    2.5995   -1.2370 C   0  0  0  0  0  0  0  0  0  0  0  0
    3.8401    2.5765   -1.1199 C   0  0  0  0  0  0  0  0  0  0  0  0
    1.8580    3.8925   -1.9249 C   0  0  0  0  0  0  0  0  0  0  0  0
   -0.7147   -0.1429    1.2624 C   0  0  1  0  0  0  0  0  0  0  0  0
   -0.1279    0.3805    2.0696 H   0  0  0  0  0  0  0  0  0  0  0  0
   -2.1379    0.5011    1.1951 C   0  0  0  0  0  0  0  0  0  0  0  0
   -2.8447    0.2503    2.5349 C   0  0  0  0  0  0  0  0  0  0  0  0
   -1.9665    2.0126    0.9859 C   0  0  0  0  0  0  0  0  0  0  0  0
   -2.9750   -0.0900    0.0575 C   0  0  0  0  0  0  0  0  0  0  0  0
   -0.8024   -1.6521    1.5615 C   0  0  0  0  0  0  0  0  0  0  0  0
   -1.1341   -2.4721    0.7161 O   0  0  0  0  0  0  0  0  0  0  0  0
   -0.5013   -2.0514    2.8348 N   0  0  0  0  0  0  0  0  0  0  0  0
   -0.4672   -3.4776    3.1657 C   0  0  0  0  0  0  0  0  0  0  0  0
   -0.5322   -0.1669   -0.8454 H   0  0  0  0  0  0  0  0  0  0  0  0
   -1.4678   -1.7092   -3.2521 H   0  0  0  0  0  0  0  0  0  0  0  0
   -0.7604   -2.5114   -0.9181 H   0  0  0  0  0  0  0  0  0  0  0  0
    2.8161   -0.6580   -3.8443 H   0  0  0  0  0  0  0  0  0  0  0  0
    0.7030    1.5173   -2.2189 H   0  0  0  0  0  0  0  0  0  0  0  0
    2.2451    1.3962   -3.0537 H   0  0  0  0  0  0  0  0  0  0  0  0
    1.8762    2.5655   -0.2082 H   0  0  0  0  0  0  0  0  0  0  0  0
    4.3221    2.4783   -2.0975 H   0  0  0  0  0  0  0  0  0  0  0  0
    4.1802    1.7444   -0.4909 H   0  0  0  0  0  0  0  0  0  0  0  0
    4.2145    3.4959   -0.6563 H   0  0  0  0  0  0  0  0  0  0  0  0
    2.2714    3.9755   -2.9362 H   0  0  0  0  0  0  0  0  0  0  0  0
    2.1858    4.7753   -1.3657 H   0  0  0  0  0  0  0  0  0  0  0  0
    0.7673    3.9419   -2.0082 H   0  0  0  0  0  0  0  0  0  0  0  0
   -3.0392   -0.8161    2.7010 H   0  0  0  0  0  0  0  0  0  0  0  0
   -3.8182    0.7553    2.5613 H   0  0  0  0  0  0  0  0  0  0  0  0
   -2.2671    0.6247    3.3851 H   0  0  0  0  0  0  0  0  0  0  0  0
   -1.4162    2.2306    0.0619 H   0  0  0  0  0  0  0  0  0  0  0  0
   -1.4148    2.4781    1.8094 H   0  0  0  0  0  0  0  0  0  0  0  0
   -2.9367    2.5153    0.9151 H   0  0  0  0  0  0  0  0  0  0  0  0
   -2.5939    0.1932   -0.9303 H   0  0  0  0  0  0  0  0  0  0  0  0
   -4.0132    0.2564    0.1079 H   0  0  0  0  0  0  0  0  0  0  0  0
   -3.0005   -1.1884    0.0970 H   0  0  0  0  0  0  0  0  0  0  0  0
   -0.1040   -1.4206    3.5116 H   0  0  0  0  0  0  0  0  0  0  0  0
   -0.8739   -3.6423    4.1768 H   0  0  0  0  0  0  0  0  0  0  0  0
    0.5642   -3.8706    3.1212 H   0  0  0  0  0  0  0  0  0  0  0  0
   -1.0778   -4.0635    2.4493 H   0  0  0  0  0  0  0  0  0  0  0  0
  1  2  1  0  0  0  0
  1 17  1  0  0  0  0
  2  3  2  0  0  0  0
  4  5  1  1  0  0  0
  4  2  1  0  0  0  0
  6  7  1  1  0  0  0
  6  4  1  0  0  0  0
  8 10  1  0  0  0  0
  8  6  1  0  0  0  0
  9  8  2  0  0  0  0
 10 11  1  0  0  0  0
 11 29  1  0  0  0  0
 12  6  1  0  0  0  0
 13  4  1  0  0  0  0
 13 14  1  0  0  0  0
 14 15  1  0  0  0  0
 14 33  1  0  0  0  0
 15 36  1  0  0  0  0
 15 35  1  0  0  0  0
 16 38  1  0  0  0  0
 16 14  1  0  0  0  0
 17 23  1  0  0  0  0
 17 18  1  1  0  0  0
 19 17  1  0  0  0  0
 19 20  1  0  0  0  0
 20 41  1  0  0  0  0
 20 40  1  0  0  0  0
 20 42  1  0  0  0  0
 21 19  1  0  0  0  0
 21 44  1  0  0  0  0
 22 48  1  0  0  0  0
 22 47  1  0  0  0  0
 22 19  1  0  0  0  0
 23 25  1  0  0  0  0
 24 23  2  0  0  0  0
 25 26  1  0  0  0  0
 25 49  1  0  0  0  0
 26 50  1  0  0  0  0
 27  1  1  0  0  0  0
 28 10  1  0  0  0  0
 30 12  1  0  0  0  0
 31 13  1  0  0  0  0
 32 13  1  0  0  0  0
 34 15  1  0  0  0  0
 37 16  1  0  0  0  0
 39 16  1  0  0  0  0
 43 21  1  0  0  0  0
 45 21  1  0  0  0  0
 46 22  1  0  0  0  0
 51 26  1  0  0  0  0
 52 26  1  0  0  0  0
M  END
$$$$
