
     RDKit          3D

 52 51  0  0  0  0  0  0  0  0999 V2000
    0.0390    0.0003   -0.0079 N   0  0  0  0  0  0  0  0  0  0  0  0
    1.3826    0.1349    0.0026 C   0  0  0  0  0  0  0  0  0  0  0  0
    2.0160    0.2883    1.0510 O   0  0  0  0  0  0  0  0  0  0  0  0
    2.0476    0.1314   -1.3787 C   0  0  1  0  0  0  0  0  0  0  0  0
    1.7677    1.0978   -1.8353 H   0  0  0  0  0  0  0  0  0  0  0  0
    3.5883    0.1695   -1.2237 C   0  0  1  0  0  0  0  0  0  0  0  0
    3.9242   -0.8187   -0.8529 H   0  0  0  0  0  0  0  0  0  0  0  0
    4.2489    0.3722   -2.5816 C   0  0  0  0  0  0  0  0  0  0  0  0
    4.2886   -0.4666   -3.4846 O   0  0  0  0  0  0  0  0  0  0  0  0
    4.7575    1.6034   -2.7692 N   0  0  0  0  0  0  0  0  0  0  0  0
    5.4631    1.8307   -3.9332 O   0  0  0  0  0  0  0  0  0  0  0  0
    4.0092    1.2118   -0.3785 O   0  0  0  0  0  0  0  0  0  0  0  0
    1.5684   -1.0276   -2.2916 C   0  0  0  0  0  0  0  0  0  0  0  0
    0.9042   -0.5815   -3.6046 C   0  0  0  0  0  0  0  0  0  0  0  0
    0.7089   -1.7859   -4.5283 C   0  0  0  0  0  0  0  0  0  0  0  0
   -0.4209    0.1530   -3.3714 C   0  0  0  0  0  0  0  0  0  0  0  0
   -0.7678   -0.1197    1.1877 C   0  0  1  0  0  0  0  0  0  0  0  0
   -0.0826   -0.3296    2.0228 H   0  0  0  0  0  0  0  0  0  0  0  0
   -1.5410    1.2018    1.5264 C   0  0  0  0  0  0  0  0  0  0  0  0
   -2.3222    1.0243    2.8378 C   0  0  0  0  0  0  0  0  0  0  0  0
   -0.5088    2.3265    1.7090 C   0  0  0  0  0  0  0  0  0  0  0  0
   -2.5076    1.5714    0.3914 C   0  0  0  0  0  0  0  0  0  0  0  0
   -1.6997   -1.3155    0.9436 C   0  0  0  0  0  0  0  0  0  0  0  0
   -2.1129   -1.5632   -0.1827 O   0  0  0  0  0  0  0  0  0  0  0  0
   -2.0211   -2.0505    2.0373 N   0  0  0  0  0  0  0  0  0  0  0  0
   -2.9216   -3.1844    1.9890 C   0  0  0  0  0  0  0  0  0  0  0  0
   -0.4387   -0.2589   -0.8660 H   0  0  0  0  0  0  0  0  0  0  0  0
    4.9638    2.2260   -1.9954 H   0  0  0  0  0  0  0  0  0  0  0  0
    5.3365    0.9717   -4.3946 H   0  0  0  0  0  0  0  0  0  0  0  0
    3.5035    1.0732    0.4491 H   0  0  0  0  0  0  0  0  0  0  0  0
    0.8739   -1.6888   -1.7464 H   0  0  0  0  0  0  0  0  0  0  0  0
    2.4406   -1.6435   -2.5486 H   0  0  0  0  0  0  0  0  0  0  0  0
    1.6057    0.1117   -4.1019 H   0  0  0  0  0  0  0  0  0  0  0  0
    0.0469   -2.5356   -4.0618 H   0  0  0  0  0  0  0  0  0  0  0  0
    1.6723   -2.2711   -4.7485 H   0  0  0  0  0  0  0  0  0  0  0  0
    0.2516   -1.4868   -5.4849 H   0  0  0  0  0  0  0  0  0  0  0  0
   -1.1581   -0.5039   -2.8761 H   0  0  0  0  0  0  0  0  0  0  0  0
   -0.8649    0.4821   -4.3239 H   0  0  0  0  0  0  0  0  0  0  0  0
   -0.2937    1.0536   -2.7486 H   0  0  0  0  0  0  0  0  0  0  0  0
   -3.1215    0.2744    2.7461 H   0  0  0  0  0  0  0  0  0  0  0  0
   -2.7922    1.9767    3.1279 H   0  0  0  0  0  0  0  0  0  0  0  0
   -1.6556    0.7237    3.6642 H   0  0  0  0  0  0  0  0  0  0  0  0
    0.0429    2.5166    0.7773 H   0  0  0  0  0  0  0  0  0  0  0  0
    0.2276    2.0764    2.4871 H   0  0  0  0  0  0  0  0  0  0  0  0
   -1.0169    3.2607    1.9953 H   0  0  0  0  0  0  0  0  0  0  0  0
   -1.9684    1.7096   -0.5581 H   0  0  0  0  0  0  0  0  0  0  0  0
   -3.0189    2.5183    0.6252 H   0  0  0  0  0  0  0  0  0  0  0  0
   -3.2717    0.7969    0.2320 H   0  0  0  0  0  0  0  0  0  0  0  0
   -1.6119   -1.7884    2.9250 H   0  0  0  0  0  0  0  0  0  0  0  0
   -3.8168   -3.0145    2.6099 H   0  0  0  0  0  0  0  0  0  0  0  0
   -2.4231   -4.1049    2.3337 H   0  0  0  0  0  0  0  0  0  0  0  0
   -3.2324   -3.3180    0.9452 H   0  0  0  0  0  0  0  0  0  0  0  0
  1  2  1  0
  1 17  1  0
  1 27  1  0
  2  3  2  0
  2  4  1  0
  4  5  1  6
  4  6  1  0
  4 13  1  0
  6  7  1  1
  6  8  1  0
  6 12  1  0
  8  9  2  0
  8 10  1  0
 10 11  1  0
 10 28  1  0
 11 29  1  0
 12 30  1  0
 13 14  1  0
 13 31  1  0
 13 32  1  0
 14 15  1  0
 14 16  1  0
 14 33  1  0
 15 34  1  0
 15 35  1  0
 15 36  1  0
 16 37  1  0
 16 38  1  0
 16 39  1  0
 17 18  1  1
 17 19  1  0
 17 23  1  0
 19 20  1  0
 19 21  1  0
 19 22  1  0
 20 40  1  0
 20 41  1  0
 20 42  1  0
 21 43  1  0
 21 44  1  0
 21 45  1  0
 22 46  1  0
 22 47  1  0
 22 48  1  0
 23 24  2  0
 23 25  1  0
 25 26  1  0
 25 49  1  0
 26 50  1  0
 26 51  1  0
 26 52  1  0
M  END

