52

N          0.01810       -0.07250        0.07130
C          1.35880       -0.11480        0.02660
O          2.06210       -0.07840        1.05120
C          2.01650       -0.12540       -1.34290
H          1.24390       -0.12710       -2.12360
C          2.76920        1.22270       -1.46930
H          3.24480        1.26670       -2.46280
C          1.73950        2.35090       -1.44040
O          0.75130        2.39850       -2.17850
N          1.94880        3.28180       -0.49970
O          1.09540        4.36180       -0.44410
O          3.76930        1.38220       -0.49390
C          2.93700       -1.34520       -1.49020
C          3.74350       -1.41360       -2.79560
C          4.59840       -2.68480       -2.80900
C          2.85400       -1.33590       -4.04090
C         -0.73100        0.13050        1.31120
H         -0.05670        0.69810        1.97110
C         -1.99440        0.99700        1.07530
C         -2.70620        1.19020        2.42480
C         -1.54370        2.36860        0.54070
C         -2.95850        0.34630        0.06710
C         -0.95910       -1.24370        1.99170
O         -2.03240       -1.82730        2.00950
N          0.17890       -1.73520        2.54930
C          0.24580       -3.04940        3.14900
H         -0.49550       -0.08600       -0.80200
H          2.81620        3.36920        0.01740
H          0.46740        4.14480       -1.16790
H          3.45380        0.90680        0.30450
H          2.31360       -2.25350       -1.40520
H          3.62910       -1.36360       -0.63480
H          4.43560       -0.55250       -2.80910
H          3.96210       -3.58630       -2.80960
H          5.25220       -2.73770       -1.92400
H          5.23730       -2.72660       -3.70520
H          2.10370       -2.14550       -4.03690
H          3.45260       -1.44360       -4.95900
H          2.31280       -0.37960       -4.11400
H         -3.08600        0.23710        2.81530
H         -3.55560        1.88060        2.30520
H         -2.02330        1.62950        3.17090
H         -1.04920        2.28940       -0.43800
H         -0.83980        2.86340        1.22840
H         -2.41710        3.02880        0.42130
H         -2.51040        0.26120       -0.93830
H         -3.85460        0.97580       -0.04900
H         -3.26300       -0.65190        0.40480
H          1.03860       -1.20820        2.39690
H         -0.77330       -3.45410        3.19710
H          0.66010       -2.99890        4.16920
H          0.87180       -3.73730        2.55450
