
     RDKit          3D

 52 51  0  0  0  0  0  0  0  0999 V2000
    0.0565   -0.0161   -0.1271 N   0  0  0  0  0  0  0  0  0  0  0  0
    1.3689   -0.3722   -0.2368 C   0  0  0  0  0  0  0  0  0  0  0  0
    1.9678   -0.8469    0.7192 O   0  0  0  0  0  0  0  0  0  0  0  0
    2.0446   -0.0706   -1.5688 C   0  0  1  0  0  0  0  0  0  0  0  0
    3.1150   -0.1922   -1.3570 H   0  0  0  0  0  0  0  0  0  0  0  0
    1.7810   -1.1156   -2.7003 C   0  0  1  0  0  0  0  0  0  0  0  0
    1.9940   -2.1170   -2.2992 H   0  0  0  0  0  0  0  0  0  0  0  0
    0.3423   -1.0799   -3.2283 C   0  0  0  0  0  0  0  0  0  0  0  0
    0.0723   -0.4193   -4.2244 O   0  0  0  0  0  0  0  0  0  0  0  0
   -0.6187   -1.7562   -2.5379 N   0  0  0  0  0  0  0  0  0  0  0  0
   -0.2447   -2.7978   -1.7135 O   0  0  0  0  0  0  0  0  0  0  0  0
    2.6305   -0.8461   -3.7832 O   0  0  0  0  0  0  0  0  0  0  0  0
    1.7903    1.3669   -2.0469 C   0  0  0  0  0  0  0  0  0  0  0  0
    2.1007    2.4706   -1.0222 C   0  0  0  0  0  0  0  0  0  0  0  0
    3.5295    2.3788   -0.4761 C   0  0  0  0  0  0  0  0  0  0  0  0
    1.8292    3.8450   -1.6411 C   0  0  0  0  0  0  0  0  0  0  0  0
   -0.6316   -0.1343    1.1351 C   0  0  1  0  0  0  0  0  0  0  0  0
   -0.0412    0.4087    1.8939 H   0  0  0  0  0  0  0  0  0  0  0  0
   -2.0409    0.5315    1.0758 C   0  0  0  0  0  0  0  0  0  0  0  0
   -2.7251    0.3834    2.4444 C   0  0  0  0  0  0  0  0  0  0  0  0
   -1.8531    2.0298    0.7749 C   0  0  0  0  0  0  0  0  0  0  0  0
   -2.9293   -0.1108   -0.0040 C   0  0  0  0  0  0  0  0  0  0  0  0
   -0.6861   -1.6074    1.5611 C   0  0  0  0  0  0  0  0  0  0  0  0
   -1.0441   -2.4910    0.7794 O   0  0  0  0  0  0  0  0  0  0  0  0
   -0.3795   -1.8594    2.8477 N   0  0  0  0  0  0  0  0  0  0  0  0
   -0.3222   -3.2003    3.3940 C   0  0  0  0  0  0  0  0  0  0  0  0
   -0.4577    0.2719   -0.9480 H   0  0  0  0  0  0  0  0  0  0  0  0
   -1.4912   -1.9072   -3.0463 H   0  0  0  0  0  0  0  0  0  0  0  0
   -0.5883   -2.5847   -0.8054 H   0  0  0  0  0  0  0  0  0  0  0  0
    2.0657   -0.4070   -4.4455 H   0  0  0  0  0  0  0  0  0  0  0  0
    0.7466    1.4781   -2.3898 H   0  0  0  0  0  0  0  0  0  0  0  0
    2.4106    1.5234   -2.9439 H   0  0  0  0  0  0  0  0  0  0  0  0
    1.4075    2.3476   -0.1701 H   0  0  0  0  0  0  0  0  0  0  0  0
    4.2669    2.4100   -1.2965 H   0  0  0  0  0  0  0  0  0  0  0  0
    3.6918    1.4512    0.0927 H   0  0  0  0  0  0  0  0  0  0  0  0
    3.7449    3.2230    0.1983 H   0  0  0  0  0  0  0  0  0  0  0  0
    2.5024    4.0296   -2.4953 H   0  0  0  0  0  0  0  0  0  0  0  0
    1.9873    4.6532   -0.9093 H   0  0  0  0  0  0  0  0  0  0  0  0
    0.7941    3.9220   -2.0126 H   0  0  0  0  0  0  0  0  0  0  0  0
   -2.9363   -0.6684    2.6868 H   0  0  0  0  0  0  0  0  0  0  0  0
   -3.6823    0.9267    2.4466 H   0  0  0  0  0  0  0  0  0  0  0  0
   -2.1025    0.8014    3.2523 H   0  0  0  0  0  0  0  0  0  0  0  0
   -1.3840    2.2020   -0.2051 H   0  0  0  0  0  0  0  0  0  0  0  0
   -1.2198    2.5117    1.5367 H   0  0  0  0  0  0  0  0  0  0  0  0
   -2.8283    2.5409    0.7707 H   0  0  0  0  0  0  0  0  0  0  0  0
   -2.5058    0.0000   -1.0146 H   0  0  0  0  0  0  0  0  0  0  0  0
   -3.9164    0.3770   -0.0105 H   0  0  0  0  0  0  0  0  0  0  0  0
   -3.0690   -1.1845    0.1795 H   0  0  0  0  0  0  0  0  0  0  0  0
    0.0465   -1.1068    3.3747 H   0  0  0  0  0  0  0  0  0  0  0  0
   -0.7808   -3.2303    4.3941 H   0  0  0  0  0  0  0  0  0  0  0  0
    0.7181   -3.5596    3.4653 H   0  0  0  0  0  0  0  0  0  0  0  0
   -0.8744   -3.8663    2.7197 H   0  0  0  0  0  0  0  0  0  0  0  0
  1  2  1  0
  1 17  1  0
  1 27  1  0
  2  3  2  0
  2  4  1  0
  4  5  1  1
  4  6  1  0
  4 13  1  0
  6  7  1  1
  6  8  1  0
  6 12  1  0
  8  9  2  0
  8 10  1  0
 10 11  1  0
 10 28  1  0
 11 29  1  0
 12 30  1  0
 13 14  1  0
 13 31  1  0
 13 32  1  0
 14 15  1  0
 14 16  1  0
 14 33  1  0
 15 34  1  0
 15 35  1  0
 15 36  1  0
 16 37  1  0
 16 38  1  0
 16 39  1  0
 17 18  1  1
 17 19  1  0
 17 23  1  0
 19 20  1  0
 19 21  1  0
 19 22  1  0
 20 40  1  0
 20 41  1  0
 20 42  1  0
 21 43  1  0
 21 44  1  0
 21 45  1  0
 22 46  1  0
 22 47  1  0
 22 48  1  0
 23 24  2  0
 23 25  1  0
 25 26  1  0
 25 49  1  0
 26 50  1  0
 26 51  1  0
 26 52  1  0
M  END

