52

N          0.05410       -0.05360       -0.06230
C          1.39250       -0.30160       -0.12430
O          2.01950       -0.62420        0.87860
C          2.06980       -0.05720       -1.46720
H          3.14160       -0.12650       -1.24040
C          1.86380       -1.16700       -2.54760
H          2.07830       -2.14210       -2.08670
C          0.44690       -1.18710       -3.13180
O          0.20500       -0.59080       -4.17280
N         -0.53570       -1.83440       -2.43580
O         -0.17320       -2.85100       -1.57230
O          2.75050       -0.93920       -3.61020
C          1.76590        1.34490       -2.01770
C          2.02350        2.50650       -1.04380
C          3.45050        2.49950       -0.48540
C          1.69990        3.83820       -1.72750
C         -0.64550       -0.15550        1.19840
H         -0.07280        0.42790        1.93110
C         -2.06720        0.48070        1.11520
C         -2.75370        0.34240        2.48400
C         -1.90050        1.97520        0.78740
C         -2.94110       -0.19090        0.04180
C         -0.67700       -1.62210        1.64750
O         -1.07200       -2.50710        0.88120
N         -0.30240       -1.91810        2.90750
C          0.45200       -1.06810        3.81690
H         -0.47940        0.03240       -0.91800
H         -1.38030       -2.02580       -2.97780
H         -0.56670       -2.63170       -0.68610
H          2.20670       -0.54620       -4.31710
H          0.72070        1.39860       -2.36830
H          2.38760        1.48270       -2.91700
H          1.32870        2.39400       -0.19150
H          4.19270        2.52210       -1.30160
H          3.64440        1.60750        0.12850
H          3.62560        3.38310        0.14910
H          2.37140        4.01150       -2.58550
H          1.81900        4.68510       -1.03300
H          0.66540        3.85480       -2.10770
H         -2.91710       -0.71070        2.75740
H         -3.73570        0.83910        2.46550
H         -2.15750        0.81570        3.28060
H         -1.42010        2.12980       -0.18990
H         -1.28370        2.48220        1.54640
H         -2.88330        2.47100        0.76140
H         -2.51510       -0.08640       -0.96890
H         -3.93360        0.28550        0.02230
H         -3.06820       -1.26310        0.24050
H         -0.33400       -2.91460        3.10390
H          1.33980       -0.65820        3.31170
H          0.78050       -1.67920        4.66780
H         -0.16090       -0.24480        4.21550
