
     RDKit          3D

 52 51  0  0  0  0  0  0  0  0999 V2000
   -0.0106   -0.2783   -0.0040 N   0  0  0  0  0  0  0  0  0  0  0  0
    1.3331   -0.1494   -0.0221 C   0  0  0  0  0  0  0  0  0  0  0  0
    1.9895   -0.0389    1.0184 O   0  0  0  0  0  0  0  0  0  0  0  0
    1.9743   -0.0968   -1.4010 C   0  0  1  0  0  0  0  0  0  0  0  0
    1.1925   -0.2686   -2.1577 H   0  0  0  0  0  0  0  0  0  0  0  0
    2.4816    1.3379   -1.7174 C   0  0  1  0  0  0  0  0  0  0  0  0
    1.7461    2.0646   -1.3137 H   0  0  0  0  0  0  0  0  0  0  0  0
    3.8560    1.6878   -1.1142 C   0  0  0  0  0  0  0  0  0  0  0  0
    4.7394    2.1511   -1.8494 O   0  0  0  0  0  0  0  0  0  0  0  0
    4.0526    1.5218    0.1932 N   0  0  0  0  0  0  0  0  0  0  0  0
    5.3155    1.7883    0.6908 O   0  0  0  0  0  0  0  0  0  0  0  0
    2.5958    1.4735   -3.1022 O   0  0  0  0  0  0  0  0  0  0  0  0
    3.0877   -1.1369   -1.5935 C   0  0  0  0  0  0  0  0  0  0  0  0
    2.6304   -2.5727   -1.8917 C   0  0  0  0  0  0  0  0  0  0  0  0
    3.8527   -3.4480   -2.1879 C   0  0  0  0  0  0  0  0  0  0  0  0
    1.7844   -3.1851   -0.7683 C   0  0  0  0  0  0  0  0  0  0  0  0
   -0.7691   -0.4622    1.2169 C   0  0  1  0  0  0  0  0  0  0  0  0
   -0.0430   -0.6781    2.0149 H   0  0  0  0  0  0  0  0  0  0  0  0
   -1.5614    0.8265    1.6282 C   0  0  0  0  0  0  0  0  0  0  0  0
   -2.2894    0.5873    2.9603 C   0  0  0  0  0  0  0  0  0  0  0  0
   -0.5507    1.9706    1.8125 C   0  0  0  0  0  0  0  0  0  0  0  0
   -2.5777    1.2069    0.5414 C   0  0  0  0  0  0  0  0  0  0  0  0
   -1.6710   -1.6808    0.9722 C   0  0  0  0  0  0  0  0  0  0  0  0
   -2.0958   -1.9231   -0.1505 O   0  0  0  0  0  0  0  0  0  0  0  0
   -1.9489   -2.4412    2.0600 N   0  0  0  0  0  0  0  0  0  0  0  0
   -2.8089   -3.6061    2.0085 C   0  0  0  0  0  0  0  0  0  0  0  0
   -0.5054   -0.5355   -0.8542 H   0  0  0  0  0  0  0  0  0  0  0  0
    3.4448    0.9314    0.7825 H   0  0  0  0  0  0  0  0  0  0  0  0
    5.7830    2.0969   -0.1139 H   0  0  0  0  0  0  0  0  0  0  0  0
    3.4778    1.8766   -3.2385 H   0  0  0  0  0  0  0  0  0  0  0  0
    3.7359   -1.1398   -0.7017 H   0  0  0  0  0  0  0  0  0  0  0  0
    3.7030   -0.7862   -2.4367 H   0  0  0  0  0  0  0  0  0  0  0  0
    2.0082   -2.5389   -2.8059 H   0  0  0  0  0  0  0  0  0  0  0  0
    4.5018   -3.5242   -1.2989 H   0  0  0  0  0  0  0  0  0  0  0  0
    4.4583   -3.0295   -3.0074 H   0  0  0  0  0  0  0  0  0  0  0  0
    3.5546   -4.4694   -2.4727 H   0  0  0  0  0  0  0  0  0  0  0  0
    2.3050   -3.1096    0.2011 H   0  0  0  0  0  0  0  0  0  0  0  0
    1.5893   -4.2513   -0.9646 H   0  0  0  0  0  0  0  0  0  0  0  0
    0.8063   -2.6946   -0.6659 H   0  0  0  0  0  0  0  0  0  0  0  0
   -3.0767   -0.1755    2.8716 H   0  0  0  0  0  0  0  0  0  0  0  0
   -2.7666    1.5193    3.3000 H   0  0  0  0  0  0  0  0  0  0  0  0
   -1.5866    0.2733    3.7509 H   0  0  0  0  0  0  0  0  0  0  0  0
   -0.0338    2.2028    0.8704 H   0  0  0  0  0  0  0  0  0  0  0  0
    0.2154    1.7159    2.5598 H   0  0  0  0  0  0  0  0  0  0  0  0
   -1.0710    2.8832    2.1429 H   0  0  0  0  0  0  0  0  0  0  0  0
   -2.0756    1.4015   -0.4185 H   0  0  0  0  0  0  0  0  0  0  0  0
   -3.1121    2.1257    0.8291 H   0  0  0  0  0  0  0  0  0  0  0  0
   -3.3210    0.4132    0.3768 H   0  0  0  0  0  0  0  0  0  0  0  0
   -1.5260   -2.1844    2.9428 H   0  0  0  0  0  0  0  0  0  0  0  0
   -3.1451   -3.7257    0.9709 H   0  0  0  0  0  0  0  0  0  0  0  0
   -3.6905   -3.4841    2.6592 H   0  0  0  0  0  0  0  0  0  0  0  0
   -2.2675   -4.5158    2.3149 H   0  0  0  0  0  0  0  0  0  0  0  0
  1  2  1  0
  1 17  1  0
  1 27  1  0
  2  3  2  0
  2  4  1  0
  4  5  1  6
  4  6  1  0
  4 13  1  0
  6  7  1  1
  6  8  1  0
  6 12  1  0
  8  9  2  0
  8 10  1  0
 10 11  1  0
 10 28  1  0
 11 29  1  0
 12 30  1  0
 13 14  1  0
 13 31  1  0
 13 32  1  0
 14 15  1  0
 14 16  1  0
 14 33  1  0
 15 34  1  0
 15 35  1  0
 15 36  1  0
 16 37  1  0
 16 38  1  0
 16 39  1  0
 17 18  1  1
 17 19  1  0
 17 23  1  0
 19 20  1  0
 19 21  1  0
 19 22  1  0
 20 40  1  0
 20 41  1  0
 20 42  1  0
 21 43  1  0
 21 44  1  0
 21 45  1  0
 22 46  1  0
 22 47  1  0
 22 48  1  0
 23 24  2  0
 23 25  1  0
 25 26  1  0
 25 49  1  0
 26 50  1  0
 26 51  1  0
 26 52  1  0
M  END

