52
rmsd223.gzmat
N          0.00000        0.00000        0.00000
C          1.36290        0.00000        0.00000
O          1.99480        0.00000        1.05620
C          2.08600        0.02660       -1.33870
H          1.36270        0.05150       -2.19420
C          2.93310        1.31340       -1.37440
H          3.58160        1.36060       -2.28310
C          1.98760        2.52680       -1.33670
O          0.85820        2.49110       -1.78450
N          2.56870        3.71120       -0.91380
O          1.68570        4.73220       -0.55660
O          3.82670        1.41930       -0.30360
C          2.96020       -1.22900       -1.43690
C          3.56150       -1.42810       -2.84110
C          4.60930       -2.54740       -2.78500
C          2.47780       -1.77760       -3.86620
C         -0.73560        0.13900        1.26290
H         -0.10980        0.73770        1.98910
C         -2.07620        0.91200        1.06180
C         -2.79670        0.96960        2.41650
C         -1.74220        2.34300        0.61000
C         -2.98230        0.24230        0.02500
C         -0.92590       -1.28070        1.84790
O         -1.96150       -1.91060        1.80050
N          0.19330       -1.76400        2.48250
C          0.21060       -3.12410        3.01660
H         -0.54120        0.05590       -0.85450
H          3.32060        3.73650       -0.23620
H          1.03600        4.79950       -1.32660
H          3.46970        0.93560        0.49550
H          2.36950       -2.12350       -1.15590
H          3.77760       -1.16850       -0.68630
H          4.07030       -0.48590       -3.15940
H          4.16740       -3.49920       -2.47130
H          5.41470       -2.30850       -2.08130
H          5.07100       -2.70970       -3.76490
H          1.91820       -2.67240       -3.57240
H          2.91620       -1.97850       -4.85030
H          1.75910       -0.96150       -3.99600
H         -3.11390       -0.03140        2.74330
H         -3.70090        1.58520        2.35400
H         -2.16530        1.39270        3.20330
H         -1.16630        2.36280       -0.32430
H         -1.15610        2.88130        1.36210
H         -2.65660        2.91990        0.43390
H         -2.57130        0.28060       -0.98650
H         -3.96390        0.72980       -0.00930
H         -3.16420       -0.81450        0.27810
H          1.08230       -1.28040        2.40000
H         -0.81070       -3.55440        3.03740
H          0.59550       -3.11630        4.05120
H          0.84390       -3.78650        2.40240
