
     RDKit          3D

 52 51  0  0  0  0  0  0  0  0999 V2000
   -0.0940   -0.1743    0.0868 N   0  0  0  0  0  0  0  0  0  0  0  0
    1.2250   -0.4338    0.0040 C   0  0  0  0  0  0  0  0  0  0  0  0
    1.8777   -0.7833    0.9999 O   0  0  0  0  0  0  0  0  0  0  0  0
    1.8648   -0.2302   -1.3577 C   0  0  1  0  0  0  0  0  0  0  0  0
    1.0764    0.0462   -2.0730 H   0  0  0  0  0  0  0  0  0  0  0  0
    2.7914    1.0196   -1.3548 C   0  0  1  0  0  0  0  0  0  0  0  0
    2.3182    1.8021   -0.7259 H   0  0  0  0  0  0  0  0  0  0  0  0
    4.2084    0.7752   -0.8016 C   0  0  0  0  0  0  0  0  0  0  0  0
    5.1893    1.1078   -1.4799 O   0  0  0  0  0  0  0  0  0  0  0  0
    4.3459    0.2474    0.4149 N   0  0  0  0  0  0  0  0  0  0  0  0
    5.6274   -0.0215    0.8600 O   0  0  0  0  0  0  0  0  0  0  0  0
    2.9340    1.4652   -2.6696 O   0  0  0  0  0  0  0  0  0  0  0  0
    2.6044   -1.4698   -1.8841 C   0  0  0  0  0  0  0  0  0  0  0  0
    1.7374   -2.6473   -2.3670 C   0  0  0  0  0  0  0  0  0  0  0  0
    0.9969   -3.3603   -1.2295 C   0  0  0  0  0  0  0  0  0  0  0  0
    0.7750   -2.2510   -3.4916 C   0  0  0  0  0  0  0  0  0  0  0  0
   -0.8460   -0.2367    1.3383 C   0  0  1  0  0  0  0  0  0  0  0  0
   -0.1171   -0.0063    2.1295 H   0  0  0  0  0  0  0  0  0  0  0  0
   -1.9562    0.8442    1.3893 C   0  0  0  0  0  0  0  0  0  0  0  0
   -2.7088    0.7076    2.7236 C   0  0  0  0  0  0  0  0  0  0  0  0
   -1.2803    2.2259    1.3342 C   0  0  0  0  0  0  0  0  0  0  0  0
   -2.9465    0.7074    0.2187 C   0  0  0  0  0  0  0  0  0  0  0  0
   -1.3109   -1.6967    1.5710 C   0  0  0  0  0  0  0  0  0  0  0  0
   -2.4506   -2.0873    1.3669 O   0  0  0  0  0  0  0  0  0  0  0  0
   -0.3016   -2.4984    2.0013 N   0  0  0  0  0  0  0  0  0  0  0  0
   -0.4663   -3.9247    2.1797 C   0  0  0  0  0  0  0  0  0  0  0  0
   -0.6047    0.0263   -0.7647 H   0  0  0  0  0  0  0  0  0  0  0  0
    3.5861   -0.2498    0.9007 H   0  0  0  0  0  0  0  0  0  0  0  0
    6.1708    0.3193    0.1187 H   0  0  0  0  0  0  0  0  0  0  0  0
    3.8978    1.5964   -2.7840 H   0  0  0  0  0  0  0  0  0  0  0  0
    3.2944   -1.8293   -1.1049 H   0  0  0  0  0  0  0  0  0  0  0  0
    3.2236   -1.1200   -2.7251 H   0  0  0  0  0  0  0  0  0  0  0  0
    2.4531   -3.3738   -2.7922 H   0  0  0  0  0  0  0  0  0  0  0  0
    0.1821   -2.7443   -0.8201 H   0  0  0  0  0  0  0  0  0  0  0  0
    1.6769   -3.6068   -0.3995 H   0  0  0  0  0  0  0  0  0  0  0  0
    0.5409   -4.2971   -1.5867 H   0  0  0  0  0  0  0  0  0  0  0  0
   -0.0328   -1.5953   -3.1252 H   0  0  0  0  0  0  0  0  0  0  0  0
    0.2912   -3.1400   -3.9256 H   0  0  0  0  0  0  0  0  0  0  0  0
    1.2961   -1.7167   -4.3018 H   0  0  0  0  0  0  0  0  0  0  0  0
   -3.2604   -0.2401    2.7737 H   0  0  0  0  0  0  0  0  0  0  0  0
   -3.4269    1.5345    2.8367 H   0  0  0  0  0  0  0  0  0  0  0  0
   -2.0114    0.7529    3.5766 H   0  0  0  0  0  0  0  0  0  0  0  0
   -0.7034    2.3629    0.4066 H   0  0  0  0  0  0  0  0  0  0  0  0
   -0.5920    2.3679    2.1830 H   0  0  0  0  0  0  0  0  0  0  0  0
   -2.0387    3.0227    1.3771 H   0  0  0  0  0  0  0  0  0  0  0  0
   -2.4642    0.8945   -0.7569 H   0  0  0  0  0  0  0  0  0  0  0  0
   -3.7443    1.4600    0.3157 H   0  0  0  0  0  0  0  0  0  0  0  0
   -3.3984   -0.2921    0.2055 H   0  0  0  0  0  0  0  0  0  0  0  0
    0.6345   -2.0963    2.0218 H   0  0  0  0  0  0  0  0  0  0  0  0
   -0.0661   -4.2458    3.1544 H   0  0  0  0  0  0  0  0  0  0  0  0
    0.0439   -4.4972    1.3862 H   0  0  0  0  0  0  0  0  0  0  0  0
   -1.5391   -4.1519    2.1385 H   0  0  0  0  0  0  0  0  0  0  0  0
  1  2  1  0
  1 17  1  0
  1 27  1  0
  2  3  2  0
  2  4  1  0
  4  5  1  6
  4  6  1  0
  4 13  1  0
  6  7  1  1
  6  8  1  0
  6 12  1  0
  8  9  2  0
  8 10  1  0
 10 11  1  0
 10 28  1  0
 11 29  1  0
 12 30  1  0
 13 14  1  0
 13 31  1  0
 13 32  1  0
 14 15  1  0
 14 16  1  0
 14 33  1  0
 15 34  1  0
 15 35  1  0
 15 36  1  0
 16 37  1  0
 16 38  1  0
 16 39  1  0
 17 18  1  1
 17 19  1  0
 17 23  1  0
 19 20  1  0
 19 21  1  0
 19 22  1  0
 20 40  1  0
 20 41  1  0
 20 42  1  0
 21 43  1  0
 21 44  1  0
 21 45  1  0
 22 46  1  0
 22 47  1  0
 22 48  1  0
 23 24  2  0
 23 25  1  0
 25 26  1  0
 25 49  1  0
 26 50  1  0
 26 51  1  0
 26 52  1  0
M  END

