
     RDKit          3D

 52 51  0  0  0  0  0  0  0  0999 V2000
    0.0163   -0.0878    0.0068 N   0  0  0  0  0  0  0  0  0  0  0  0
    1.3505   -0.2220   -0.0197 C   0  0  0  0  0  0  0  0  0  0  0  0
    2.0291   -0.3685    1.0116 O   0  0  0  0  0  0  0  0  0  0  0  0
    2.0358   -0.1334   -1.3707 C   0  0  1  0  0  0  0  0  0  0  0  0
    1.2867    0.0089   -2.1612 H   0  0  0  0  0  0  0  0  0  0  0  0
    2.8901    1.1566   -1.3446 C   0  0  1  0  0  0  0  0  0  0  0  0
    3.4058    1.2494   -2.3165 H   0  0  0  0  0  0  0  0  0  0  0  0
    1.9376    2.3481   -1.2265 C   0  0  0  0  0  0  0  0  0  0  0  0
    0.9517    2.5195   -1.9501 O   0  0  0  0  0  0  0  0  0  0  0  0
    2.2066    3.1859   -0.2173 N   0  0  0  0  0  0  0  0  0  0  0  0
    1.4112    4.2984   -0.0583 O   0  0  0  0  0  0  0  0  0  0  0  0
    3.8615    1.1546   -0.3272 O   0  0  0  0  0  0  0  0  0  0  0  0
    2.8791   -1.3854   -1.6389 C   0  0  0  0  0  0  0  0  0  0  0  0
    2.1174   -2.7151   -1.5167 C   0  0  0  0  0  0  0  0  0  0  0  0
    0.9151   -2.7957   -2.4629 C   0  0  0  0  0  0  0  0  0  0  0  0
    3.0735   -3.8901   -1.7412 C   0  0  0  0  0  0  0  0  0  0  0  0
   -0.7555   -0.0397    1.2468 C   0  0  1  0  0  0  0  0  0  0  0  0
   -0.0635    0.3506    2.0091 H   0  0  0  0  0  0  0  0  0  0  0  0
   -1.9422    0.9501    1.1369 C   0  0  0  0  0  0  0  0  0  0  0  0
   -2.6819    0.9713    2.4849 C   0  0  0  0  0  0  0  0  0  0  0  0
   -1.3714    2.3515    0.8503 C   0  0  0  0  0  0  0  0  0  0  0  0
   -2.9176    0.5544    0.0138 C   0  0  0  0  0  0  0  0  0  0  0  0
   -1.0997   -1.4927    1.6641 C   0  0  0  0  0  0  0  0  0  0  0  0
   -2.2169   -1.9802    1.5888 O   0  0  0  0  0  0  0  0  0  0  0  0
   -0.0043   -2.1750    2.0957 N   0  0  0  0  0  0  0  0  0  0  0  0
   -0.0450   -3.5817    2.4300 C   0  0  0  0  0  0  0  0  0  0  0  0
   -0.4715    0.0583   -0.8693 H   0  0  0  0  0  0  0  0  0  0  0  0
    3.0615    3.1607    0.3262 H   0  0  0  0  0  0  0  0  0  0  0  0
    0.7740    4.1817   -0.7973 H   0  0  0  0  0  0  0  0  0  0  0  0
    3.4911    0.6222    0.4091 H   0  0  0  0  0  0  0  0  0  0  0  0
    3.7258   -1.3888   -0.9360 H   0  0  0  0  0  0  0  0  0  0  0  0
    3.3110   -1.2990   -2.6517 H   0  0  0  0  0  0  0  0  0  0  0  0
    1.7379   -2.7879   -0.4809 H   0  0  0  0  0  0  0  0  0  0  0  0
    1.2284   -2.6590   -3.5121 H   0  0  0  0  0  0  0  0  0  0  0  0
    0.1550   -2.0331   -2.2359 H   0  0  0  0  0  0  0  0  0  0  0  0
    0.4198   -3.7763   -2.3870 H   0  0  0  0  0  0  0  0  0  0  0  0
    3.4769   -3.8775   -2.7681 H   0  0  0  0  0  0  0  0  0  0  0  0
    2.5625   -4.8550   -1.5958 H   0  0  0  0  0  0  0  0  0  0  0  0
    3.9276   -3.8497   -1.0467 H   0  0  0  0  0  0  0  0  0  0  0  0
   -3.1422   -0.0014    2.7019 H   0  0  0  0  0  0  0  0  0  0  0  0
   -3.4745    1.7354    2.4661 H   0  0  0  0  0  0  0  0  0  0  0  0
   -1.9935    1.2264    3.3078 H   0  0  0  0  0  0  0  0  0  0  0  0
   -0.8500    2.3969   -0.1165 H   0  0  0  0  0  0  0  0  0  0  0  0
   -0.6572    2.6661    1.6278 H   0  0  0  0  0  0  0  0  0  0  0  0
   -2.1875    3.0903    0.8251 H   0  0  0  0  0  0  0  0  0  0  0  0
   -2.4437    0.6015   -0.9821 H   0  0  0  0  0  0  0  0  0  0  0  0
   -3.7598    1.2634   -0.0135 H   0  0  0  0  0  0  0  0  0  0  0  0
   -3.3080   -0.4583    0.1730 H   0  0  0  0  0  0  0  0  0  0  0  0
    0.8932   -1.6920    2.0639 H   0  0  0  0  0  0  0  0  0  0  0  0
    0.3550   -3.7620    3.4410 H   0  0  0  0  0  0  0  0  0  0  0  0
    0.5371   -4.1864    1.7130 H   0  0  0  0  0  0  0  0  0  0  0  0
   -1.0922   -3.9089    2.3973 H   0  0  0  0  0  0  0  0  0  0  0  0
  1  2  1  0
  1 17  1  0
  1 27  1  0
  2  3  2  0
  2  4  1  0
  4  5  1  6
  4  6  1  0
  4 13  1  0
  6  7  1  6
  6  8  1  0
  6 12  1  0
  8  9  2  0
  8 10  1  0
 10 11  1  0
 10 28  1  0
 11 29  1  0
 12 30  1  0
 13 14  1  0
 13 31  1  0
 13 32  1  0
 14 15  1  0
 14 16  1  0
 14 33  1  0
 15 34  1  0
 15 35  1  0
 15 36  1  0
 16 37  1  0
 16 38  1  0
 16 39  1  0
 17 18  1  1
 17 19  1  0
 17 23  1  0
 19 20  1  0
 19 21  1  0
 19 22  1  0
 20 40  1  0
 20 41  1  0
 20 42  1  0
 21 43  1  0
 21 44  1  0
 21 45  1  0
 22 46  1  0
 22 47  1  0
 22 48  1  0
 23 24  2  0
 23 25  1  0
 25 26  1  0
 25 49  1  0
 26 50  1  0
 26 51  1  0
 26 52  1  0
M  END

