52
rmsd218.gzmat
N          0.00000        0.00000        0.00000
C          1.37270        0.00000        0.00000
O          1.98860        0.00000        1.05560
C          2.06030        0.07040       -1.35170
H          1.31530        0.09310       -2.19150
C          2.83940        1.40600       -1.41760
H          2.28670        2.23200       -0.90580
C          4.26470        1.26090       -0.86920
O          5.22410        1.24540       -1.61390
N          4.39480        1.33030        0.51470
O          5.63440        0.91790        1.01000
O          2.88220        1.82240       -2.75520
C          2.96750       -1.15340       -1.53190
C          2.22270       -2.39510       -2.06130
C          3.25710       -3.42390       -2.53950
C          1.33330       -3.02780       -0.98810
C         -0.72980       -0.16870        1.25630
H         -0.00980       -0.07220        2.11790
C         -1.84610        0.91150        1.42860
C         -2.64830        0.57560        2.69410
C         -1.16800        2.27730        1.60630
C         -2.78370        0.95160        0.21880
C         -1.33310       -1.58580        1.20190
O         -1.86140       -2.01480        0.19340
N         -1.20570       -2.35140        2.33230
C         -1.69950       -3.72900        2.34740
H         -0.55070       -0.08820       -0.84640
H          3.69160        0.89540        1.12030
H          6.30990        1.50020        0.53940
H          3.73590        1.55700       -3.18230
H          3.47810       -1.40310       -0.57930
H          3.78210       -0.89970       -2.24460
H          1.58750       -2.09770       -2.93030
H          3.90030       -3.75580       -1.71690
H          3.90360       -3.01450       -3.32270
H          2.76840       -4.31320       -2.95170
H          1.86970       -3.16450       -0.04320
H          0.97070       -4.01350       -1.30130
H          0.44170       -2.42630       -0.78170
H         -3.20190       -0.36520        2.58790
H         -3.39040        1.35590        2.90470
H         -2.00780        0.49640        3.57770
H         -0.56310        2.54240        0.73100
H         -0.50370        2.29370        2.47730
H         -1.91010        3.07070        1.74440
H         -2.29750        1.37710       -0.66520
H         -3.66790        1.56530        0.42240
H         -3.14330       -0.05170       -0.05190
H         -0.75150       -2.01920        3.16400
H         -2.03550       -4.03990        1.33690
H         -2.56060       -3.82590        3.03060
H         -0.90330       -4.42270        2.66680
