
     RDKit          3D

 52 51  0  0  0  0  0  0  0  0999 V2000
    0.2482    0.2382   -0.3412 N   0  0  0  0  0  0  0  0  0  0  0  0
    1.5896    0.1437   -0.3426 C   0  0  0  0  0  0  0  0  0  0  0  0
    2.2579   -0.0531    0.6790 O   0  0  0  0  0  0  0  0  0  0  0  0
    2.2804    0.3857   -1.6763 C   0  0  1  0  0  0  0  0  0  0  0  0
    1.5323    0.5646   -2.4601 H   0  0  0  0  0  0  0  0  0  0  0  0
    3.0617    1.7132   -1.5163 C   0  0  1  0  0  0  0  0  0  0  0  0
    3.5970    1.9111   -2.4621 H   0  0  0  0  0  0  0  0  0  0  0  0
    2.0523    2.8479   -1.3354 C   0  0  0  0  0  0  0  0  0  0  0  0
    1.0670    3.0257   -2.0576 O   0  0  0  0  0  0  0  0  0  0  0  0
    2.2759    3.6379   -0.2771 N   0  0  0  0  0  0  0  0  0  0  0  0
    1.4074    4.6818   -0.0480 O   0  0  0  0  0  0  0  0  0  0  0  0
    4.0034    1.6775   -0.4722 O   0  0  0  0  0  0  0  0  0  0  0  0
    3.2092   -0.7690   -2.0724 C   0  0  0  0  0  0  0  0  0  0  0  0
    2.5312   -2.1131   -2.4052 C   0  0  0  0  0  0  0  0  0  0  0  0
    1.9285   -2.8239   -1.1854 C   0  0  0  0  0  0  0  0  0  0  0  0
    1.4953   -1.9855   -3.5280 C   0  0  0  0  0  0  0  0  0  0  0  0
   -0.5899    0.0267    0.8206 C   0  0  1  0  0  0  0  0  0  0  0  0
    0.0137   -0.5229    1.5584 H   0  0  0  0  0  0  0  0  0  0  0  0
   -1.0561    1.3716    1.4822 C   0  0  0  0  0  0  0  0  0  0  0  0
   -2.0979    1.0796    2.5735 C   0  0  0  0  0  0  0  0  0  0  0  0
    0.1680    2.0403    2.1271 C   0  0  0  0  0  0  0  0  0  0  0  0
   -1.6605    2.3095    0.4250 C   0  0  0  0  0  0  0  0  0  0  0  0
   -1.7612   -0.8371    0.3361 C   0  0  0  0  0  0  0  0  0  0  0  0
   -2.2566   -0.6559   -0.7681 O   0  0  0  0  0  0  0  0  0  0  0  0
   -2.1852   -1.7919    1.2027 N   0  0  0  0  0  0  0  0  0  0  0  0
   -3.3203   -2.6498    0.9336 C   0  0  0  0  0  0  0  0  0  0  0  0
   -0.2478    0.3813   -1.2164 H   0  0  0  0  0  0  0  0  0  0  0  0
    3.1067    3.5979    0.3011 H   0  0  0  0  0  0  0  0  0  0  0  0
    0.7897    4.5761   -0.8061 H   0  0  0  0  0  0  0  0  0  0  0  0
    3.6494    1.0488    0.1956 H   0  0  0  0  0  0  0  0  0  0  0  0
    3.9452   -0.9167   -1.2674 H   0  0  0  0  0  0  0  0  0  0  0  0
    3.7788   -0.4383   -2.9576 H   0  0  0  0  0  0  0  0  0  0  0  0
    3.3463   -2.7578   -2.7808 H   0  0  0  0  0  0  0  0  0  0  0  0
    1.0043   -2.3328   -0.8444 H   0  0  0  0  0  0  0  0  0  0  0  0
    2.6295   -2.8415   -0.3378 H   0  0  0  0  0  0  0  0  0  0  0  0
    1.6646   -3.8630   -1.4391 H   0  0  0  0  0  0  0  0  0  0  0  0
    0.6047   -1.4269   -3.1960 H   0  0  0  0  0  0  0  0  0  0  0  0
    1.1467   -2.9779   -3.8548 H   0  0  0  0  0  0  0  0  0  0  0  0
    1.9097   -1.4677   -4.4083 H   0  0  0  0  0  0  0  0  0  0  0  0
   -3.0356    0.6811    2.1579 H   0  0  0  0  0  0  0  0  0  0  0  0
   -2.3407    2.0076    3.1135 H   0  0  0  0  0  0  0  0  0  0  0  0
   -1.7159    0.3598    3.3172 H   0  0  0  0  0  0  0  0  0  0  0  0
    0.9617    2.2217    1.3928 H   0  0  0  0  0  0  0  0  0  0  0  0
    0.5901    1.4134    2.9279 H   0  0  0  0  0  0  0  0  0  0  0  0
   -0.1164    3.0130    2.5578 H   0  0  0  0  0  0  0  0  0  0  0  0
   -0.9053    2.6146   -0.3137 H   0  0  0  0  0  0  0  0  0  0  0  0
   -2.0379    3.2227    0.9113 H   0  0  0  0  0  0  0  0  0  0  0  0
   -2.4935    1.8322   -0.1115 H   0  0  0  0  0  0  0  0  0  0  0  0
   -1.7123   -1.8708    2.0939 H   0  0  0  0  0  0  0  0  0  0  0  0
   -4.1520   -2.4526    1.6308 H   0  0  0  0  0  0  0  0  0  0  0  0
   -3.0417   -3.7132    1.0093 H   0  0  0  0  0  0  0  0  0  0  0  0
   -3.6589   -2.4411   -0.0891 H   0  0  0  0  0  0  0  0  0  0  0  0
  1  2  1  0
  1 17  1  0
  1 27  1  0
  2  3  2  0
  2  4  1  0
  4  5  1  6
  4  6  1  0
  4 13  1  0
  6  7  1  6
  6  8  1  0
  6 12  1  0
  8  9  2  0
  8 10  1  0
 10 11  1  0
 10 28  1  0
 11 29  1  0
 12 30  1  0
 13 14  1  0
 13 31  1  0
 13 32  1  0
 14 15  1  0
 14 16  1  0
 14 33  1  0
 15 34  1  0
 15 35  1  0
 15 36  1  0
 16 37  1  0
 16 38  1  0
 16 39  1  0
 17 18  1  1
 17 19  1  0
 17 23  1  0
 19 20  1  0
 19 21  1  0
 19 22  1  0
 20 40  1  0
 20 41  1  0
 20 42  1  0
 21 43  1  0
 21 44  1  0
 21 45  1  0
 22 46  1  0
 22 47  1  0
 22 48  1  0
 23 24  2  0
 23 25  1  0
 25 26  1  0
 25 49  1  0
 26 50  1  0
 26 51  1  0
 26 52  1  0
M  END

