
     RDKit          3D

 33 34  0  0  0  0  0  0  0  0999 V2000
   -0.0166   -0.0184   -0.0810 C   0  0  0  0  0  0  0  0  0  0  0  0
    1.1930   -0.0408   -0.0349 O   0  0  0  0  0  0  0  0  0  0  0  0
   -0.7277   -0.0658   -1.2080 O   0  0  0  0  0  0  0  0  0  0  0  0
   -0.8970   -0.0074    1.1588 C   0  0  0  0  0  0  0  0  0  0  0  0
   -0.7596   -1.2999    1.9844 C   0  0  0  0  0  0  0  0  0  0  0  0
   -1.1141   -2.5984    1.2342 C   0  0  0  0  0  0  0  0  0  0  0  0
    0.0759   -3.2099    0.4812 C   0  0  0  0  0  0  0  0  0  0  0  0
   -0.2599   -4.4306   -0.3746 C   0  0  2  0  0  0  0  0  0  0  0  0
   -0.7940   -5.1768    0.2367 H   0  0  0  0  0  0  0  0  0  0  0  0
    1.3180   -5.2144   -0.9413 S   0  0  0  0  0  0  0  0  0  0  0  0
    0.4795   -5.9344   -2.3907 C   0  0  0  0  0  0  0  0  0  0  0  0
   -0.4740   -4.8541   -2.8891 C   0  0  2  0  0  0  0  0  0  0  0  0
   -1.2412   -5.2954   -3.5494 H   0  0  0  0  0  0  0  0  0  0  0  0
    0.2012   -3.7454   -3.5670 N   0  0  0  0  0  0  0  0  0  0  0  0
   -0.1286   -2.5322   -2.9941 C   0  0  0  0  0  0  0  0  0  0  0  0
    0.3529   -1.3560   -3.2057 N   0  0  0  0  0  0  0  0  0  0  0  0
   -1.1435   -2.7743   -2.1001 N   0  0  0  0  0  0  0  0  0  0  0  0
   -1.1242   -4.1499   -1.6561 C   0  0  2  0  0  0  0  0  0  0  0  0
   -2.1479   -4.5140   -1.4842 H   0  0  0  0  0  0  0  0  0  0  0  0
   -0.1499   -0.3294   -2.0196 H   0  0  0  0  0  0  0  0  0  0  0  0
   -1.9446    0.1493    0.8624 H   0  0  0  0  0  0  0  0  0  0  0  0
   -0.5852    0.8457    1.7818 H   0  0  0  0  0  0  0  0  0  0  0  0
   -1.4087   -1.2001    2.8691 H   0  0  0  0  0  0  0  0  0  0  0  0
    0.2744   -1.3697    2.3617 H   0  0  0  0  0  0  0  0  0  0  0  0
   -1.9611   -2.4054    0.5510 H   0  0  0  0  0  0  0  0  0  0  0  0
   -1.4878   -3.3464    1.9542 H   0  0  0  0  0  0  0  0  0  0  0  0
    0.8273   -3.5105    1.2304 H   0  0  0  0  0  0  0  0  0  0  0  0
    0.5813   -2.4635   -0.1457 H   0  0  0  0  0  0  0  0  0  0  0  0
   -0.0863   -6.8376   -2.1098 H   0  0  0  0  0  0  0  0  0  0  0  0
    1.2231   -6.2253   -3.1479 H   0  0  0  0  0  0  0  0  0  0  0  0
    1.1462   -3.8721   -3.9076 H   0  0  0  0  0  0  0  0  0  0  0  0
    1.0645   -1.3275   -3.9323 H   0  0  0  0  0  0  0  0  0  0  0  0
   -1.4294   -2.0027   -1.5060 H   0  0  0  0  0  0  0  0  0  0  0  0
  1  2  2  0
  1  3  1  0
  1  4  1  0
  3 20  1  0
  4  5  1  0
  4 21  1  0
  4 22  1  0
  5  6  1  0
  5 23  1  0
  5 24  1  0
  6  7  1  0
  6 25  1  0
  6 26  1  0
  7  8  1  0
  7 27  1  0
  7 28  1  0
  8  9  1  1
  8 10  1  0
  8 18  1  0
 10 11  1  0
 11 12  1  0
 11 29  1  0
 11 30  1  0
 12 13  1  6
 12 14  1  0
 12 18  1  0
 14 15  1  0
 14 31  1  0
 15 16  2  0
 15 17  1  0
 16 32  1  0
 17 18  1  0
 17 33  1  0
 18 19  1  1
M  END

