
     RDKit          3D

 33 34  0  0  0  0  0  0  0  0999 V2000
    0.0746   -0.1686   -0.2291 C   0  0  0  0  0  0  0  0  0  0  0  0
    1.2569   -0.4409   -0.2883 O   0  0  0  0  0  0  0  0  0  0  0  0
   -0.6990    0.0470   -1.2861 O   0  0  0  0  0  0  0  0  0  0  0  0
   -0.6883   -0.1061    1.0847 C   0  0  0  0  0  0  0  0  0  0  0  0
   -0.5735   -1.4181    1.8761 C   0  0  0  0  0  0  0  0  0  0  0  0
   -1.0455   -2.6675    1.1033 C   0  0  0  0  0  0  0  0  0  0  0  0
    0.1022   -3.4633    0.4606 C   0  0  0  0  0  0  0  0  0  0  0  0
   -0.3735   -4.6081   -0.4437 C   0  0  2  0  0  0  0  0  0  0  0  0
   -1.2827   -5.0583   -0.0172 H   0  0  0  0  0  0  0  0  0  0  0  0
    0.8558   -5.9844   -0.5463 S   0  0  0  0  0  0  0  0  0  0  0  0
    1.7205   -5.1100   -1.8938 C   0  0  0  0  0  0  0  0  0  0  0  0
    0.5930   -4.6330   -2.8199 C   0  0  2  0  0  0  0  0  0  0  0  0
    0.3074   -5.4627   -3.4841 H   0  0  0  0  0  0  0  0  0  0  0  0
    0.8899   -3.4287   -3.5820 N   0  0  0  0  0  0  0  0  0  0  0  0
    0.2155   -2.3309   -3.0884 C   0  0  0  0  0  0  0  0  0  0  0  0
    0.3691   -1.0807   -3.3670 N   0  0  0  0  0  0  0  0  0  0  0  0
   -0.7268   -2.7946   -2.2124 N   0  0  0  0  0  0  0  0  0  0  0  0
   -0.6342   -4.2104   -1.9356 C   0  0  2  0  0  0  0  0  0  0  0  0
   -1.5379   -4.7392   -2.2787 H   0  0  0  0  0  0  0  0  0  0  0  0
   -0.1930   -0.1952   -2.1564 H   0  0  0  0  0  0  0  0  0  0  0  0
   -1.7418    0.1350    0.8803 H   0  0  0  0  0  0  0  0  0  0  0  0
   -0.2633    0.7180    1.6811 H   0  0  0  0  0  0  0  0  0  0  0  0
   -1.1588   -1.3074    2.8028 H   0  0  0  0  0  0  0  0  0  0  0  0
    0.4759   -1.5562    2.1836 H   0  0  0  0  0  0  0  0  0  0  0  0
   -1.7915   -2.3688    0.3449 H   0  0  0  0  0  0  0  0  0  0  0  0
   -1.5880   -3.3460    1.7838 H   0  0  0  0  0  0  0  0  0  0  0  0
    0.7086   -3.8965    1.2706 H   0  0  0  0  0  0  0  0  0  0  0  0
    0.7699   -2.7883   -0.0924 H   0  0  0  0  0  0  0  0  0  0  0  0
    2.4173   -5.8004   -2.3901 H   0  0  0  0  0  0  0  0  0  0  0  0
    2.2893   -4.2542   -1.4972 H   0  0  0  0  0  0  0  0  0  0  0  0
    1.8020   -3.2984   -4.0008 H   0  0  0  0  0  0  0  0  0  0  0  0
    1.1229   -0.9001   -4.0256 H   0  0  0  0  0  0  0  0  0  0  0  0
   -1.3493   -2.1448   -1.7508 H   0  0  0  0  0  0  0  0  0  0  0  0
  1  2  2  0
  1  3  1  0
  1  4  1  0
  3 20  1  0
  4  5  1  0
  4 21  1  0
  4 22  1  0
  5  6  1  0
  5 23  1  0
  5 24  1  0
  6  7  1  0
  6 25  1  0
  6 26  1  0
  7  8  1  0
  7 27  1  0
  7 28  1  0
  8  9  1  1
  8 10  1  0
  8 18  1  0
 10 11  1  0
 11 12  1  0
 11 29  1  0
 11 30  1  0
 12 13  1  6
 12 14  1  0
 12 18  1  0
 14 15  1  0
 14 31  1  0
 15 16  2  0
 15 17  1  0
 16 32  1  0
 17 18  1  0
 17 33  1  0
 18 19  1  6
M  END

