rmsd69.gzmat
 OpenBabel08211713433D

 33 33  0  0  1  0  0  0  0  0999 V2000
    0.0000    0.0000    0.0000 C   0  0  0  0  0  0  0  0  0  0  0  0
    1.2038    0.0000    0.0000 O   0  0  0  0  0  0  0  0  0  0  0  0
   -0.7131    0.0000   -1.1425 O   0  0  0  0  0  0  0  0  0  0  0  0
   -0.8984   -0.0166    1.2056 C   0  0  0  0  0  0  0  0  0  0  0  0
   -2.0586   -0.9989    1.0133 C   0  0  0  0  0  0  0  0  0  0  0  0
   -1.5430   -2.4214    0.7450 C   0  0  0  0  0  0  0  0  0  0  0  0
   -2.6619   -3.3150    0.1917 C   0  0  0  0  0  0  0  0  0  0  0  0
   -2.2186   -4.4176   -0.7652 C   0  0  2  0  0  0  0  0  0  0  0  0
   -3.0205   -5.2013   -0.7666 H   0  0  0  0  0  0  0  0  0  0  0  0
   -0.6707   -5.2684   -0.2303 S   0  0  0  0  0  0  0  0  0  0  0  0
   -0.3071   -5.8936   -1.9130 C   0  0  0  0  0  0  0  0  0  0  0  0
   -0.9078   -4.9092   -2.9159 C   0  0  2  0  0  0  0  0  0  0  0  0
   -1.3612   -5.4529   -3.7833 H   0  0  0  0  0  0  0  0  0  0  0  0
    0.0835   -3.9600   -3.4689 N   0  0  0  0  0  0  0  0  0  0  0  0
   -0.2183   -2.6389   -3.0219 C   0  0  0  0  0  0  0  0  0  0  0  0
    0.4696   -1.5567   -3.1767 N   0  0  0  0  0  0  0  0  0  0  0  0
   -1.5108   -2.6193   -2.4625 N   0  0  0  0  0  0  0  0  0  0  0  0
   -1.9981   -3.9863   -2.2281 C   0  0  2  0  0  0  0  0  0  0  0  0
   -2.9709   -4.0714   -2.7829 H   0  0  0  0  0  0  0  0  0  0  0  0
   -0.1578   -0.1630   -1.9807 H   0  0  0  0  0  0  0  0  0  0  0  0
   -1.2859    1.0080    1.3870 H   0  0  0  0  0  0  0  0  0  0  0  0
   -0.2991   -0.2827    2.1022 H   0  0  0  0  0  0  0  0  0  0  0  0
   -2.6931   -0.6518    0.1715 H   0  0  0  0  0  0  0  0  0  0  0  0
   -2.7105   -0.9941    1.9067 H   0  0  0  0  0  0  0  0  0  0  0  0
   -1.1285   -2.8529    1.6771 H   0  0  0  0  0  0  0  0  0  0  0  0
   -0.6824   -2.3848    0.0480 H   0  0  0  0  0  0  0  0  0  0  0  0
   -3.4254   -2.6928   -0.3258 H   0  0  0  0  0  0  0  0  0  0  0  0
   -3.2089   -3.7671    1.0472 H   0  0  0  0  0  0  0  0  0  0  0  0
   -0.7307   -6.9063   -2.0383 H   0  0  0  0  0  0  0  0  0  0  0  0
    0.7858   -6.0082   -2.0263 H   0  0  0  0  0  0  0  0  0  0  0  0
    1.0512   -4.2506   -3.4299 H   0  0  0  0  0  0  0  0  0  0  0  0
    1.3405   -1.5551   -3.6738 H   0  0  0  0  0  0  0  0  0  0  0  0
   -1.7190   -1.8851   -1.7907 H   0  0  0  0  0  0  0  0  0  0  0  0
  1  2  2  0  0  0  0
  1  4  1  0  0  0  0
  3  1  1  0  0  0  0
  4 21  1  0  0  0  0
  4 22  1  0  0  0  0
  5  4  1  0  0  0  0
  5 24  1  0  0  0  0
  6  5  1  0  0  0  0
  6 25  1  0  0  0  0
  7  6  1  0  0  0  0
  7 28  1  0  0  0  0
  8  9  1  6  0  0  0
  8 10  1  0  0  0  0
  8  7  1  0  0  0  0
 12 18  1  0  0  0  0
 12 11  1  0  0  0  0
 12 13  1  6  0  0  0
 14 31  1  0  0  0  0
 14 15  1  0  0  0  0
 14 12  1  0  0  0  0
 15 17  1  0  0  0  0
 16 15  2  0  0  0  0
 17 18  1  0  0  0  0
 17 33  1  0  0  0  0
 18 19  1  6  0  0  0
 18  8  1  0  0  0  0
 20  3  1  0  0  0  0
 23  5  1  0  0  0  0
 26  6  1  0  0  0  0
 27  7  1  0  0  0  0
 29 11  1  0  0  0  0
 30 11  1  0  0  0  0
 32 16  1  0  0  0  0
M  RAD  2  10   2  11   2
M  END
$$$$
