33

C         -0.01660       -0.01840       -0.08100
O          1.19300       -0.04080       -0.03490
O         -0.72770       -0.06580       -1.20800
C         -0.89700       -0.00740        1.15880
C         -0.75960       -1.29990        1.98440
C         -1.11410       -2.59840        1.23420
C          0.07590       -3.20990        0.48120
C         -0.25990       -4.43060       -0.37460
H         -0.79400       -5.17680        0.23670
S          1.31800       -5.21440       -0.94130
C          0.47950       -5.93440       -2.39070
C         -0.47400       -4.85410       -2.88910
H         -1.24120       -5.29540       -3.54940
N          0.20120       -3.74540       -3.56700
C         -0.12860       -2.53220       -2.99410
N          0.35290       -1.35600       -3.20570
N         -1.14350       -2.77430       -2.10010
C         -1.12420       -4.14990       -1.65610
H         -2.14790       -4.51400       -1.48420
H         -0.14990       -0.32940       -2.01960
H         -1.94460        0.14930        0.86240
H         -0.58520        0.84570        1.78180
H         -1.40870       -1.20010        2.86910
H          0.27440       -1.36970        2.36170
H         -1.96110       -2.40540        0.55100
H         -1.48780       -3.34640        1.95420
H          0.82730       -3.51050        1.23040
H          0.58130       -2.46350       -0.14570
H         -0.08630       -6.83760       -2.10980
H          1.22310       -6.22530       -3.14790
H          1.14620       -3.87210       -3.90760
H          1.06450       -1.32750       -3.93230
H         -1.42940       -2.00270       -1.50600
