33
rmsd90.gzmat
C          0.00000        0.00000        0.00000
O          1.20410        0.00000        0.00000
O         -0.71910        0.00000       -1.13800
C         -0.91340       -0.06080        1.19190
C         -0.68650       -1.38890        1.92330
C         -1.05620       -2.60340        1.05620
C          0.19730       -3.24320        0.43810
C         -0.16860       -4.46340       -0.40100
H         -1.00720       -5.00810        0.10150
S          1.24450       -5.64900       -0.43150
C          1.61970       -5.52050       -2.21400
C          0.49240       -4.75630       -2.89860
H         -0.03680       -5.41250       -3.63890
N          0.96340       -3.56730       -3.64830
C          0.35910       -2.39480       -3.10850
N          0.59670       -1.15410       -3.38140
N         -0.69490       -2.77330       -2.25370
C         -0.56700       -4.18580       -1.86570
H         -1.56460       -4.66450       -2.06790
H         -0.17590       -0.04500       -2.00020
H         -1.97660        0.04850        0.88530
H         -0.69750        0.79540        1.86650
H         -1.28380       -1.39760        2.85620
H          0.37220       -1.45510        2.25530
H         -1.77720       -2.30880        0.26940
H         -1.58690       -3.35530        1.67090
H          0.89030       -3.51790        1.26450
H          0.77120       -2.49850       -0.15170
H          1.72930       -6.54250       -2.62510
H          2.60500       -5.03470       -2.34470
H          1.95220       -3.52830       -3.85970
H          1.25680       -0.88850       -4.08850
H         -1.01840       -2.08780       -1.57580
