rmsd90.gzmat
 OpenBabel08211713433D

 33 34  0  0  1  0  0  0  0  0999 V2000
    0.0000    0.0000    0.0000 C   0  0  0  0  0  0  0  0  0  0  0  0
    1.2041    0.0000    0.0000 O   0  0  0  0  0  0  0  0  0  0  0  0
   -0.7191    0.0000   -1.1380 O   0  0  0  0  0  0  0  0  0  0  0  0
   -0.9134   -0.0608    1.1919 C   0  0  0  0  0  0  0  0  0  0  0  0
   -0.6865   -1.3889    1.9233 C   0  0  0  0  0  0  0  0  0  0  0  0
   -1.0562   -2.6034    1.0562 C   0  0  0  0  0  0  0  0  0  0  0  0
    0.1973   -3.2432    0.4381 C   0  0  0  0  0  0  0  0  0  0  0  0
   -0.1686   -4.4634   -0.4010 C   0  0  2  0  0  0  0  0  0  0  0  0
   -1.0072   -5.0081    0.1015 H   0  0  0  0  0  0  0  0  0  0  0  0
    1.2445   -5.6490   -0.4315 S   0  0  0  0  0  0  0  0  0  0  0  0
    1.6197   -5.5205   -2.2140 C   0  0  0  0  0  0  0  0  0  0  0  0
    0.4924   -4.7563   -2.8986 C   0  0  2  0  0  0  0  0  0  0  0  0
   -0.0368   -5.4125   -3.6389 H   0  0  0  0  0  0  0  0  0  0  0  0
    0.9634   -3.5673   -3.6483 N   0  0  0  0  0  0  0  0  0  0  0  0
    0.3591   -2.3948   -3.1085 C   0  0  0  0  0  0  0  0  0  0  0  0
    0.5967   -1.1541   -3.3814 N   0  0  0  0  0  0  0  0  0  0  0  0
   -0.6949   -2.7733   -2.2537 N   0  0  0  0  0  0  0  0  0  0  0  0
   -0.5670   -4.1858   -1.8657 C   0  0  2  0  0  0  0  0  0  0  0  0
   -1.5646   -4.6645   -2.0679 H   0  0  0  0  0  0  0  0  0  0  0  0
   -0.1759   -0.0450   -2.0002 H   0  0  0  0  0  0  0  0  0  0  0  0
   -1.9766    0.0485    0.8853 H   0  0  0  0  0  0  0  0  0  0  0  0
   -0.6975    0.7954    1.8665 H   0  0  0  0  0  0  0  0  0  0  0  0
   -1.2838   -1.3976    2.8562 H   0  0  0  0  0  0  0  0  0  0  0  0
    0.3722   -1.4551    2.2553 H   0  0  0  0  0  0  0  0  0  0  0  0
   -1.7772   -2.3088    0.2694 H   0  0  0  0  0  0  0  0  0  0  0  0
   -1.5869   -3.3553    1.6709 H   0  0  0  0  0  0  0  0  0  0  0  0
    0.8903   -3.5179    1.2645 H   0  0  0  0  0  0  0  0  0  0  0  0
    0.7712   -2.4985   -0.1517 H   0  0  0  0  0  0  0  0  0  0  0  0
    1.7293   -6.5425   -2.6251 H   0  0  0  0  0  0  0  0  0  0  0  0
    2.6050   -5.0347   -2.3447 H   0  0  0  0  0  0  0  0  0  0  0  0
    1.9522   -3.5283   -3.8597 H   0  0  0  0  0  0  0  0  0  0  0  0
    1.2568   -0.8885   -4.0885 H   0  0  0  0  0  0  0  0  0  0  0  0
   -1.0184   -2.0878   -1.5758 H   0  0  0  0  0  0  0  0  0  0  0  0
  1  2  2  0  0  0  0
  1  4  1  0  0  0  0
  3  1  1  0  0  0  0
  4 22  1  0  0  0  0
  4  5  1  0  0  0  0
  5 24  1  0  0  0  0
  5 23  1  0  0  0  0
  6 26  1  0  0  0  0
  6  5  1  0  0  0  0
  7  6  1  0  0  0  0
  7 27  1  0  0  0  0
  8 18  1  0  0  0  0
  8  9  1  1  0  0  0
  8  7  1  0  0  0  0
 10  8  1  0  0  0  0
 11 10  1  0  0  0  0
 12 11  1  0  0  0  0
 12 18  1  0  0  0  0
 12 13  1  6  0  0  0
 14 15  1  0  0  0  0
 14 12  1  0  0  0  0
 15 17  1  0  0  0  0
 16 15  2  0  0  0  0
 17 18  1  0  0  0  0
 17 33  1  0  0  0  0
 18 19  1  6  0  0  0
 20  3  1  0  0  0  0
 21  4  1  0  0  0  0
 25  6  1  0  0  0  0
 28  7  1  0  0  0  0
 29 11  1  0  0  0  0
 30 11  1  0  0  0  0
 31 14  1  0  0  0  0
 32 16  1  0  0  0  0
M  END
$$$$
