33
rmsd44.gzmat
C          0.00000        0.00000        0.00000
O          1.20300        0.00000        0.00000
O         -0.71410        0.00000       -1.14330
C         -0.92250       -0.03020        1.18340
C         -0.72880       -1.33430        1.96590
C         -1.14430       -2.58190        1.16940
C          0.06010       -3.21480        0.45410
C         -0.35290       -4.41890       -0.38450
H         -1.01290       -5.07900        0.22760
S          1.16330       -5.40050       -0.79500
C          0.55350       -5.95250       -2.42720
C         -0.37790       -4.86340       -2.93210
H         -1.16350       -5.28360       -3.61210
N          0.31490       -3.79370       -3.69580
C         -0.01940       -2.52780       -3.12000
N          0.41150       -1.34980       -3.42380
N         -1.04420       -2.71370       -2.16990
C         -1.07090       -4.11000       -1.72000
H         -2.14500       -4.41450       -1.64160
H         -0.17220       -0.08290       -1.99870
H         -1.98010        0.08460        0.86330
H         -0.70350        0.84390        1.83330
H         -1.32010       -1.28020        2.90160
H          0.32840       -1.42070        2.29290
H         -1.94440       -2.32940        0.44920
H         -1.59560       -3.32500        1.85580
H          0.80710       -3.51250        1.22340
H          0.59470       -2.45730       -0.15790
H          0.03060       -6.92240       -2.33470
H          1.40820       -6.13750       -3.10290
H          1.29750       -3.95370       -3.88430
H          1.04240       -1.20330       -4.18940
H         -1.22010       -1.96470       -1.50700
