33
rmsd34.gzmat
C          0.00000        0.00000        0.00000
O          1.20310        0.00000        0.00000
O         -0.71760        0.00000       -1.14000
C         -0.92040       -0.03270        1.18520
C         -0.68550       -1.31490        1.99220
C         -1.10690       -2.58620        1.23780
C          0.08150       -3.21860        0.49620
C         -0.35380       -4.42510       -0.32680
H         -0.99370       -5.08520        0.30650
S          1.14800       -5.40730       -0.78630
C          0.46680       -5.98230       -2.38210
C         -0.46940       -4.88800       -2.86710
H         -1.27900       -5.30540       -3.51960
N          0.21170       -3.83200       -3.66000
C         -0.08290       -2.55860       -3.08020
N          0.36050       -1.38980       -3.40240
N         -1.08400       -2.72420       -2.10220
C         -1.11400       -4.11630       -1.63970
H         -2.18820       -4.40630       -1.52230
H         -0.17970       -0.09300       -1.99770
H         -1.98140        0.04460        0.86560
H         -0.72640        0.86100        1.81570
H         -1.25090       -1.24720        2.94290
H          0.38250       -1.37860        2.28860
H         -1.93420       -2.36320        0.53880
H         -1.52360       -3.31990        1.95550
H          0.84860       -3.51240        1.24660
H          0.59940       -2.46230       -0.13140
H         -0.06570       -6.94230       -2.24990
H          1.28930       -6.19130       -3.08980
H          1.18320       -4.00880       -3.88560
H          0.97430       -1.25980       -4.18460
H         -1.23590       -1.96710       -1.44320
