33

C         -0.02420       -0.08380       -0.08460
O          1.16790       -0.27300       -0.01660
O         -0.70920       -0.04220       -1.23080
C         -0.91920        0.01530        1.14060
C         -0.85390       -1.32190        1.90360
C         -1.20440       -2.55590        1.06180
C         -2.69970       -2.73000        0.76490
C         -3.05570       -3.80500       -0.27940
H         -4.04710       -4.21790       -0.03300
S         -1.88370       -5.23610       -0.28210
C         -2.51940       -5.73210       -1.91650
C         -2.67470       -4.43950       -2.72390
H         -3.39690       -4.59730       -3.54420
N         -1.41830       -3.91220       -3.24260
C         -1.14730       -2.64300       -2.77900
N         -0.09860       -1.90720       -2.93200
N         -2.26180       -2.21900       -2.10380
C         -3.14560       -3.30300       -1.75560
H         -4.19310       -3.02150       -1.95260
H         -0.21400       -0.55890       -1.97000
H         -1.94580        0.27030        0.83940
H         -0.54540        0.82070        1.79170
H         -1.50420       -1.26990        2.79420
H          0.17860       -1.43740        2.26760
H         -0.85610       -3.45420        1.59750
H         -0.62350       -2.54260        0.12730
H         -3.14030       -1.77430        0.43040
H         -3.21470       -2.97220        1.70860
H         -3.49630       -6.23290       -1.81630
H         -1.82270       -6.44180       -2.38670
H         -0.66240       -4.52790       -3.51020
H          0.63230       -2.34040       -3.49110
H         -2.19580       -1.34620       -1.58730
