33
rmsd74.gzmat
C          0.00000        0.00000        0.00000
O          1.20150        0.00000        0.00000
O         -0.71750        0.00000       -1.14420
C         -0.92600       -0.03200        1.18230
C         -0.75150       -1.37490        1.90180
C         -1.04240       -2.58860        1.00490
C         -2.54760       -2.79800        0.79830
C         -2.94170       -3.86140       -0.22440
H         -3.97190       -4.21390        0.04110
S         -1.86310       -5.36080       -0.15360
C         -2.26820       -5.86370       -1.86590
C         -2.49210       -4.58140       -2.65720
H         -3.23720       -4.74010       -3.47860
N         -1.26030       -4.05620       -3.29450
C         -1.01520       -2.72800       -2.82320
N         -0.02230       -1.94470       -3.08570
N         -2.12710       -2.28750       -2.08440
C         -2.98350       -3.41290       -1.70310
H         -4.03520       -3.12170       -1.96270
H         -0.19610       -0.25170       -1.97610
H         -1.97850        0.12180        0.87000
H         -0.68400        0.80820        1.86570
H         -1.39490       -1.40200        2.80130
H          0.29250       -1.45040        2.27790
H         -0.59070       -3.48510        1.47760
H         -0.51760       -2.48270        0.03580
H         -3.02340       -1.83400        0.51660
H         -3.00160       -3.05620        1.78060
H         -3.16850       -6.50560       -1.87320
H         -1.45310       -6.48700       -2.27300
H         -0.46720       -4.68480       -3.30600
H          0.70730       -2.22150       -3.71640
H         -2.00610       -1.49770       -1.45640
