33
rmsd15.gzmat
C          0.00000        0.00000        0.00000
C          1.41210        0.00000        0.00000
C          2.09210        0.00000        1.20730
C          1.39360       -0.00420        2.42090
C         -0.00570       -0.01950        2.41650
C         -0.70830       -0.01760        1.22380
S          2.26170        0.01700        3.91210
O          1.41880       -0.46160        4.98570
O          3.59530       -0.48960        3.74180
N          2.39970        1.72870        4.37690
C          2.97860        2.70820        3.61080
N          3.28140        2.41980        2.30590
C          3.81610        3.41090        1.56260
C          4.06050        4.68240        2.09700
C          3.71810        4.90310        3.44230
N          3.17900        3.93300        4.20300
C          3.94000        6.22760        4.08950
C          4.13700        3.07680        0.14490
N         -0.68870        0.01370       -1.19190
H          1.95850        0.00260       -0.93510
H          3.19290        0.01070        1.20060
H         -0.56530       -0.03850        3.36160
H         -1.79180       -0.02670        1.22440
H          2.18460        1.98290        5.34730
H          4.49810        5.46790        1.49950
H          3.60510        6.23490        5.14150
H          3.39020        7.02410        3.56570
H          5.00720        6.49740        4.08470
H          4.07700        3.95490       -0.51130
H          3.45480        2.30850       -0.25680
H          5.15740        2.66600        0.06690
H         -0.21270        0.02960       -2.06440
H         -1.68330        0.00390       -1.21540
