33

C         -0.06320       -0.09460        0.02120
C          1.34670       -0.18560       -0.01790
C          2.09500       -0.14170        1.15070
C          1.44310       -0.00810        2.38030
C          0.04860        0.07630        2.44720
C         -0.69810        0.03630        1.27740
S          2.38260        0.04680        3.87730
O          1.54660       -0.41300        4.98800
O          3.70370       -0.51760        3.62740
N          2.53000        1.71260        4.22410
C          3.29820        2.63200        3.53940
N          3.75640        2.27740        2.33750
C          4.48110        3.18370        1.67460
C          4.73390        4.44600        2.22520
C          4.20090        4.72120        3.49250
N          3.48100        3.80730        4.15130
C          4.40850        6.04220        4.17800
C          4.99860        2.77310        0.32540
N         -0.80380       -0.17330       -1.13300
H          1.85010       -0.29670       -0.98190
H          3.18210       -0.20170        1.12990
H         -0.44030        0.16090        3.41910
H         -1.78850        0.09460        1.32510
H          2.20380        1.96720        5.15210
H          5.32400        5.18920        1.68790
H          3.43440        6.50130        4.40910
H          4.99800        6.73740        3.56490
H          4.92230        5.88690        5.13990
H          5.53620        3.58820       -0.17800
H          4.16110        2.44360       -0.30940
H          5.67580        1.91090        0.43440
H         -0.33430       -0.04300       -2.01920
H         -1.77260        0.11620       -1.10750
