33
rmsd24.gzmat
C          0.00000        0.00000        0.00000
C          1.41410        0.00000        0.00000
C          2.09390        0.00000        1.20590
C          1.39590        0.00320        2.41880
C         -0.00450       -0.00340        2.41540
C         -0.70850       -0.00870        1.22180
S          2.25250        0.03410        3.91650
O          1.42920       -0.43840        4.99500
O          3.59520       -0.47150        3.73340
N          2.61880        1.74640        4.22900
C          1.69310        2.75650        4.28000
N          0.40540        2.48190        3.89790
C         -0.47450        3.50360        3.91800
C         -0.09790        4.79400        4.31440
C          1.24010        4.99630        4.69310
N          2.13820        3.99420        4.67870
C          1.73160        6.33430        5.12900
C         -1.87130        3.18920        3.49980
N         -0.68620       -0.00580       -1.19370
H          1.95800        0.00020       -0.93710
H          3.19230       -0.00670        1.19560
H         -0.56120        0.00460        3.36490
H         -1.79140       -0.01500        1.22470
H          3.57040        1.98990        4.52580
H         -0.80990        5.60540        4.33010
H          2.78890        6.30290        5.44580
H          1.14710        6.71600        5.97920
H          1.65800        7.06890        4.31310
H         -2.54900        3.19860        4.36810
H         -1.94950        2.18960        3.03970
H         -2.24870        3.92090        2.77170
H         -0.20790        0.03130       -2.06490
H         -1.67990        0.02980       -1.21840
