rmsd41.gzmat
 OpenBabel08211713383D

 33 34  0  0  0  0  0  0  0  0999 V2000
    0.0000    0.0000    0.0000 C   0  0  0  0  0  0  0  0  0  0  0  0
    1.4122    0.0000    0.0000 C   0  0  0  0  0  0  0  0  0  0  0  0
    2.0929    0.0000    1.2070 C   0  0  0  0  0  0  0  0  0  0  0  0
    1.3946   -0.0063    2.4204 C   0  0  0  0  0  0  0  0  0  0  0  0
   -0.0048   -0.0192    2.4162 C   0  0  0  0  0  0  0  0  0  0  0  0
   -0.7082   -0.0159    1.2240 C   0  0  0  0  0  0  0  0  0  0  0  0
    2.2561    0.0138    3.9160 S   0  0  0  0  0  0  0  0  0  0  0  0
    1.4022   -0.4569    4.9847 O   0  0  0  0  0  0  0  0  0  0  0  0
    3.5887   -0.4983    3.7595 O   0  0  0  0  0  0  0  0  0  0  0  0
    2.3836    1.7294    4.3677 N   0  0  0  0  0  0  0  0  0  0  0  0
    2.9879    2.6985    3.6084 C   0  0  0  0  0  0  0  0  0  0  0  0
    3.3706    2.3799    2.3320 N   0  0  0  0  0  0  0  0  0  0  0  0
    3.9416    3.3561    1.5962 C   0  0  0  0  0  0  0  0  0  0  0  0
    4.1335    4.6468    2.1061 C   0  0  0  0  0  0  0  0  0  0  0  0
    3.7071    4.8985    3.4219 C   0  0  0  0  0  0  0  0  0  0  0  0
    3.1358    3.9415    4.1760 N   0  0  0  0  0  0  0  0  0  0  0  0
    3.8772    6.2381    4.0533 C   0  0  0  0  0  0  0  0  0  0  0  0
    4.3674    2.9747    0.2190 C   0  0  0  0  0  0  0  0  0  0  0  0
   -0.6887    0.0121   -1.1918 N   0  0  0  0  0  0  0  0  0  0  0  0
    1.9571    0.0051   -0.9359 H   0  0  0  0  0  0  0  0  0  0  0  0
    3.1936    0.0129    1.2007 H   0  0  0  0  0  0  0  0  0  0  0  0
   -0.5639   -0.0372    3.3618 H   0  0  0  0  0  0  0  0  0  0  0  0
   -1.7915   -0.0226    1.2257 H   0  0  0  0  0  0  0  0  0  0  0  0
    2.1188    1.9999    5.3209 H   0  0  0  0  0  0  0  0  0  0  0  0
    4.5955    5.4224    1.5135 H   0  0  0  0  0  0  0  0  0  0  0  0
    3.3041    6.3267    4.9927 H   0  0  0  0  0  0  0  0  0  0  0  0
    3.5479    7.0472    3.3866 H   0  0  0  0  0  0  0  0  0  0  0  0
    4.9342    6.4182    4.3069 H   0  0  0  0  0  0  0  0  0  0  0  0
    4.4121    3.8362   -0.4584 H   0  0  0  0  0  0  0  0  0  0  0  0
    3.6867    2.2289   -0.2248 H   0  0  0  0  0  0  0  0  0  0  0  0
    5.3679    2.5101    0.2433 H   0  0  0  0  0  0  0  0  0  0  0  0
   -0.2123    0.0237   -2.0648 H   0  0  0  0  0  0  0  0  0  0  0  0
   -1.6831    0.0190   -1.2155 H   0  0  0  0  0  0  0  0  0  0  0  0
  1  2  2  0  0  0  0
  1  6  1  0  0  0  0
  2  3  1  0  0  0  0
  3  4  2  0  0  0  0
  4  7  1  0  0  0  0
  5  4  1  0  0  0  0
  5 22  1  0  0  0  0
  6 23  1  0  0  0  0
  6  5  2  0  0  0  0
  7 10  1  0  0  0  0
  7  8  2  0  0  0  0
  9  7  2  0  0  0  0
 10 24  1  0  0  0  0
 11 16  2  0  0  0  0
 11 10  1  0  0  0  0
 12 11  2  0  0  0  0
 13 14  1  0  0  0  0
 13 12  2  0  0  0  0
 14 15  1  0  0  0  0
 15 17  1  0  0  0  0
 15 16  2  0  0  0  0
 17 28  1  0  0  0  0
 17 26  1  0  0  0  0
 18 31  1  0  0  0  0
 18 13  1  0  0  0  0
 19  1  1  0  0  0  0
 20  2  1  0  0  0  0
 21  3  1  0  0  0  0
 25 14  1  0  0  0  0
 27 17  1  0  0  0  0
 29 18  1  0  0  0  0
 30 18  1  0  0  0  0
 32 19  1  0  0  0  0
 33 19  1  0  0  0  0
M  RAD  1  14   2
M  END
$$$$
