rmsd24.gzmat
 OpenBabel08211713383D

 33 34  0  0  0  0  0  0  0  0999 V2000
    0.0000    0.0000    0.0000 C   0  0  0  0  0  0  0  0  0  0  0  0
    1.4141    0.0000    0.0000 C   0  0  0  0  0  0  0  0  0  0  0  0
    2.0939    0.0000    1.2059 C   0  0  0  0  0  0  0  0  0  0  0  0
    1.3959    0.0032    2.4188 C   0  0  0  0  0  0  0  0  0  0  0  0
   -0.0045   -0.0034    2.4154 C   0  0  0  0  0  0  0  0  0  0  0  0
   -0.7085   -0.0087    1.2218 C   0  0  0  0  0  0  0  0  0  0  0  0
    2.2525    0.0341    3.9165 S   0  0  0  0  0  0  0  0  0  0  0  0
    1.4292   -0.4384    4.9950 O   0  0  0  0  0  0  0  0  0  0  0  0
    3.5952   -0.4715    3.7334 O   0  0  0  0  0  0  0  0  0  0  0  0
    2.6188    1.7464    4.2290 N   0  0  0  0  0  0  0  0  0  0  0  0
    1.6931    2.7565    4.2800 C   0  0  0  0  0  0  0  0  0  0  0  0
    0.4054    2.4819    3.8979 N   0  0  0  0  0  0  0  0  0  0  0  0
   -0.4745    3.5036    3.9180 C   0  0  0  0  0  0  0  0  0  0  0  0
   -0.0979    4.7940    4.3144 C   0  0  0  0  0  0  0  0  0  0  0  0
    1.2401    4.9963    4.6931 C   0  0  0  0  0  0  0  0  0  0  0  0
    2.1382    3.9942    4.6787 N   0  0  0  0  0  0  0  0  0  0  0  0
    1.7316    6.3343    5.1290 C   0  0  0  0  0  0  0  0  0  0  0  0
   -1.8713    3.1892    3.4998 C   0  0  0  0  0  0  0  0  0  0  0  0
   -0.6862   -0.0058   -1.1937 N   0  0  0  0  0  0  0  0  0  0  0  0
    1.9580    0.0002   -0.9371 H   0  0  0  0  0  0  0  0  0  0  0  0
    3.1923   -0.0067    1.1956 H   0  0  0  0  0  0  0  0  0  0  0  0
   -0.5612    0.0046    3.3649 H   0  0  0  0  0  0  0  0  0  0  0  0
   -1.7914   -0.0150    1.2247 H   0  0  0  0  0  0  0  0  0  0  0  0
    3.5704    1.9899    4.5258 H   0  0  0  0  0  0  0  0  0  0  0  0
   -0.8099    5.6054    4.3301 H   0  0  0  0  0  0  0  0  0  0  0  0
    2.7889    6.3029    5.4458 H   0  0  0  0  0  0  0  0  0  0  0  0
    1.1471    6.7160    5.9792 H   0  0  0  0  0  0  0  0  0  0  0  0
    1.6580    7.0689    4.3131 H   0  0  0  0  0  0  0  0  0  0  0  0
   -2.5490    3.1986    4.3681 H   0  0  0  0  0  0  0  0  0  0  0  0
   -1.9495    2.1896    3.0397 H   0  0  0  0  0  0  0  0  0  0  0  0
   -2.2487    3.9209    2.7717 H   0  0  0  0  0  0  0  0  0  0  0  0
   -0.2079    0.0313   -2.0649 H   0  0  0  0  0  0  0  0  0  0  0  0
   -1.6799    0.0298   -1.2184 H   0  0  0  0  0  0  0  0  0  0  0  0
  1  2  2  0  0  0  0
  1  6  1  0  0  0  0
  2  3  1  0  0  0  0
  3  4  2  0  0  0  0
  4  7  1  0  0  0  0
  5  4  1  0  0  0  0
  5 22  1  0  0  0  0
  6 23  1  0  0  0  0
  6  5  2  0  0  0  0
  7 10  1  0  0  0  0
  7  8  2  0  0  0  0
  9  7  2  0  0  0  0
 10 11  1  0  0  0  0
 10 24  1  0  0  0  0
 11 16  2  0  0  0  0
 12 13  2  0  0  0  0
 12 11  2  0  0  0  0
 13 14  1  0  0  0  0
 14 25  1  0  0  0  0
 14 15  1  0  0  0  0
 15 17  1  0  0  0  0
 16 15  2  0  0  0  0
 17 26  1  0  0  0  0
 17 27  1  0  0  0  0
 18 13  1  0  0  0  0
 18 29  1  0  0  0  0
 19  1  1  0  0  0  0
 20  2  1  0  0  0  0
 21  3  1  0  0  0  0
 28 17  1  0  0  0  0
 30 18  1  0  0  0  0
 31 18  1  0  0  0  0
 32 19  1  0  0  0  0
 33 19  1  0  0  0  0
M  RAD  1  14   2
M  END
$$$$
