36

C         -0.08870       -0.51050        0.08720
C          1.26010       -0.11910       -0.11610
C          2.16260       -0.10990        0.94560
C          1.73620       -0.49030        2.22570
C          0.41420       -0.87530        2.43070
C         -0.50000       -0.88770        1.37050
O          1.56600        0.23160       -1.40360
C          2.88100        0.63400       -1.70870
N         -0.90650       -0.48210       -1.04770
C         -2.24670       -0.81230       -1.13840
O         -2.92330       -1.18980       -0.19690
N         -2.72600       -0.66230       -2.42730
C         -4.02230       -0.90140       -2.89610
C         -4.23180       -0.65740       -4.27830
C         -5.48510       -0.86310       -4.85170
C         -6.54880       -1.31460       -4.05810
C         -6.34880       -1.55540       -2.70160
C         -5.09340       -1.35180       -2.11630
O         -3.12580       -0.21960       -4.95590
C         -3.23120        0.05200       -6.33400
H          3.19790        0.19120        0.78690
H          2.44790       -0.48120        3.05400
H          0.07680       -1.17260        3.42600
H         -1.53470       -1.18640        1.51680
H          2.90030        0.86490       -2.78200
H          3.61050       -0.16850       -1.49940
H          3.17240        1.53540       -1.14090
H         -0.41730       -0.17940       -1.88240
H         -2.09460       -0.34000       -3.15200
H         -5.64350       -0.67500       -5.91340
H         -7.52880       -1.47400       -4.51290
H         -7.17420       -1.90720       -2.07880
H         -4.92380       -1.53580       -1.05860
H         -2.23970        0.38560       -6.66760
H         -3.96690        0.85080       -6.53580
H         -3.51950       -0.84840       -6.90500
