rmsd246.gzmat
 OpenBabel08211713403D

 36 37  0  0  0  0  0  0  0  0999 V2000
    0.0000    0.0000    0.0000 C   0  0  0  0  0  0  0  0  0  0  0  0
    1.4127    0.0000    0.0000 C   0  0  0  0  0  0  0  0  0  0  0  0
    2.1409    0.0000    1.1814 C   0  0  0  0  0  0  0  0  0  0  0  0
    1.4561   -0.0038    2.3957 C   0  0  0  0  0  0  0  0  0  0  0  0
    0.0630   -0.0015    2.4118 C   0  0  0  0  0  0  0  0  0  0  0  0
   -0.6702    0.0057    1.2269 C   0  0  0  0  0  0  0  0  0  0  0  0
    2.0430    0.1087   -1.2205 O   0  0  0  0  0  0  0  0  0  0  0  0
    2.6199   -1.1205   -1.6529 C   0  0  0  0  0  0  0  0  0  0  0  0
   -0.6502    0.0452   -1.2514 N   0  0  0  0  0  0  0  0  0  0  0  0
   -1.9251   -0.5066   -1.4380 C   0  0  0  0  0  0  0  0  0  0  0  0
   -2.6075   -0.9301   -0.5308 O   0  0  0  0  0  0  0  0  0  0  0  0
   -2.3118   -0.5484   -2.7900 N   0  0  0  0  0  0  0  0  0  0  0  0
   -3.6032   -1.0068   -3.1499 C   0  0  0  0  0  0  0  0  0  0  0  0
   -4.2190   -0.4644   -4.3086 C   0  0  0  0  0  0  0  0  0  0  0  0
   -5.4509   -0.9256   -4.7494 C   0  0  0  0  0  0  0  0  0  0  0  0
   -6.0959   -1.9355   -4.0312 C   0  0  0  0  0  0  0  0  0  0  0  0
   -5.5057   -2.4763   -2.8960 C   0  0  0  0  0  0  0  0  0  0  0  0
   -4.2614   -2.0214   -2.4557 C   0  0  0  0  0  0  0  0  0  0  0  0
   -3.4708    0.5024   -4.9154 O   0  0  0  0  0  0  0  0  0  0  0  0
   -4.0788    1.2165   -5.9816 C   0  0  0  0  0  0  0  0  0  0  0  0
    3.2273    0.0089    1.1503 H   0  0  0  0  0  0  0  0  0  0  0  0
    2.0127   -0.0069    3.3300 H   0  0  0  0  0  0  0  0  0  0  0  0
   -0.4658   -0.0019    3.3643 H   0  0  0  0  0  0  0  0  0  0  0  0
   -1.7629    0.0106    1.2601 H   0  0  0  0  0  0  0  0  0  0  0  0
    3.0603   -0.8545   -2.6218 H   0  0  0  0  0  0  0  0  0  0  0  0
    1.8499   -1.8901   -1.7673 H   0  0  0  0  0  0  0  0  0  0  0  0
    3.3959   -1.4496   -0.9557 H   0  0  0  0  0  0  0  0  0  0  0  0
   -0.0472    0.2448   -2.0473 H   0  0  0  0  0  0  0  0  0  0  0  0
   -1.8752    0.0881   -3.4528 H   0  0  0  0  0  0  0  0  0  0  0  0
   -5.9184   -0.5176   -5.6391 H   0  0  0  0  0  0  0  0  0  0  0  0
   -7.0653   -2.2974   -4.3683 H   0  0  0  0  0  0  0  0  0  0  0  0
   -6.0120   -3.2624   -2.3384 H   0  0  0  0  0  0  0  0  0  0  0  0
   -3.8106   -2.4603   -1.5605 H   0  0  0  0  0  0  0  0  0  0  0  0
   -3.3211    1.9789   -6.2094 H   0  0  0  0  0  0  0  0  0  0  0  0
   -5.0139    1.6872   -5.6621 H   0  0  0  0  0  0  0  0  0  0  0  0
   -4.2344    0.5591   -6.8425 H   0  0  0  0  0  0  0  0  0  0  0  0
  1  6  1  0  0  0  0
  2  1  2  0  0  0  0
  2  3  1  0  0  0  0
  3  4  2  0  0  0  0
  4  5  1  0  0  0  0
  4 22  1  0  0  0  0
  5 23  1  0  0  0  0
  6 24  1  0  0  0  0
  6  5  2  0  0  0  0
  7  2  1  0  0  0  0
  8  7  1  0  0  0  0
  8 27  1  0  0  0  0
  9  1  1  0  0  0  0
 10  9  1  0  0  0  0
 10 11  2  0  0  0  0
 12 10  1  0  0  0  0
 13 12  1  0  0  0  0
 13 18  2  0  0  0  0
 14 13  1  0  0  0  0
 15 14  2  0  0  0  0
 15 16  1  0  0  0  0
 16 17  2  0  0  0  0
 17 18  1  0  0  0  0
 17 32  1  0  0  0  0
 18 33  1  0  0  0  0
 19 14  1  0  0  0  0
 20 35  1  0  0  0  0
 20 19  1  0  0  0  0
 21  3  1  0  0  0  0
 25  8  1  0  0  0  0
 26  8  1  0  0  0  0
 28  9  1  0  0  0  0
 29 12  1  0  0  0  0
 30 15  1  0  0  0  0
 31 16  1  0  0  0  0
 34 20  1  0  0  0  0
 36 20  1  0  0  0  0
M  END
$$$$
