rmsd239.gzmat
 OpenBabel08211713403D

 36 37  0  0  0  0  0  0  0  0999 V2000
    0.0000    0.0000    0.0000 C   0  0  0  0  0  0  0  0  0  0  0  0
    1.4212    0.0000    0.0000 C   0  0  0  0  0  0  0  0  0  0  0  0
    2.1410    0.0000    1.1849 C   0  0  0  0  0  0  0  0  0  0  0  0
    1.4506    0.0060    2.3998 C   0  0  0  0  0  0  0  0  0  0  0  0
    0.0617    0.0055    2.4160 C   0  0  0  0  0  0  0  0  0  0  0  0
   -0.6667   -0.0041    1.2243 C   0  0  0  0  0  0  0  0  0  0  0  0
    1.9659   -0.0466   -1.2530 O   0  0  0  0  0  0  0  0  0  0  0  0
    3.3235    0.3516   -1.3729 C   0  0  0  0  0  0  0  0  0  0  0  0
   -0.6585   -0.0386   -1.2495 N   0  0  0  0  0  0  0  0  0  0  0  0
   -1.9554    0.4616   -1.4255 C   0  0  0  0  0  0  0  0  0  0  0  0
   -2.6496    0.8573   -0.5146 O   0  0  0  0  0  0  0  0  0  0  0  0
   -2.3684    0.4374   -2.7638 N   0  0  0  0  0  0  0  0  0  0  0  0
   -3.6406    0.8563   -3.1954 C   0  0  0  0  0  0  0  0  0  0  0  0
   -3.8296    0.9862   -4.5919 C   0  0  0  0  0  0  0  0  0  0  0  0
   -5.0497    1.3682   -5.1309 C   0  0  0  0  0  0  0  0  0  0  0  0
   -6.1142    1.6372   -4.2714 C   0  0  0  0  0  0  0  0  0  0  0  0
   -5.9431    1.5193   -2.8941 C   0  0  0  0  0  0  0  0  0  0  0  0
   -4.7209    1.1282   -2.3504 C   0  0  0  0  0  0  0  0  0  0  0  0
   -2.7831    0.6146   -5.4083 O   0  0  0  0  0  0  0  0  0  0  0  0
   -2.1294    1.7307   -6.0069 C   0  0  0  0  0  0  0  0  0  0  0  0
    3.2262   -0.0083    1.1817 H   0  0  0  0  0  0  0  0  0  0  0  0
    2.0095    0.0095    3.3336 H   0  0  0  0  0  0  0  0  0  0  0  0
   -0.4729    0.0123    3.3645 H   0  0  0  0  0  0  0  0  0  0  0  0
   -1.7603   -0.0080    1.2600 H   0  0  0  0  0  0  0  0  0  0  0  0
    3.4652    0.3671   -2.4619 H   0  0  0  0  0  0  0  0  0  0  0  0
    3.9816   -0.3903   -0.9106 H   0  0  0  0  0  0  0  0  0  0  0  0
    3.4826    1.3479   -0.9491 H   0  0  0  0  0  0  0  0  0  0  0  0
   -0.0751   -0.2510   -2.0516 H   0  0  0  0  0  0  0  0  0  0  0  0
   -1.7429    0.1161   -3.4994 H   0  0  0  0  0  0  0  0  0  0  0  0
   -5.1674    1.4449   -6.2091 H   0  0  0  0  0  0  0  0  0  0  0  0
   -7.0769    1.9355   -4.6787 H   0  0  0  0  0  0  0  0  0  0  0  0
   -6.7769    1.7319   -2.2252 H   0  0  0  0  0  0  0  0  0  0  0  0
   -4.6165    1.0383   -1.2654 H   0  0  0  0  0  0  0  0  0  0  0  0
   -2.8269    2.3109   -6.6183 H   0  0  0  0  0  0  0  0  0  0  0  0
   -1.3684    1.2560   -6.6381 H   0  0  0  0  0  0  0  0  0  0  0  0
   -1.6698    2.3620   -5.2403 H   0  0  0  0  0  0  0  0  0  0  0  0
  1  6  1  0  0  0  0
  2  1  2  0  0  0  0
  2  3  1  0  0  0  0
  3  4  2  0  0  0  0
  4  5  1  0  0  0  0
  4 22  1  0  0  0  0
  5 23  1  0  0  0  0
  6 24  1  0  0  0  0
  6  5  2  0  0  0  0
  7  2  1  0  0  0  0
  8  7  1  0  0  0  0
  8 27  1  0  0  0  0
  8 26  1  0  0  0  0
  9  1  1  0  0  0  0
 10  9  1  0  0  0  0
 10 11  2  0  0  0  0
 12 10  1  0  0  0  0
 13 12  1  0  0  0  0
 13 18  2  0  0  0  0
 14 13  1  0  0  0  0
 15 14  2  0  0  0  0
 15 16  1  0  0  0  0
 16 17  2  0  0  0  0
 17 18  1  0  0  0  0
 17 32  1  0  0  0  0
 18 33  1  0  0  0  0
 19 14  1  0  0  0  0
 20 19  1  0  0  0  0
 20 36  1  0  0  0  0
 21  3  1  0  0  0  0
 25  8  1  0  0  0  0
 28  9  1  0  0  0  0
 29 12  1  0  0  0  0
 30 15  1  0  0  0  0
 31 16  1  0  0  0  0
 34 20  1  0  0  0  0
 35 20  1  0  0  0  0
M  END
$$$$
