36
rmsd48.gzmat
C          0.00000        0.00000        0.00000
C          1.41520        0.00000        0.00000
C          2.14400        0.00000        1.18050
C          1.46130        0.01130        2.39630
C          0.06860        0.01540        2.41330
C         -0.66610        0.00340        1.22900
O          2.03210       -0.10670       -1.22680
C          2.77220        1.05720       -1.58270
N         -0.64050       -0.04690       -1.25390
C         -1.98490        0.30030       -1.43870
O         -2.73200        0.59370       -0.53110
N         -2.36490        0.30930       -2.79150
C         -3.71970        0.46310       -3.17240
C         -4.13720       -0.10680       -4.40510
C         -5.43370        0.05600       -4.87010
C         -6.34480        0.78730       -4.10380
C         -5.95110        1.35220       -2.89750
C         -4.64420        1.19710       -2.43050
O         -3.15890       -0.82670       -5.03120
C         -3.37360       -1.14100       -6.39940
H          3.23070       -0.01690        1.15050
H          2.01910        0.01410        3.32970
H         -0.46010        0.02470        3.36640
H         -1.75910       -0.00120        1.26940
H          3.60610        1.21100       -0.89170
H          2.12210        1.93700       -1.60970
H          3.14320        0.80980       -2.58490
H         -0.02450       -0.19130       -2.05130
H         -1.76890       -0.13620       -3.48480
H         -5.75270       -0.38130       -5.81080
H         -7.36600        0.91100       -4.45850
H         -6.66340        1.92280       -2.30410
H         -4.35350        1.65300       -1.47920
H         -3.57450       -0.23990       -6.98710
H         -4.18060       -1.87390       -6.50080
H         -2.41140       -1.58490       -6.68930
