rmsd79.gzmat
 OpenBabel08211713403D

 36 37  0  0  0  0  0  0  0  0999 V2000
    0.0000    0.0000    0.0000 C   0  0  0  0  0  0  0  0  0  0  0  0
    1.4156    0.0000    0.0000 C   0  0  0  0  0  0  0  0  0  0  0  0
    2.1433    0.0000    1.1811 C   0  0  0  0  0  0  0  0  0  0  0  0
    1.4594   -0.0034    2.3964 C   0  0  0  0  0  0  0  0  0  0  0  0
    0.0669   -0.0008    2.4130 C   0  0  0  0  0  0  0  0  0  0  0  0
   -0.6669    0.0051    1.2276 C   0  0  0  0  0  0  0  0  0  0  0  0
    2.0213    0.1058   -1.2313 O   0  0  0  0  0  0  0  0  0  0  0  0
    2.8462   -1.0088   -1.5560 C   0  0  0  0  0  0  0  0  0  0  0  0
   -0.6415    0.0442   -1.2545 N   0  0  0  0  0  0  0  0  0  0  0  0
   -1.9814   -0.3175   -1.4392 C   0  0  0  0  0  0  0  0  0  0  0  0
   -2.7325   -0.6159   -0.5368 O   0  0  0  0  0  0  0  0  0  0  0  0
   -2.3653   -0.3120   -2.7925 N   0  0  0  0  0  0  0  0  0  0  0  0
   -3.7224   -0.4667   -3.1579 C   0  0  0  0  0  0  0  0  0  0  0  0
   -4.1757    0.2136   -4.3091 C   0  0  0  0  0  0  0  0  0  0  0  0
   -5.4734    0.0639   -4.7791 C   0  0  0  0  0  0  0  0  0  0  0  0
   -6.3489   -0.7707   -4.0860 C   0  0  0  0  0  0  0  0  0  0  0  0
   -5.9166   -1.4468   -2.9464 C   0  0  0  0  0  0  0  0  0  0  0  0
   -4.6108   -1.3071   -2.4802 C   0  0  0  0  0  0  0  0  0  0  0  0
   -3.2469    0.9548   -5.0065 O   0  0  0  0  0  0  0  0  0  0  0  0
   -3.4276    2.3589   -4.8416 C   0  0  0  0  0  0  0  0  0  0  0  0
    3.2302    0.0103    1.1536 H   0  0  0  0  0  0  0  0  0  0  0  0
    2.0170   -0.0053    3.3301 H   0  0  0  0  0  0  0  0  0  0  0  0
   -0.4630   -0.0021    3.3654 H   0  0  0  0  0  0  0  0  0  0  0  0
   -1.7599    0.0098    1.2666 H   0  0  0  0  0  0  0  0  0  0  0  0
    3.7335   -1.0267   -0.9167 H   0  0  0  0  0  0  0  0  0  0  0  0
    3.1263   -0.8044   -2.5970 H   0  0  0  0  0  0  0  0  0  0  0  0
    2.2891   -1.9470   -1.4768 H   0  0  0  0  0  0  0  0  0  0  0  0
   -0.0197    0.1526   -2.0543 H   0  0  0  0  0  0  0  0  0  0  0  0
   -1.7941    0.1759   -3.4824 H   0  0  0  0  0  0  0  0  0  0  0  0
   -5.7915    0.5893   -5.6761 H   0  0  0  0  0  0  0  0  0  0  0  0
   -7.3705   -0.8944   -4.4387 H   0  0  0  0  0  0  0  0  0  0  0  0
   -6.6066   -2.0963   -2.4088 H   0  0  0  0  0  0  0  0  0  0  0  0
   -4.2854   -1.8468   -1.5872 H   0  0  0  0  0  0  0  0  0  0  0  0
   -2.6055    2.7793   -5.4340 H   0  0  0  0  0  0  0  0  0  0  0  0
   -3.3373    2.6396   -3.7878 H   0  0  0  0  0  0  0  0  0  0  0  0
   -4.3941    2.6748   -5.2460 H   0  0  0  0  0  0  0  0  0  0  0  0
  1  2  2  0  0  0  0
  1  6  1  0  0  0  0
  2  3  1  0  0  0  0
  3  4  2  0  0  0  0
  4  5  1  0  0  0  0
  4 22  1  0  0  0  0
  5 23  1  0  0  0  0
  6 24  1  0  0  0  0
  6  5  2  0  0  0  0
  7  2  1  0  0  0  0
  8 27  1  0  0  0  0
  8  7  1  0  0  0  0
  8 25  1  0  0  0  0
  9  1  1  0  0  0  0
 10  9  1  0  0  0  0
 10 11  2  0  0  0  0
 12 10  1  0  0  0  0
 13 12  1  0  0  0  0
 13 18  2  0  0  0  0
 14 13  1  0  0  0  0
 15 14  2  0  0  0  0
 15 16  1  0  0  0  0
 16 17  2  0  0  0  0
 17 18  1  0  0  0  0
 17 32  1  0  0  0  0
 18 33  1  0  0  0  0
 19 20  1  0  0  0  0
 19 14  1  0  0  0  0
 20 35  1  0  0  0  0
 21  3  1  0  0  0  0
 26  8  1  0  0  0  0
 28  9  1  0  0  0  0
 29 12  1  0  0  0  0
 30 15  1  0  0  0  0
 31 16  1  0  0  0  0
 34 20  1  0  0  0  0
 36 20  1  0  0  0  0
M  END
$$$$
