36
rmsd123.gzmat
C          0.00000        0.00000        0.00000
C          1.42340        0.00000        0.00000
C          2.14210        0.00000        1.18520
C          1.45100       -0.01660        2.40030
C          0.06300       -0.01800        2.41660
C         -0.66520       -0.00450        1.22460
O          1.96310       -0.02170       -1.25470
C          3.36640        0.16810       -1.35740
N         -0.65250        0.02860       -1.25150
C         -1.99710       -0.31700       -1.41690
O         -2.73660       -0.61230       -0.50340
N         -2.41540       -0.25900       -2.75590
C         -3.70820       -0.65900       -3.15270
C         -3.87010       -1.09680       -4.48660
C         -5.11360       -1.44830       -4.99260
C         -6.22700       -1.37450       -4.15680
C         -6.08180       -0.95430       -2.83610
C         -4.83520       -0.59370       -2.32850
O         -2.76310       -1.06270       -5.30720
C         -2.18130       -2.35080       -5.49300
H          3.22750        0.00650        1.18660
H          2.00890       -0.03090        3.33430
H         -0.47120       -0.02800        3.36520
H         -1.75930        0.00060        1.26460
H          3.52390        0.14240       -2.44440
H          3.90570       -0.65350       -0.87500
H          3.66050        1.13870       -0.94660
H         -0.07080        0.24850       -2.05300
H         -1.73660       -0.18640       -3.51040
H         -5.20770       -1.76970       -6.02730
H         -7.20870       -1.64520       -4.53820
H         -6.95610       -0.90210       -2.18730
H         -4.74310       -0.26510       -1.28980
H         -2.89510       -3.03520       -5.96130
H         -1.82660       -2.75460       -4.53990
H         -1.34450       -2.14290       -6.17070
