36
rmsd239.gzmat
C          0.00000        0.00000        0.00000
C          1.42120        0.00000        0.00000
C          2.14100        0.00000        1.18490
C          1.45060        0.00600        2.39980
C          0.06170        0.00550        2.41600
C         -0.66670       -0.00410        1.22430
O          1.96590       -0.04660       -1.25300
C          3.32350        0.35160       -1.37290
N         -0.65850       -0.03860       -1.24950
C         -1.95540        0.46160       -1.42550
O         -2.64960        0.85730       -0.51460
N         -2.36840        0.43740       -2.76380
C         -3.64060        0.85630       -3.19540
C         -3.82960        0.98620       -4.59190
C         -5.04970        1.36820       -5.13090
C         -6.11420        1.63720       -4.27140
C         -5.94310        1.51930       -2.89410
C         -4.72090        1.12820       -2.35040
O         -2.78310        0.61460       -5.40830
C         -2.12940        1.73070       -6.00690
H          3.22620       -0.00830        1.18170
H          2.00950        0.00950        3.33360
H         -0.47290        0.01230        3.36450
H         -1.76030       -0.00800        1.26000
H          3.46520        0.36710       -2.46190
H          3.98160       -0.39030       -0.91060
H          3.48260        1.34790       -0.94910
H         -0.07510       -0.25100       -2.05160
H         -1.74290        0.11610       -3.49940
H         -5.16740        1.44490       -6.20910
H         -7.07690        1.93550       -4.67870
H         -6.77690        1.73190       -2.22520
H         -4.61650        1.03830       -1.26540
H         -2.82690        2.31090       -6.61830
H         -1.36840        1.25600       -6.63810
H         -1.66980        2.36200       -5.24030
