36
rmsd245.gzmat
C          0.00000        0.00000        0.00000
C          1.41500        0.00000        0.00000
C          2.14160        0.00000        1.18200
C          1.45560       -0.00300        2.39650
C          0.06330        0.00060        2.41300
C         -0.66890        0.00680        1.22660
O          2.00570        0.09800       -1.23720
C          2.95760       -0.92520       -1.50700
N         -0.65320        0.04910       -1.25070
C         -1.92780       -0.50450       -1.43730
O         -2.61390       -0.92550       -0.53200
N         -2.31540       -0.54400       -2.79040
C         -3.61780       -0.97960       -3.14060
C         -4.26410       -0.38410       -4.25570
C         -5.50610       -0.82820       -4.68610
C         -6.13010       -1.87260       -3.99930
C         -5.51150       -2.46290       -2.90460
C         -4.25760       -2.02440       -2.47500
O         -3.54260        0.62690       -4.82090
C         -4.11930        1.28690       -5.93830
H          3.22770        0.00930        1.15930
H          2.01340       -0.00600        3.33030
H         -0.46680        0.00070        3.36480
H         -1.76200        0.01100        1.26000
H          3.14190       -0.80520       -2.58220
H          2.54920       -1.91670       -1.29070
H          3.87390       -0.74570       -0.93710
H         -0.04650        0.22200       -2.05020
H         -1.87760        0.09190       -3.45290
H         -6.00090       -0.37850       -5.54050
H         -7.10710       -2.22080       -4.32900
H         -6.00270       -3.27440       -2.37110
H         -3.78250       -2.49840       -1.61080
H         -3.36700        2.05510       -6.16470
H         -5.07280        1.75280       -5.66960
H         -4.23210        0.59740       -6.78050
