36
rmsd162.gzmat
C          0.00000        0.00000        0.00000
C          1.42080        0.00000        0.00000
C          2.13800        0.00000        1.18710
C          1.44550        0.00870        2.40070
C          0.05680        0.01140        2.41650
C         -0.66880        0.00300        1.22310
O          1.95960        0.01420       -1.25410
C          3.36730       -0.14230       -1.35360
N         -0.67200       -0.05630       -1.24410
C         -1.91690        0.56490       -1.42400
O         -2.55270        1.05040       -0.51390
N         -2.34560        0.55370       -2.75880
C         -3.60230        1.03300       -3.17710
C         -3.92930        0.85790       -4.54350
C         -5.13410        1.30170       -5.06880
C         -6.04310        1.94490       -4.22980
C         -5.73330        2.13370       -2.88560
C         -4.52710        1.68140       -2.35360
O         -3.04310        0.13370       -5.31050
C         -2.37930        0.92640       -6.29080
H          3.22280        0.00110        1.18880
H          2.00320        0.01340        3.33520
H         -0.47880        0.01920        3.36420
H         -1.76270        0.00190        1.25350
H          3.52210       -0.14900       -2.44120
H          3.68960       -1.09030       -0.91190
H          3.88450        0.70810       -0.89780
H         -0.10190       -0.30860       -2.04390
H         -1.83140        0.02590       -3.46230
H         -5.36270        1.13900       -6.11920
H         -6.99150        2.29750       -4.62790
H         -6.44330        2.64220       -2.23340
H         -4.31500        1.84190       -1.29230
H         -1.75980        0.19060       -6.81740
H         -1.76280        1.69160       -5.80940
H         -3.09660        1.38310       -6.97900
