rmsd18.gzmat
 OpenBabel08211713413D

 36 38  0  0  0  0  0  0  0  0999 V2000
    0.0000    0.0000    0.0000 S   0  0  0  0  0  0  0  0  0  0  0  0
    1.6449    0.0000    0.0000 C   0  0  0  0  0  0  0  0  0  0  0  0
    2.3813    0.0000    1.2250 N   0  0  0  0  0  0  0  0  0  0  0  0
    3.7399    0.0742    1.2163 C   0  0  0  0  0  0  0  0  0  0  0  0
    4.4392    0.1510    0.0225 C   0  0  0  0  0  0  0  0  0  0  0  0
    3.6906    0.0475   -1.1909 C   0  0  0  0  0  0  0  0  0  0  0  0
    2.3675   -0.0064   -1.1629 N   0  0  0  0  0  0  0  0  0  0  0  0
    4.3300   -0.0273   -2.5162 C   0  0  0  0  0  0  0  0  0  0  0  0
    5.3213   -0.9826   -2.7557 C   0  0  0  0  0  0  0  0  0  0  0  0
    5.9327   -1.0392   -4.0049 C   0  0  0  0  0  0  0  0  0  0  0  0
    5.5565   -0.1472   -5.0088 C   0  0  0  0  0  0  0  0  0  0  0  0
    4.5511    0.7889   -4.7742 C   0  0  0  0  0  0  0  0  0  0  0  0
    3.9272    0.8451   -3.5300 C   0  0  0  0  0  0  0  0  0  0  0  0
    5.9048    0.3027    0.1073 C   0  0  0  0  0  0  0  0  0  0  0  0
    6.5109   -0.2402    1.0045 O   0  0  0  0  0  0  0  0  0  0  0  0
    6.6026    1.1525   -0.8835 C   0  0  0  0  0  0  0  0  0  0  0  0
    7.8600    0.7515   -1.3386 C   0  0  0  0  0  0  0  0  0  0  0  0
    8.5320    1.5263   -2.2812 C   0  0  0  0  0  0  0  0  0  0  0  0
    7.9573    2.7072   -2.7483 C   0  0  0  0  0  0  0  0  0  0  0  0
    6.7141    3.1204   -2.2701 C   0  0  0  0  0  0  0  0  0  0  0  0
    6.0329    2.3423   -1.3376 C   0  0  0  0  0  0  0  0  0  0  0  0
    1.6779   -0.0710    2.5113 C   0  0  0  0  0  0  0  0  0  0  0  0
    4.2752    0.0810    2.1821 H   0  0  0  0  0  0  0  0  0  0  0  0
    5.6121   -1.6806   -1.9709 H   0  0  0  0  0  0  0  0  0  0  0  0
    6.7055   -1.7806   -4.1985 H   0  0  0  0  0  0  0  0  0  0  0  0
    6.0454   -0.1874   -5.9804 H   0  0  0  0  0  0  0  0  0  0  0  0
    4.2473    1.4723   -5.5647 H   0  0  0  0  0  0  0  0  0  0  0  0
    3.1216    1.5582   -3.3463 H   0  0  0  0  0  0  0  0  0  0  0  0
    8.3096   -0.1656   -0.9533 H   0  0  0  0  0  0  0  0  0  0  0  0
    9.5051    1.2096   -2.6504 H   0  0  0  0  0  0  0  0  0  0  0  0
    8.4810    3.3110   -3.4875 H   0  0  0  0  0  0  0  0  0  0  0  0
    6.2723    4.0471   -2.6308 H   0  0  0  0  0  0  0  0  0  0  0  0
    5.0583    2.6607   -0.9685 H   0  0  0  0  0  0  0  0  0  0  0  0
    0.9997    0.7986    2.6356 H   0  0  0  0  0  0  0  0  0  0  0  0
    2.3782   -0.0823    3.3622 H   0  0  0  0  0  0  0  0  0  0  0  0
    1.0546   -0.9876    2.5703 H   0  0  0  0  0  0  0  0  0  0  0  0
  1  2  2  0  0  0  0
  2  3  1  0  0  0  0
  3 22  1  0  0  0  0
  4  3  1  0  0  0  0
  4 23  1  0  0  0  0
  5 14  1  0  0  0  0
  5  4  2  0  0  0  0
  6  7  2  0  0  0  0
  6  5  1  0  0  0  0
  7  2  2  0  0  0  0
  8  6  1  0  0  0  0
  9  8  1  0  0  0  0
  9 24  1  0  0  0  0
 10  9  2  0  0  0  0
 11 12  2  0  0  0  0
 11 10  1  0  0  0  0
 12 13  1  0  0  0  0
 13 28  1  0  0  0  0
 13  8  2  0  0  0  0
 14 15  2  0  0  0  0
 16 14  1  0  0  0  0
 17 29  1  0  0  0  0
 17 16  2  0  0  0  0
 18 17  1  0  0  0  0
 19 18  2  0  0  0  0
 19 20  1  0  0  0  0
 20 21  2  0  0  0  0
 21 33  1  0  0  0  0
 21 16  1  0  0  0  0
 22 36  1  0  0  0  0
 22 34  1  0  0  0  0
 22 35  1  0  0  0  0
 25 10  1  0  0  0  0
 26 11  1  0  0  0  0
 27 12  1  0  0  0  0
 30 18  1  0  0  0  0
 31 19  1  0  0  0  0
 32 20  1  0  0  0  0
M  END
$$$$
