rmsd9.gzmat
 OpenBabel08211713413D

 36 38  0  0  0  0  0  0  0  0999 V2000
    0.0000    0.0000    0.0000 S   0  0  0  0  0  0  0  0  0  0  0  0
    1.6443    0.0000    0.0000 C   0  0  0  0  0  0  0  0  0  0  0  0
    2.3805    0.0000    1.2258 N   0  0  0  0  0  0  0  0  0  0  0  0
    3.7330    0.1456    1.2195 C   0  0  0  0  0  0  0  0  0  0  0  0
    4.4282    0.2662    0.0269 C   0  0  0  0  0  0  0  0  0  0  0  0
    3.6909    0.0919   -1.1857 C   0  0  0  0  0  0  0  0  0  0  0  0
    2.3704   -0.0079   -1.1607 N   0  0  0  0  0  0  0  0  0  0  0  0
    4.3407   -0.0255   -2.5024 C   0  0  0  0  0  0  0  0  0  0  0  0
    5.3835   -0.9398   -2.6768 C   0  0  0  0  0  0  0  0  0  0  0  0
    5.9998   -1.0522   -3.9198 C   0  0  0  0  0  0  0  0  0  0  0  0
    5.5776   -0.2550   -4.9836 C   0  0  0  0  0  0  0  0  0  0  0  0
    4.5250    0.6419   -4.8122 C   0  0  0  0  0  0  0  0  0  0  0  0
    3.8957    0.7525   -3.5739 C   0  0  0  0  0  0  0  0  0  0  0  0
    5.8742    0.5433    0.1150 C   0  0  0  0  0  0  0  0  0  0  0  0
    6.5139    0.1034    1.0448 O   0  0  0  0  0  0  0  0  0  0  0  0
    6.5056    1.3938   -0.9186 C   0  0  0  0  0  0  0  0  0  0  0  0
    5.8489    2.5155   -1.4261 C   0  0  0  0  0  0  0  0  0  0  0  0
    6.4627    3.2856   -2.4104 C   0  0  0  0  0  0  0  0  0  0  0  0
    7.7265    2.9340   -2.8838 C   0  0  0  0  0  0  0  0  0  0  0  0
    8.3897    1.8261   -2.3586 C   0  0  0  0  0  0  0  0  0  0  0  0
    7.7846    1.0604   -1.3649 C   0  0  0  0  0  0  0  0  0  0  0  0
    1.6864   -0.1564    2.5091 C   0  0  0  0  0  0  0  0  0  0  0  0
    4.2677    0.1741    2.1855 H   0  0  0  0  0  0  0  0  0  0  0  0
    5.7097   -1.5640   -1.8453 H   0  0  0  0  0  0  0  0  0  0  0  0
    6.8123   -1.7624   -4.0608 H   0  0  0  0  0  0  0  0  0  0  0  0
    6.0682   -0.3390   -5.9520 H   0  0  0  0  0  0  0  0  0  0  0  0
    4.1889    1.2535   -5.6469 H   0  0  0  0  0  0  0  0  0  0  0  0
    3.0533    1.4336   -3.4392 H   0  0  0  0  0  0  0  0  0  0  0  0
    4.8588    2.7853   -1.0599 H   0  0  0  0  0  0  0  0  0  0  0  0
    5.9530    4.1579   -2.8144 H   0  0  0  0  0  0  0  0  0  0  0  0
    8.1977    3.5288   -3.6645 H   0  0  0  0  0  0  0  0  0  0  0  0
    9.3794    1.5598   -2.7228 H   0  0  0  0  0  0  0  0  0  0  0  0
    8.3026    0.2018   -0.9340 H   0  0  0  0  0  0  0  0  0  0  0  0
    1.0283    0.7142    2.7083 H   0  0  0  0  0  0  0  0  0  0  0  0
    2.3954   -0.2531    3.3480 H   0  0  0  0  0  0  0  0  0  0  0  0
    1.0452   -1.0628    2.5025 H   0  0  0  0  0  0  0  0  0  0  0  0
  1  2  2  0  0  0  0
  2  3  1  0  0  0  0
  3 22  1  0  0  0  0
  4  3  1  0  0  0  0
  4 23  1  0  0  0  0
  5 14  1  0  0  0  0
  5  4  2  0  0  0  0
  6  7  2  0  0  0  0
  6  5  1  0  0  0  0
  7  2  2  0  0  0  0
  8  6  1  0  0  0  0
  9  8  1  0  0  0  0
  9 24  1  0  0  0  0
 10  9  2  0  0  0  0
 11 12  2  0  0  0  0
 11 10  1  0  0  0  0
 12 13  1  0  0  0  0
 13 28  1  0  0  0  0
 13  8  2  0  0  0  0
 14 15  2  0  0  0  0
 16 14  1  0  0  0  0
 17 29  1  0  0  0  0
 17 16  2  0  0  0  0
 18 17  1  0  0  0  0
 19 18  2  0  0  0  0
 19 20  1  0  0  0  0
 20 21  2  0  0  0  0
 21 33  1  0  0  0  0
 21 16  1  0  0  0  0
 22 34  1  0  0  0  0
 22 35  1  0  0  0  0
 25 10  1  0  0  0  0
 26 11  1  0  0  0  0
 27 12  1  0  0  0  0
 30 18  1  0  0  0  0
 31 19  1  0  0  0  0
 32 20  1  0  0  0  0
 36 22  1  0  0  0  0
M  END
$$$$
