
     RDKit          3D

 36 38  0  0  0  0  0  0  0  0999 V2000
   -0.0464   -0.2803   -0.1767 S   0  0  0  0  0  0  0  0  0  0  0  0
    1.6091   -0.1440   -0.0880 C   0  0  0  0  0  0  0  0  0  0  0  0
    2.2558   -0.0613    1.1713 N   0  0  0  0  0  0  0  0  0  0  0  0
    3.6013   -0.0144    1.2404 C   0  0  0  0  0  0  0  0  0  0  0  0
    4.4112    0.0341    0.1281 C   0  0  0  0  0  0  0  0  0  0  0  0
    3.7206   -0.0017   -1.1458 C   0  0  0  0  0  0  0  0  0  0  0  0
    2.4094   -0.1119   -1.1836 N   0  0  0  0  0  0  0  0  0  0  0  0
    4.3914   -0.0434   -2.4733 C   0  0  0  0  0  0  0  0  0  0  0  0
    3.7985   -0.8430   -3.4712 C   0  0  0  0  0  0  0  0  0  0  0  0
    4.3585   -0.9215   -4.7432 C   0  0  0  0  0  0  0  0  0  0  0  0
    5.5055   -0.1813   -5.0515 C   0  0  0  0  0  0  0  0  0  0  0  0
    6.0828    0.6366   -4.0785 C   0  0  0  0  0  0  0  0  0  0  0  0
    5.5362    0.7062   -2.7948 C   0  0  0  0  0  0  0  0  0  0  0  0
    5.8882    0.1166    0.3866 C   0  0  0  0  0  0  0  0  0  0  0  0
    6.5799    1.0096   -0.0703 O   0  0  0  0  0  0  0  0  0  0  0  0
    6.4893   -0.9171    1.2915 C   0  0  0  0  0  0  0  0  0  0  0  0
    7.7409   -0.6387    1.8684 C   0  0  0  0  0  0  0  0  0  0  0  0
    8.3587   -1.5733    2.6952 C   0  0  0  0  0  0  0  0  0  0  0  0
    7.7419   -2.8062    2.9416 C   0  0  0  0  0  0  0  0  0  0  0  0
    6.5074   -3.1006    2.3567 C   0  0  0  0  0  0  0  0  0  0  0  0
    5.8804   -2.1595    1.5373 C   0  0  0  0  0  0  0  0  0  0  0  0
    1.4537   -0.0621    2.3895 C   0  0  0  0  0  0  0  0  0  0  0  0
    4.0274   -0.0113    2.2454 H   0  0  0  0  0  0  0  0  0  0  0  0
    2.8899   -1.3933   -3.2250 H   0  0  0  0  0  0  0  0  0  0  0  0
    3.8952   -1.5573   -5.5013 H   0  0  0  0  0  0  0  0  0  0  0  0
    5.9420   -0.2371   -6.0518 H   0  0  0  0  0  0  0  0  0  0  0  0
    6.9659    1.2337   -4.3176 H   0  0  0  0  0  0  0  0  0  0  0  0
    5.9861    1.3540   -2.0465 H   0  0  0  0  0  0  0  0  0  0  0  0
    8.2082    0.3228    1.6488 H   0  0  0  0  0  0  0  0  0  0  0  0
    9.3263   -1.3462    3.1487 H   0  0  0  0  0  0  0  0  0  0  0  0
    8.2290   -3.5414    3.5867 H   0  0  0  0  0  0  0  0  0  0  0  0
    6.0335   -4.0686    2.5341 H   0  0  0  0  0  0  0  0  0  0  0  0
    4.9259   -2.4016    1.0673 H   0  0  0  0  0  0  0  0  0  0  0  0
    0.7455    0.7779    2.3643 H   0  0  0  0  0  0  0  0  0  0  0  0
    2.1216    0.0189    3.2572 H   0  0  0  0  0  0  0  0  0  0  0  0
    0.8559   -0.9830    2.4397 H   0  0  0  0  0  0  0  0  0  0  0  0
  1  2  2  0
  2  3  1  0
  2  7  1  0
  3  4  1  0
  3 22  1  0
  4  5  2  0
  4 23  1  0
  5  6  1  0
  5 14  1  0
  6  7  2  0
  6  8  1  0
  8  9  2  0
  8 13  1  0
  9 10  1  0
  9 24  1  0
 10 11  2  0
 10 25  1  0
 11 12  1  0
 11 26  1  0
 12 13  2  0
 12 27  1  0
 13 28  1  0
 14 15  2  0
 14 16  1  0
 16 17  2  0
 16 21  1  0
 17 18  1  0
 17 29  1  0
 18 19  2  0
 18 30  1  0
 19 20  1  0
 19 31  1  0
 20 21  2  0
 20 32  1  0
 21 33  1  0
 22 34  1  0
 22 35  1  0
 22 36  1  0
M  END

