36
rmsd21.gzmat
S          0.00000        0.00000        0.00000
C          1.64480        0.00000        0.00000
N          2.38360        0.00000        1.22380
C          3.74090        0.09330        1.21410
C          4.43750        0.18820        0.01980
C          3.68930        0.06160       -1.19160
N          2.36680       -0.00800       -1.16270
C          4.32730       -0.02020       -2.51640
C          5.35010       -0.94560       -2.73910
C          5.96320       -1.00470       -3.98740
C          5.55480       -0.14720       -5.00850
C          4.51810        0.75840       -4.79030
C          3.89390        0.81790       -3.54640
C          5.89670        0.39050        0.10680
O          6.51620       -0.11110        1.01920
C          6.57080        1.24210       -0.89870
C          7.85740        0.88930       -1.31040
C          8.50880        1.65600       -2.27380
C          7.88410        2.78370       -2.80420
C          6.61330        3.15430       -2.36540
C          5.95300        2.38320       -1.41200
C          1.68470       -0.10830        2.50940
H          4.27850        0.10040        2.17890
H          5.66570       -1.61830       -1.94210
H          6.76340       -1.72060       -4.16340
H          6.04300       -0.19020       -5.98060
H          4.19090        1.41760       -5.59180
H          3.06510        1.50720       -3.37450
H          8.34550        0.01530       -0.87460
H          9.50440        1.37420       -2.61050
H          8.39100        3.37940       -3.56160
H          6.13360        4.04230       -2.77220
H          4.95650        2.66870       -1.07570
H          0.97530        0.73510        2.64300
H          2.38630       -0.10000        3.35970
H          1.09840       -1.04940        2.55710
