
     RDKit          3D

 36 38  0  0  0  0  0  0  0  0999 V2000
    0.0484    0.6352    0.1423 S   0  0  0  0  0  0  0  0  0  0  0  0
    1.6672    0.2800    0.0254 C   0  0  0  0  0  0  0  0  0  0  0  0
    2.4299   -0.0042    1.1939 N   0  0  0  0  0  0  0  0  0  0  0  0
    3.7733   -0.0214    1.1336 C   0  0  0  0  0  0  0  0  0  0  0  0
    4.4636    0.1326   -0.0500 C   0  0  0  0  0  0  0  0  0  0  0  0
    3.6444    0.1282   -1.2372 C   0  0  0  0  0  0  0  0  0  0  0  0
    2.3361    0.2238   -1.1537 N   0  0  0  0  0  0  0  0  0  0  0  0
    4.2092   -0.0435   -2.5967 C   0  0  0  0  0  0  0  0  0  0  0  0
    5.3610   -0.8142   -2.8235 C   0  0  0  0  0  0  0  0  0  0  0  0
    5.8712   -0.9564   -4.1132 C   0  0  0  0  0  0  0  0  0  0  0  0
    5.2387   -0.3276   -5.1896 C   0  0  0  0  0  0  0  0  0  0  0  0
    4.0788    0.4246   -4.9744 C   0  0  0  0  0  0  0  0  0  0  0  0
    3.5594    0.5567   -3.6880 C   0  0  0  0  0  0  0  0  0  0  0  0
    5.9508    0.2456    0.0676 C   0  0  0  0  0  0  0  0  0  0  0  0
    6.5366   -0.3701    0.9462 O   0  0  0  0  0  0  0  0  0  0  0  0
    6.6950    1.1709   -0.8420 C   0  0  0  0  0  0  0  0  0  0  0  0
    8.0762    0.9723   -0.9950 C   0  0  0  0  0  0  0  0  0  0  0  0
    8.8192    1.8077   -1.8262 C   0  0  0  0  0  0  0  0  0  0  0  0
    8.1919    2.8647   -2.4955 C   0  0  0  0  0  0  0  0  0  0  0  0
    6.8222    3.0863   -2.3252 C   0  0  0  0  0  0  0  0  0  0  0  0
    6.0754    2.2414   -1.5044 C   0  0  0  0  0  0  0  0  0  0  0  0
    1.7469   -0.1534    2.4754 C   0  0  0  0  0  0  0  0  0  0  0  0
    4.3196   -0.1433    2.0712 H   0  0  0  0  0  0  0  0  0  0  0  0
    5.8514   -1.3238   -1.9929 H   0  0  0  0  0  0  0  0  0  0  0  0
    6.7653   -1.5614   -4.2786 H   0  0  0  0  0  0  0  0  0  0  0  0
    5.6452   -0.4308   -6.1985 H   0  0  0  0  0  0  0  0  0  0  0  0
    3.5764    0.9083   -5.8154 H   0  0  0  0  0  0  0  0  0  0  0  0
    2.6490    1.1276   -3.5004 H   0  0  0  0  0  0  0  0  0  0  0  0
    8.5443    0.1480   -0.4541 H   0  0  0  0  0  0  0  0  0  0  0  0
    9.8910    1.6387   -1.9537 H   0  0  0  0  0  0  0  0  0  0  0  0
    8.7735    3.5204   -3.1481 H   0  0  0  0  0  0  0  0  0  0  0  0
    6.3330    3.9182   -2.8365 H   0  0  0  0  0  0  0  0  0  0  0  0
    5.0078    2.4224   -1.3749 H   0  0  0  0  0  0  0  0  0  0  0  0
    1.2766    0.7970    2.7647 H   0  0  0  0  0  0  0  0  0  0  0  0
    2.4757   -0.4744    3.2308 H   0  0  0  0  0  0  0  0  0  0  0  0
    0.9424   -0.8942    2.3728 H   0  0  0  0  0  0  0  0  0  0  0  0
  1  2  2  0
  2  3  1  0
  2  7  1  0
  3  4  1  0
  3 22  1  0
  4  5  2  0
  4 23  1  0
  5  6  1  0
  5 14  1  0
  6  7  2  0
  6  8  1  0
  8  9  2  0
  8 13  1  0
  9 10  1  0
  9 24  1  0
 10 11  2  0
 10 25  1  0
 11 12  1  0
 11 26  1  0
 12 13  2  0
 12 27  1  0
 13 28  1  0
 14 15  2  0
 14 16  1  0
 16 17  2  0
 16 21  1  0
 17 18  1  0
 17 29  1  0
 18 19  2  0
 18 30  1  0
 19 20  1  0
 19 31  1  0
 20 21  2  0
 20 32  1  0
 21 33  1  0
 22 34  1  0
 22 35  1  0
 22 36  1  0
M  END

