36
rmsd12.gzmat
S          0.00000        0.00000        0.00000
C          1.64590        0.00000        0.00000
N          2.37690        0.00000        1.22680
C          3.73880       -0.03720        1.22430
C          4.44310       -0.05220        0.03660
C          3.69570       -0.01090       -1.18320
N          2.37200       -0.00440       -1.16090
C          4.34960       -0.00930       -2.50270
C          4.12810       -1.07160       -3.38240
C          4.74360       -1.06770       -4.63130
C          5.56360       -0.00260       -5.00250
C          5.77150        1.06120       -4.12620
C          5.16490        1.06230       -2.87190
C          5.91980       -0.10890        0.05870
O          6.59800        0.66120       -0.57500
C          6.52560       -1.13890        0.93920
C          7.74420       -0.85460        1.55680
C          8.31780       -1.78950        2.41620
C          7.68460       -3.01120        2.63830
C          6.48460       -3.30760        1.99150
C          5.90310       -2.37160        1.14050
C          1.67250        0.03550        2.51340
H          4.26050       -0.05550        2.19380
H          3.46850       -1.89010       -3.09430
H          4.57620       -1.89280       -5.32010
H          6.03970        0.00040       -5.98140
H          6.41050        1.89230       -4.41750
H          5.33120        1.89170       -2.18190
H          8.24340        0.09680        1.35810
H          9.26260       -1.56760        2.90870
H          8.13110       -3.73940        3.31420
H          6.00440       -4.27140        2.14980
H          4.97050       -2.60690        0.62670
H          0.99630        0.91420        2.56740
H          2.37180        0.09560        3.36280
H          1.04900       -0.87320        2.64320
