
     RDKit          3D

 48 50  0  0  0  0  0  0  0  0999 V2000
    0.0480   -0.2177    0.1665 O   0  0  0  0  0  0  0  0  0  0  0  0
    1.2490   -0.1187    0.0838 C   0  0  0  0  0  0  0  0  0  0  0  0
    2.0734   -0.0288    1.1956 N   0  0  0  0  0  0  0  0  0  0  0  0
    1.5942   -0.0593    2.0933 H   0  0  0  0  0  0  0  0  0  0  0  0
    3.4595    0.1290    1.2142 C   0  0  0  0  0  0  0  0  0  0  0  0
    4.0974    0.2082    2.2408 O   0  0  0  0  0  0  0  0  0  0  0  0
    4.0083    0.1844   -0.1504 C   0  0  0  0  0  0  0  0  0  0  0  0
    3.2913    0.0824   -1.2157 N   0  0  0  0  0  0  0  0  0  0  0  0
    1.9597   -0.0846   -1.1358 N   0  0  0  0  0  0  0  0  0  0  0  0
    1.2609   -0.1206   -2.3924 C   0  0  0  0  0  0  0  0  0  0  0  0
    0.1886   -0.9940   -2.5915 C   0  0  0  0  0  0  0  0  0  0  0  0
   -0.4710   -1.0268   -3.8245 C   0  0  0  0  0  0  0  0  0  0  0  0
   -1.6410   -1.9390   -4.0735 C   0  0  0  0  0  0  0  0  0  0  0  0
   -0.0178   -0.1765   -4.8438 C   0  0  0  0  0  0  0  0  0  0  0  0
    1.0625    0.7010   -4.6670 C   0  0  0  0  0  0  0  0  0  0  0  0
    1.6968    0.7180   -3.4217 C   0  0  0  0  0  0  0  0  0  0  0  0
    1.4941    1.5977   -5.7951 C   0  0  0  0  0  0  0  0  0  0  0  0
   -0.6314   -0.2294   -6.0771 O   0  0  0  0  0  0  0  0  0  0  0  0
   -1.7158    0.5858   -6.3211 C   0  0  0  0  0  0  0  0  0  0  0  0
   -2.3084    0.4889   -7.5797 C   0  0  0  0  0  0  0  0  0  0  0  0
   -3.4092    1.2927   -7.8769 C   0  0  0  0  0  0  0  0  0  0  0  0
   -3.9182    2.1885   -6.9309 C   0  0  0  0  0  0  0  0  0  0  0  0
   -3.3286    2.2899   -5.6550 C   0  0  0  0  0  0  0  0  0  0  0  0
   -2.2254    1.4772   -5.3710 C   0  0  0  0  0  0  0  0  0  0  0  0
   -3.8820    3.2915   -4.6552 C   0  0  0  0  0  0  0  0  0  0  0  0
   -3.5386    2.9632   -3.2003 C   0  0  0  0  0  0  0  0  0  0  0  0
   -3.4286    4.7166   -5.0201 C   0  0  0  0  0  0  0  0  0  0  0  0
   -4.9916    2.9920   -7.1964 O   0  0  0  0  0  0  0  0  0  0  0  0
    5.0866    0.3141   -0.2687 H   0  0  0  0  0  0  0  0  0  0  0  0
   -0.1484   -1.6425   -1.7855 H   0  0  0  0  0  0  0  0  0  0  0  0
   -1.4932   -2.5277   -4.9918 H   0  0  0  0  0  0  0  0  0  0  0  0
   -2.5676   -1.3588   -4.2175 H   0  0  0  0  0  0  0  0  0  0  0  0
   -1.7956   -2.6260   -3.2302 H   0  0  0  0  0  0  0  0  0  0  0  0
    2.5458    1.3798   -3.2496 H   0  0  0  0  0  0  0  0  0  0  0  0
    2.4043    2.1551   -5.5340 H   0  0  0  0  0  0  0  0  0  0  0  0
    0.7038    2.3246   -6.0457 H   0  0  0  0  0  0  0  0  0  0  0  0
    1.6851    1.0148   -6.7093 H   0  0  0  0  0  0  0  0  0  0  0  0
   -1.9036   -0.2137   -8.3096 H   0  0  0  0  0  0  0  0  0  0  0  0
   -3.8815    1.2225   -8.8619 H   0  0  0  0  0  0  0  0  0  0  0  0
   -1.7530    1.5330   -4.3915 H   0  0  0  0  0  0  0  0  0  0  0  0
   -4.9793    3.2633   -4.7621 H   0  0  0  0  0  0  0  0  0  0  0  0
   -2.4598    3.0687   -3.0003 H   0  0  0  0  0  0  0  0  0  0  0  0
   -3.8319    1.9364   -2.9321 H   0  0  0  0  0  0  0  0  0  0  0  0
   -4.0616    3.6549   -2.5219 H   0  0  0  0  0  0  0  0  0  0  0  0
   -2.3319    4.8029   -4.9483 H   0  0  0  0  0  0  0  0  0  0  0  0
   -3.8745    5.4559   -4.3350 H   0  0  0  0  0  0  0  0  0  0  0  0
   -3.7292    4.9746   -6.0455 H   0  0  0  0  0  0  0  0  0  0  0  0
   -5.3123    2.8113   -8.0888 H   0  0  0  0  0  0  0  0  0  0  0  0
  1  2  2  0
  2  3  1  0
  2  9  1  0
  3  4  1  0
  3  5  1  0
  5  6  2  0
  5  7  1  0
  7  8  2  0
  7 29  1  0
  8  9  1  0
  9 10  1  0
 10 11  2  0
 10 16  1  0
 11 12  1  0
 11 30  1  0
 12 13  1  0
 12 14  2  0
 13 31  1  0
 13 32  1  0
 13 33  1  0
 14 15  1  0
 14 18  1  0
 15 16  2  0
 15 17  1  0
 16 34  1  0
 17 35  1  0
 17 36  1  0
 17 37  1  0
 18 19  1  0
 19 20  2  0
 19 24  1  0
 20 21  1  0
 20 38  1  0
 21 22  2  0
 21 39  1  0
 22 23  1  0
 22 28  1  0
 23 24  2  0
 23 25  1  0
 24 40  1  0
 25 26  1  0
 25 27  1  0
 25 41  1  0
 26 42  1  0
 26 43  1  0
 26 44  1  0
 27 45  1  0
 27 46  1  0
 27 47  1  0
 28 48  1  0
M  END

