rmsd3.gzmat
 OpenBabel08211713373D

 48 50  0  0  0  0  0  0  0  0999 V2000
    0.0000    0.0000    0.0000 O   0  0  0  0  0  0  0  0  0  0  0  0
    1.2064    0.0000    0.0000 C   0  0  0  0  0  0  0  0  0  0  0  0
    1.9522    0.0000    1.1875 N   0  0  0  0  0  0  0  0  0  0  0  0
    1.4330    0.0025    2.0704 H   0  0  0  0  0  0  0  0  0  0  0  0
    3.3668    0.0035    1.2216 C   0  0  0  0  0  0  0  0  0  0  0  0
    3.9305   -0.0052    2.2852 O   0  0  0  0  0  0  0  0  0  0  0  0
    3.9835    0.0180   -0.1174 C   0  0  0  0  0  0  0  0  0  0  0  0
    3.3159    0.0178   -1.2334 N   0  0  0  0  0  0  0  0  0  0  0  0
    1.9738   -0.0014   -1.2021 N   0  0  0  0  0  0  0  0  0  0  0  0
    1.3185    0.0044   -2.4866 C   0  0  0  0  0  0  0  0  0  0  0  0
    0.2048   -0.8194   -2.6769 C   0  0  0  0  0  0  0  0  0  0  0  0
   -0.4503   -0.8062   -3.9076 C   0  0  0  0  0  0  0  0  0  0  0  0
   -1.6571   -1.6396   -4.1442 C   0  0  0  0  0  0  0  0  0  0  0  0
    0.0466    0.0263   -4.9166 C   0  0  0  0  0  0  0  0  0  0  0  0
    1.1634    0.8492   -4.7382 C   0  0  0  0  0  0  0  0  0  0  0  0
    1.8081    0.8320   -3.5019 C   0  0  0  0  0  0  0  0  0  0  0  0
    1.6411    1.7147   -5.8468 C   0  0  0  0  0  0  0  0  0  0  0  0
   -0.5130   -0.0250   -6.1805 O   0  0  0  0  0  0  0  0  0  0  0  0
   -1.7038    0.6522   -6.3162 C   0  0  0  0  0  0  0  0  0  0  0  0
   -2.4249    0.3061   -7.4597 C   0  0  0  0  0  0  0  0  0  0  0  0
   -3.6240    0.9668   -7.7090 C   0  0  0  0  0  0  0  0  0  0  0  0
   -4.0630    1.9411   -6.8121 C   0  0  0  0  0  0  0  0  0  0  0  0
   -3.3398    2.2918   -5.6599 C   0  0  0  0  0  0  0  0  0  0  0  0
   -2.1391    1.6307   -5.4226 C   0  0  0  0  0  0  0  0  0  0  0  0
   -3.8391    3.3554   -4.7230 C   0  0  0  0  0  0  0  0  0  0  0  0
   -3.9096    2.8159   -3.2882 C   0  0  0  0  0  0  0  0  0  0  0  0
   -2.9123    4.5767   -4.8004 C   0  0  0  0  0  0  0  0  0  0  0  0
   -5.2328    2.6160   -7.0038 O   0  0  0  0  0  0  0  0  0  0  0  0
    5.0796    0.0266   -0.1681 H   0  0  0  0  0  0  0  0  0  0  0  0
   -0.1634   -1.4582   -1.8730 H   0  0  0  0  0  0  0  0  0  0  0  0
   -1.6552   -2.0830   -5.1529 H   0  0  0  0  0  0  0  0  0  0  0  0
   -2.5743   -1.0304   -4.0693 H   0  0  0  0  0  0  0  0  0  0  0  0
   -1.7555   -2.4634   -3.4247 H   0  0  0  0  0  0  0  0  0  0  0  0
    2.6864    1.4543   -3.3326 H   0  0  0  0  0  0  0  0  0  0  0  0
    2.2813    2.5373   -5.5024 H   0  0  0  0  0  0  0  0  0  0  0  0
    0.8018    2.1600   -6.4068 H   0  0  0  0  0  0  0  0  0  0  0  0
    2.2222    1.1284   -6.5779 H   0  0  0  0  0  0  0  0  0  0  0  0
   -2.0507   -0.4608   -8.1334 H   0  0  0  0  0  0  0  0  0  0  0  0
   -4.2082    0.7223   -8.5913 H   0  0  0  0  0  0  0  0  0  0  0  0
   -1.5462    1.8805   -4.5429 H   0  0  0  0  0  0  0  0  0  0  0  0
   -4.8708    3.6743   -5.0286 H   0  0  0  0  0  0  0  0  0  0  0  0
   -2.9151    2.5950   -2.8843 H   0  0  0  0  0  0  0  0  0  0  0  0
   -4.4972    1.8920   -3.2423 H   0  0  0  0  0  0  0  0  0  0  0  0
   -4.3812    3.5421   -2.6178 H   0  0  0  0  0  0  0  0  0  0  0  0
   -1.8908    4.3291   -4.4924 H   0  0  0  0  0  0  0  0  0  0  0  0
   -3.2698    5.3833   -4.1521 H   0  0  0  0  0  0  0  0  0  0  0  0
   -2.8636    4.9681   -5.8229 H   0  0  0  0  0  0  0  0  0  0  0  0
   -5.6868    2.3328   -7.8323 H   0  0  0  0  0  0  0  0  0  0  0  0
  1  2  2  0  0  0  0
  2  3  1  0  0  0  0
  3  5  1  0  0  0  0
  3  4  1  0  0  0  0
  5  6  2  0  0  0  0
  7  5  1  0  0  0  0
  8  9  1  0  0  0  0
  8  7  2  0  0  0  0
  9  2  1  0  0  0  0
 10  9  1  0  0  0  0
 11 10  1  0  0  0  0
 11 30  1  0  0  0  0
 12 11  2  0  0  0  0
 13 32  1  0  0  0  0
 13 12  1  0  0  0  0
 13 33  1  0  0  0  0
 14 15  2  0  0  0  0
 14 12  1  0  0  0  0
 15 16  1  0  0  0  0
 16 34  1  0  0  0  0
 16 10  2  0  0  0  0
 17 35  1  0  0  0  0
 17 15  1  0  0  0  0
 18 14  1  0  0  0  0
 19 18  1  0  0  0  0
 19 24  2  0  0  0  0
 20 19  1  0  0  0  0
 21 20  2  0  0  0  0
 21 22  1  0  0  0  0
 22 23  2  0  0  0  0
 23 24  1  0  0  0  0
 23 25  1  0  0  0  0
 24 40  1  0  0  0  0
 25 26  1  0  0  0  0
 26 43  1  0  0  0  0
 26 42  1  0  0  0  0
 26 44  1  0  0  0  0
 27 25  1  0  0  0  0
 27 45  1  0  0  0  0
 27 46  1  0  0  0  0
 28 22  1  0  0  0  0
 29  7  1  0  0  0  0
 31 13  1  0  0  0  0
 36 17  1  0  0  0  0
 37 17  1  0  0  0  0
 38 20  1  0  0  0  0
 39 21  1  0  0  0  0
 41 25  1  0  0  0  0
 47 27  1  0  0  0  0
 48 28  1  0  0  0  0
M  END
$$$$
