48
rmsd39.gzmat
O          0.00000        0.00000        0.00000
C          1.20610        0.00000        0.00000
N          1.95630        0.00000        1.18400
H          1.44160       -0.00020        2.06920
C          3.37140       -0.00740        1.21090
O          3.93910       -0.00320        2.27230
C          3.98270       -0.02110       -0.13060
N          3.31040       -0.02120       -1.24380
N          1.96930        0.00590       -1.20440
C          1.29940       -0.03520       -2.48060
C          1.74220       -0.93210       -3.45760
C          1.07450       -0.99060       -4.67980
C          1.48370       -1.94210       -5.74410
C         -0.01520       -0.13660       -4.88180
C         -0.46720        0.76200       -3.90950
C          0.21260        0.81780       -2.69310
C         -1.64700        1.62370       -4.17630
O         -0.61480       -0.11450       -6.12810
C         -1.65150       -1.00360       -6.29310
C         -2.17580       -1.01490       -7.58690
C         -3.23540       -1.87340       -7.86270
C         -3.73360       -2.68780       -6.84560
C         -3.21040       -2.67800       -5.54230
C         -2.15250       -1.81510       -5.27500
C         -3.78480       -3.56190       -4.47130
C         -2.68840       -4.44190       -3.85670
C         -4.45340       -2.69700       -3.39410
O         -4.76940       -3.54970       -7.05870
H          5.07850       -0.03000       -0.18470
H          2.59980       -1.57610       -3.26700
H          1.81280       -1.40670       -6.64990
H          0.63900       -2.58150       -6.05310
H          2.30300       -2.60510       -5.43810
H         -0.11700        1.50730       -1.91520
H         -2.02900        2.11920       -3.27350
H         -2.48060        1.04430       -4.60860
H         -1.40470        2.41010       -4.90960
H         -1.76010       -0.36430       -8.35220
H         -3.66670       -1.90540       -8.85900
H         -1.72610       -1.77760       -4.27230
H         -4.56430       -4.23530       -4.91710
H         -1.94340       -3.84820       -3.31610
H         -2.16230       -5.01280       -4.62940
H         -3.11490       -5.15870       -3.14660
H         -3.73760       -2.02070       -2.91330
H         -4.89820       -3.31990       -2.61090
H         -5.25220       -2.08210       -3.82380
H         -5.09170       -3.51150       -7.98910
