48

O         -0.15830       -0.13810        0.00360
C          1.04660       -0.06390        0.04700
N          1.75810       -0.09260        1.23720
H          1.19100       -0.17350        2.07880
C          3.14350       -0.05670        1.39930
O          3.67860       -0.09740        2.48520
C          3.83010        0.03260        0.10050
N          3.21770        0.08650       -1.03150
N          1.87470        0.06190       -1.08940
C          1.30920        0.06350       -2.41210
C          1.96340       -0.65350       -3.41740
C          1.46430       -0.66060       -4.72290
C          2.13660       -1.42490       -5.83060
C          0.29330        0.06680       -4.98390
C         -0.37820        0.79420       -3.99020
C          0.14950        0.78970       -2.69470
C         -1.63030        1.55410       -4.33380
O         -0.18800        0.10380       -6.27490
C         -1.10840       -0.84010       -6.67640
C         -1.59630       -1.84340       -5.84090
C         -2.53130       -2.75130       -6.35130
C         -2.97190       -2.66280       -7.67190
C         -2.48340       -1.64610       -8.52350
C         -1.55330       -0.74740       -8.00060
C         -2.96010       -1.59390       -9.96530
C         -2.79350       -0.22110      -10.62040
C         -2.26870       -2.68890      -10.79740
O         -3.88070       -3.53850       -8.19620
H          4.92230        0.06060        0.09430
H          2.87680       -1.19840       -3.17840
H          3.08620       -1.86210       -5.49230
H          2.33480       -0.77140       -6.69410
H          1.49120       -2.24060       -6.19620
H         -0.35640        1.34490       -1.90750
H         -1.46600        2.21170       -5.20110
H         -1.97130        2.16240       -3.48480
H         -2.44510        0.86510       -4.61170
H         -1.26010       -1.92080       -4.80650
H         -2.92290       -3.54160       -5.70320
H         -1.14760        0.05720       -8.61360
H         -4.03640       -1.83380       -9.94490
H         -1.73140        0.03950      -10.75720
H         -3.26350        0.57570      -10.02330
H         -3.25830       -0.21870      -11.61860
H         -1.18140       -2.51200      -10.84110
H         -2.65510       -2.69710      -11.82960
H         -2.43980       -3.68270      -10.36000
H         -4.15070       -4.16470       -7.51280
