rmsd37.gzmat
 OpenBabel08211713373D

 48 50  0  0  0  0  0  0  0  0999 V2000
    0.0000    0.0000    0.0000 O   0  0  0  0  0  0  0  0  0  0  0  0
    1.2061    0.0000    0.0000 C   0  0  0  0  0  0  0  0  0  0  0  0
    1.9556    0.0000    1.1851 N   0  0  0  0  0  0  0  0  0  0  0  0
    1.4394    0.0040    2.0695 H   0  0  0  0  0  0  0  0  0  0  0  0
    3.3705    0.0010    1.2138 C   0  0  0  0  0  0  0  0  0  0  0  0
    3.9373    0.0085    2.2757 O   0  0  0  0  0  0  0  0  0  0  0  0
    3.9832   -0.0059   -0.1270 C   0  0  0  0  0  0  0  0  0  0  0  0
    3.3119   -0.0016   -1.2408 N   0  0  0  0  0  0  0  0  0  0  0  0
    1.9704   -0.0004   -1.2027 N   0  0  0  0  0  0  0  0  0  0  0  0
    1.3089    0.0091   -2.4838 C   0  0  0  0  0  0  0  0  0  0  0  0
    0.2349   -0.8616   -2.6906 C   0  0  0  0  0  0  0  0  0  0  0  0
   -0.4143   -0.8602   -3.9242 C   0  0  0  0  0  0  0  0  0  0  0  0
   -1.5728   -1.7551   -4.1769 C   0  0  0  0  0  0  0  0  0  0  0  0
    0.0462    0.0129   -4.9167 C   0  0  0  0  0  0  0  0  0  0  0  0
    1.1187    0.8887   -4.7176 C   0  0  0  0  0  0  0  0  0  0  0  0
    1.7580    0.8824   -3.4780 C   0  0  0  0  0  0  0  0  0  0  0  0
    1.5716    1.7885   -5.8097 C   0  0  0  0  0  0  0  0  0  0  0  0
   -0.4776   -0.0576   -6.1931 O   0  0  0  0  0  0  0  0  0  0  0  0
   -1.7387    0.4691   -6.3516 C   0  0  0  0  0  0  0  0  0  0  0  0
   -2.3236    1.3785   -5.4779 C   0  0  0  0  0  0  0  0  0  0  0  0
   -3.5890    1.8748   -5.7874 C   0  0  0  0  0  0  0  0  0  0  0  0
   -4.2174    1.4459   -6.9534 C   0  0  0  0  0  0  0  0  0  0  0  0
   -3.6293    0.5252   -7.8416 C   0  0  0  0  0  0  0  0  0  0  0  0
   -2.3698    0.0347   -7.5243 C   0  0  0  0  0  0  0  0  0  0  0  0
   -4.3619    0.0804   -9.0763 C   0  0  0  0  0  0  0  0  0  0  0  0
   -3.4842    0.2517  -10.3227 C   0  0  0  0  0  0  0  0  0  0  0  0
   -4.7952   -1.3834   -8.9113 C   0  0  0  0  0  0  0  0  0  0  0  0
   -5.4576    1.8920   -7.3050 O   0  0  0  0  0  0  0  0  0  0  0  0
    5.0789   -0.0176   -0.1815 H   0  0  0  0  0  0  0  0  0  0  0  0
   -0.1044   -1.5293   -1.8975 H   0  0  0  0  0  0  0  0  0  0  0  0
   -1.5822   -2.6333   -3.5169 H   0  0  0  0  0  0  0  0  0  0  0  0
   -1.5891   -2.1262   -5.2148 H   0  0  0  0  0  0  0  0  0  0  0  0
   -2.5232   -1.2168   -4.0174 H   0  0  0  0  0  0  0  0  0  0  0  0
    2.6026    1.5454   -3.2919 H   0  0  0  0  0  0  0  0  0  0  0  0
    2.3098    1.2804   -6.4519 H   0  0  0  0  0  0  0  0  0  0  0  0
    2.0394    2.7086   -5.4348 H   0  0  0  0  0  0  0  0  0  0  0  0
    0.7405    2.0872   -6.4700 H   0  0  0  0  0  0  0  0  0  0  0  0
   -1.8111    1.6993   -4.5732 H   0  0  0  0  0  0  0  0  0  0  0  0
   -4.0720    2.5857   -5.1231 H   0  0  0  0  0  0  0  0  0  0  0  0
   -1.8659   -0.6807   -8.1723 H   0  0  0  0  0  0  0  0  0  0  0  0
   -5.2842    0.7064   -9.2127 H   0  0  0  0  0  0  0  0  0  0  0  0
   -2.6374   -0.4426  -10.3247 H   0  0  0  0  0  0  0  0  0  0  0  0
   -3.0780    1.2682  -10.3834 H   0  0  0  0  0  0  0  0  0  0  0  0
   -4.0617    0.0703  -11.2355 H   0  0  0  0  0  0  0  0  0  0  0  0
   -3.9336   -2.0532   -8.8219 H   0  0  0  0  0  0  0  0  0  0  0  0
   -5.3895   -1.7158   -9.7686 H   0  0  0  0  0  0  0  0  0  0  0  0
   -5.4088   -1.5112   -8.0120 H   0  0  0  0  0  0  0  0  0  0  0  0
   -5.7977    2.5647   -6.6688 H   0  0  0  0  0  0  0  0  0  0  0  0
  2  1  2  0  0  0  0
  2  3  1  0  0  0  0
  3  5  1  0  0  0  0
  3  4  1  0  0  0  0
  5  6  2  0  0  0  0
  7  5  1  0  0  0  0
  8  9  1  0  0  0  0
  8  7  2  0  0  0  0
  9  2  1  0  0  0  0
 10  9  1  0  0  0  0
 11 10  1  0  0  0  0
 11 30  1  0  0  0  0
 12 11  2  0  0  0  0
 13 33  1  0  0  0  0
 13 12  1  0  0  0  0
 13 31  1  0  0  0  0
 14 15  2  0  0  0  0
 14 12  1  0  0  0  0
 15 16  1  0  0  0  0
 16 34  1  0  0  0  0
 16 10  2  0  0  0  0
 17 36  1  0  0  0  0
 17 15  1  0  0  0  0
 18 14  1  0  0  0  0
 19 18  1  0  0  0  0
 19 20  2  0  0  0  0
 20 38  1  0  0  0  0
 21 20  1  0  0  0  0
 21 39  1  0  0  0  0
 22 21  2  0  0  0  0
 23 24  2  0  0  0  0
 23 22  1  0  0  0  0
 24 19  1  0  0  0  0
 25 27  1  0  0  0  0
 25 23  1  0  0  0  0
 26 25  1  0  0  0  0
 27 45  1  0  0  0  0
 27 47  1  0  0  0  0
 28 22  1  0  0  0  0
 28 48  1  0  0  0  0
 29  7  1  0  0  0  0
 32 13  1  0  0  0  0
 35 17  1  0  0  0  0
 37 17  1  0  0  0  0
 40 24  1  0  0  0  0
 41 25  1  0  0  0  0
 42 26  1  0  0  0  0
 43 26  1  0  0  0  0
 44 26  1  0  0  0  0
 46 27  1  0  0  0  0
M  END
$$$$
