
     RDKit          3D

 48 50  0  0  0  0  0  0  0  0999 V2000
   -0.1828   -0.2139   -0.0443 O   0  0  0  0  0  0  0  0  0  0  0  0
    1.0222   -0.1808    0.0331 C   0  0  0  0  0  0  0  0  0  0  0  0
    1.6999   -0.2704    1.2399 N   0  0  0  0  0  0  0  0  0  0  0  0
    1.1084   -0.3745    2.0619 H   0  0  0  0  0  0  0  0  0  0  0  0
    3.0781   -0.2018    1.4469 C   0  0  0  0  0  0  0  0  0  0  0  0
    3.5814   -0.2804    2.5458 O   0  0  0  0  0  0  0  0  0  0  0  0
    3.7999   -0.0241    0.1765 C   0  0  0  0  0  0  0  0  0  0  0  0
    3.2219    0.0413   -0.9728 N   0  0  0  0  0  0  0  0  0  0  0  0
    1.8847   -0.0509   -1.0771 N   0  0  0  0  0  0  0  0  0  0  0  0
    1.3526    0.0997   -2.4050 C   0  0  0  0  0  0  0  0  0  0  0  0
    0.2776   -0.6802   -2.8387 C   0  0  0  0  0  0  0  0  0  0  0  0
   -0.2173   -0.5338   -4.1389 C   0  0  0  0  0  0  0  0  0  0  0  0
   -1.3789   -1.3472   -4.6413 C   0  0  0  0  0  0  0  0  0  0  0  0
    0.4011    0.3996   -4.9840 C   0  0  0  0  0  0  0  0  0  0  0  0
    1.4874    1.1855   -4.5707 C   0  0  0  0  0  0  0  0  0  0  0  0
    1.9550    1.0230   -3.2636 C   0  0  0  0  0  0  0  0  0  0  0  0
    2.1047    2.1731   -5.5230 C   0  0  0  0  0  0  0  0  0  0  0  0
   -0.0427    0.5196   -6.2832 O   0  0  0  0  0  0  0  0  0  0  0  0
   -1.0681    1.3961   -6.5653 C   0  0  0  0  0  0  0  0  0  0  0  0
   -1.6718    2.2083   -5.6067 C   0  0  0  0  0  0  0  0  0  0  0  0
   -2.7049    3.0656   -6.0025 C   0  0  0  0  0  0  0  0  0  0  0  0
   -3.1306    3.1129   -7.3301 C   0  0  0  0  0  0  0  0  0  0  0  0
   -2.5201    2.2949   -8.3078 C   0  0  0  0  0  0  0  0  0  0  0  0
   -1.4910    1.4463   -7.8989 C   0  0  0  0  0  0  0  0  0  0  0  0
   -3.0263    2.3467   -9.7394 C   0  0  0  0  0  0  0  0  0  0  0  0
   -2.0115    1.8486  -10.7706 C   0  0  0  0  0  0  0  0  0  0  0  0
   -4.3577    1.5839   -9.8638 C   0  0  0  0  0  0  0  0  0  0  0  0
   -4.1398    3.9372   -7.7420 O   0  0  0  0  0  0  0  0  0  0  0  0
    4.8894    0.0513    0.2075 H   0  0  0  0  0  0  0  0  0  0  0  0
   -0.1882   -1.3967   -2.1651 H   0  0  0  0  0  0  0  0  0  0  0  0
   -1.1346   -1.8316   -5.5990 H   0  0  0  0  0  0  0  0  0  0  0  0
   -2.2566   -0.7065   -4.8280 H   0  0  0  0  0  0  0  0  0  0  0  0
   -1.6672   -2.1190   -3.9144 H   0  0  0  0  0  0  0  0  0  0  0  0
    2.8037    1.6086   -2.9098 H   0  0  0  0  0  0  0  0  0  0  0  0
    2.9884    2.6531   -5.0802 H   0  0  0  0  0  0  0  0  0  0  0  0
    1.3840    2.9609   -5.7975 H   0  0  0  0  0  0  0  0  0  0  0  0
    2.4024    1.6801   -6.4614 H   0  0  0  0  0  0  0  0  0  0  0  0
   -1.3477    2.1787   -4.5661 H   0  0  0  0  0  0  0  0  0  0  0  0
   -3.1857    3.7081   -5.2581 H   0  0  0  0  0  0  0  0  0  0  0  0
   -0.9851    0.7967   -8.6130 H   0  0  0  0  0  0  0  0  0  0  0  0
   -3.2393    3.4071   -9.9550 H   0  0  0  0  0  0  0  0  0  0  0  0
   -1.8245    0.7671  -10.6696 H   0  0  0  0  0  0  0  0  0  0  0  0
   -1.0459    2.3694  -10.6774 H   0  0  0  0  0  0  0  0  0  0  0  0
   -2.3930    2.0171  -11.7897 H   0  0  0  0  0  0  0  0  0  0  0  0
   -4.2117    0.5139   -9.6423 H   0  0  0  0  0  0  0  0  0  0  0  0
   -4.7623    1.6692  -10.8854 H   0  0  0  0  0  0  0  0  0  0  0  0
   -5.1064    1.9824   -9.1647 H   0  0  0  0  0  0  0  0  0  0  0  0
   -4.4579    4.4519   -6.9897 H   0  0  0  0  0  0  0  0  0  0  0  0
  1  2  2  0
  2  3  1  0
  2  9  1  0
  3  4  1  0
  3  5  1  0
  5  6  2  0
  5  7  1  0
  7  8  2  0
  7 29  1  0
  8  9  1  0
  9 10  1  0
 10 11  2  0
 10 16  1  0
 11 12  1  0
 11 30  1  0
 12 13  1  0
 12 14  2  0
 13 31  1  0
 13 32  1  0
 13 33  1  0
 14 15  1  0
 14 18  1  0
 15 16  2  0
 15 17  1  0
 16 34  1  0
 17 35  1  0
 17 36  1  0
 17 37  1  0
 18 19  1  0
 19 20  2  0
 19 24  1  0
 20 21  1  0
 20 38  1  0
 21 22  2  0
 21 39  1  0
 22 23  1  0
 22 28  1  0
 23 24  2  0
 23 25  1  0
 24 40  1  0
 25 26  1  0
 25 27  1  0
 25 41  1  0
 26 42  1  0
 26 43  1  0
 26 44  1  0
 27 45  1  0
 27 46  1  0
 27 47  1  0
 28 48  1  0
M  END

