48
rmsd37.gzmat
O          0.00000        0.00000        0.00000
C          1.20610        0.00000        0.00000
N          1.95560        0.00000        1.18510
H          1.43940        0.00400        2.06950
C          3.37050        0.00100        1.21380
O          3.93730        0.00850        2.27570
C          3.98320       -0.00590       -0.12700
N          3.31190       -0.00160       -1.24080
N          1.97040       -0.00040       -1.20270
C          1.30890        0.00910       -2.48380
C          0.23490       -0.86160       -2.69060
C         -0.41430       -0.86020       -3.92420
C         -1.57280       -1.75510       -4.17690
C          0.04620        0.01290       -4.91670
C          1.11870        0.88870       -4.71760
C          1.75800        0.88240       -3.47800
C          1.57160        1.78850       -5.80970
O         -0.47760       -0.05760       -6.19310
C         -1.73870        0.46910       -6.35160
C         -2.32360        1.37850       -5.47790
C         -3.58900        1.87480       -5.78740
C         -4.21740        1.44590       -6.95340
C         -3.62930        0.52520       -7.84160
C         -2.36980        0.03470       -7.52430
C         -4.36190        0.08040       -9.07630
C         -3.48420        0.25170      -10.32270
C         -4.79520       -1.38340       -8.91130
O         -5.45760        1.89200       -7.30500
H          5.07890       -0.01760       -0.18150
H         -0.10440       -1.52930       -1.89750
H         -1.58220       -2.63330       -3.51690
H         -1.58910       -2.12620       -5.21480
H         -2.52320       -1.21680       -4.01740
H          2.60260        1.54540       -3.29190
H          2.30980        1.28040       -6.45190
H          2.03940        2.70860       -5.43480
H          0.74050        2.08720       -6.47000
H         -1.81110        1.69930       -4.57320
H         -4.07200        2.58570       -5.12310
H         -1.86590       -0.68070       -8.17230
H         -5.28420        0.70640       -9.21270
H         -2.63740       -0.44260      -10.32470
H         -3.07800        1.26820      -10.38340
H         -4.06170        0.07030      -11.23550
H         -3.93360       -2.05320       -8.82190
H         -5.38950       -1.71580       -9.76860
H         -5.40880       -1.51120       -8.01200
H         -5.79770        2.56470       -6.66880
