
     RDKit          3D

 48 50  0  0  0  0  0  0  0  0999 V2000
   -0.1583   -0.1381    0.0036 O   0  0  0  0  0  0  0  0  0  0  0  0
    1.0466   -0.0639    0.0470 C   0  0  0  0  0  0  0  0  0  0  0  0
    1.7581   -0.0926    1.2372 N   0  0  0  0  0  0  0  0  0  0  0  0
    1.1910   -0.1735    2.0788 H   0  0  0  0  0  0  0  0  0  0  0  0
    3.1435   -0.0567    1.3993 C   0  0  0  0  0  0  0  0  0  0  0  0
    3.6786   -0.0974    2.4852 O   0  0  0  0  0  0  0  0  0  0  0  0
    3.8301    0.0326    0.1005 C   0  0  0  0  0  0  0  0  0  0  0  0
    3.2177    0.0865   -1.0315 N   0  0  0  0  0  0  0  0  0  0  0  0
    1.8747    0.0619   -1.0894 N   0  0  0  0  0  0  0  0  0  0  0  0
    1.3092    0.0635   -2.4121 C   0  0  0  0  0  0  0  0  0  0  0  0
    1.9634   -0.6535   -3.4174 C   0  0  0  0  0  0  0  0  0  0  0  0
    1.4643   -0.6606   -4.7229 C   0  0  0  0  0  0  0  0  0  0  0  0
    2.1366   -1.4249   -5.8306 C   0  0  0  0  0  0  0  0  0  0  0  0
    0.2933    0.0668   -4.9839 C   0  0  0  0  0  0  0  0  0  0  0  0
   -0.3782    0.7942   -3.9902 C   0  0  0  0  0  0  0  0  0  0  0  0
    0.1495    0.7897   -2.6947 C   0  0  0  0  0  0  0  0  0  0  0  0
   -1.6303    1.5541   -4.3338 C   0  0  0  0  0  0  0  0  0  0  0  0
   -0.1880    0.1038   -6.2749 O   0  0  0  0  0  0  0  0  0  0  0  0
   -1.1084   -0.8401   -6.6764 C   0  0  0  0  0  0  0  0  0  0  0  0
   -1.5963   -1.8434   -5.8409 C   0  0  0  0  0  0  0  0  0  0  0  0
   -2.5313   -2.7513   -6.3513 C   0  0  0  0  0  0  0  0  0  0  0  0
   -2.9719   -2.6628   -7.6719 C   0  0  0  0  0  0  0  0  0  0  0  0
   -2.4834   -1.6461   -8.5235 C   0  0  0  0  0  0  0  0  0  0  0  0
   -1.5533   -0.7474   -8.0006 C   0  0  0  0  0  0  0  0  0  0  0  0
   -2.9601   -1.5939   -9.9653 C   0  0  0  0  0  0  0  0  0  0  0  0
   -2.7935   -0.2211  -10.6204 C   0  0  0  0  0  0  0  0  0  0  0  0
   -2.2687   -2.6889  -10.7974 C   0  0  0  0  0  0  0  0  0  0  0  0
   -3.8807   -3.5385   -8.1962 O   0  0  0  0  0  0  0  0  0  0  0  0
    4.9223    0.0606    0.0943 H   0  0  0  0  0  0  0  0  0  0  0  0
    2.8768   -1.1984   -3.1784 H   0  0  0  0  0  0  0  0  0  0  0  0
    3.0862   -1.8621   -5.4923 H   0  0  0  0  0  0  0  0  0  0  0  0
    2.3348   -0.7714   -6.6941 H   0  0  0  0  0  0  0  0  0  0  0  0
    1.4912   -2.2406   -6.1962 H   0  0  0  0  0  0  0  0  0  0  0  0
   -0.3564    1.3449   -1.9075 H   0  0  0  0  0  0  0  0  0  0  0  0
   -1.4660    2.2117   -5.2011 H   0  0  0  0  0  0  0  0  0  0  0  0
   -1.9713    2.1624   -3.4848 H   0  0  0  0  0  0  0  0  0  0  0  0
   -2.4451    0.8651   -4.6117 H   0  0  0  0  0  0  0  0  0  0  0  0
   -1.2601   -1.9208   -4.8065 H   0  0  0  0  0  0  0  0  0  0  0  0
   -2.9229   -3.5416   -5.7032 H   0  0  0  0  0  0  0  0  0  0  0  0
   -1.1476    0.0572   -8.6136 H   0  0  0  0  0  0  0  0  0  0  0  0
   -4.0364   -1.8338   -9.9449 H   0  0  0  0  0  0  0  0  0  0  0  0
   -1.7314    0.0395  -10.7572 H   0  0  0  0  0  0  0  0  0  0  0  0
   -3.2635    0.5757  -10.0233 H   0  0  0  0  0  0  0  0  0  0  0  0
   -3.2583   -0.2187  -11.6186 H   0  0  0  0  0  0  0  0  0  0  0  0
   -1.1814   -2.5120  -10.8411 H   0  0  0  0  0  0  0  0  0  0  0  0
   -2.6551   -2.6971  -11.8296 H   0  0  0  0  0  0  0  0  0  0  0  0
   -2.4398   -3.6827  -10.3600 H   0  0  0  0  0  0  0  0  0  0  0  0
   -4.1507   -4.1647   -7.5128 H   0  0  0  0  0  0  0  0  0  0  0  0
  1  2  2  0
  2  3  1  0
  2  9  1  0
  3  4  1  0
  3  5  1  0
  5  6  2  0
  5  7  1  0
  7  8  2  0
  7 29  1  0
  8  9  1  0
  9 10  1  0
 10 11  2  0
 10 16  1  0
 11 12  1  0
 11 30  1  0
 12 13  1  0
 12 14  2  0
 13 31  1  0
 13 32  1  0
 13 33  1  0
 14 15  1  0
 14 18  1  0
 15 16  2  0
 15 17  1  0
 16 34  1  0
 17 35  1  0
 17 36  1  0
 17 37  1  0
 18 19  1  0
 19 20  2  0
 19 24  1  0
 20 21  1  0
 20 38  1  0
 21 22  2  0
 21 39  1  0
 22 23  1  0
 22 28  1  0
 23 24  2  0
 23 25  1  0
 24 40  1  0
 25 26  1  0
 25 27  1  0
 25 41  1  0
 26 42  1  0
 26 43  1  0
 26 44  1  0
 27 45  1  0
 27 46  1  0
 27 47  1  0
 28 48  1  0
M  END

