48
rmsd35.gzmat
O          0.00000        0.00000        0.00000
C          1.20630        0.00000        0.00000
N          1.95580        0.00000        1.18510
H          1.43980       -0.00440        2.06960
C          3.37070       -0.00060        1.21350
O          3.93840       -0.00330        2.27500
C          3.98320        0.00010       -0.12730
N          3.31180       -0.00360       -1.24110
N          1.97020        0.00580       -1.20300
C          1.30750       -0.01790       -2.48360
C          1.75790       -0.90240       -3.46900
C          1.11790       -0.92540       -4.70640
C          1.54850       -1.85370       -5.78310
C          0.04480       -0.05120       -4.91580
C         -0.42150        0.82610       -3.93190
C          0.23040        0.84550       -2.69840
C         -1.57210        1.72470       -4.20540
O         -0.50340        0.05310       -6.17970
C         -1.40000       -0.93160       -6.52530
C         -2.09430       -1.71560       -5.61140
C         -3.01530       -2.64210       -6.09890
C         -3.20790       -2.74660       -7.47400
C         -2.50820       -1.95380       -8.40370
C         -1.59080       -1.03640       -7.90930
C         -2.73550       -2.12520       -9.87970
C         -3.07070       -0.78210      -10.54060
C         -1.48570       -2.74990      -10.51610
O         -4.08990       -3.63890       -8.00910
H          5.07900        0.00620       -0.18110
H          2.60500       -1.55990       -3.27510
H          2.46970       -2.39810       -5.53930
H          1.72610       -1.31490       -6.72820
H          0.76880       -2.60500       -5.99390
H         -0.11140        1.52030       -1.91260
H         -1.22890        2.68820       -4.61550
H         -2.16130        1.94060       -3.30310
H         -2.26140        1.29700       -4.95260
H         -1.92850       -1.61290       -4.54070
H         -3.57110       -3.27150       -5.41000
H         -1.01730       -0.39840       -8.58030
H         -3.60140       -2.81980      -10.04960
H         -2.23340       -0.07830      -10.48750
H         -3.93170       -0.30890      -10.05420
H         -3.32100       -0.91800      -11.59840
H         -0.60550       -2.11110      -10.38880
H         -1.62920       -2.91140      -11.58950
H         -1.25890       -3.72140      -10.06140
H         -4.56940       -4.14370       -7.31050
