48
rmsd22.gzmat
O          0.00000        0.00000        0.00000
C          1.20620        0.00000        0.00000
N          1.95530        0.00000        1.18540
H          1.43930        0.00510        2.06980
C          3.37030        0.00310        1.21400
O          3.93770        0.00800        2.27580
C          3.98280        0.00180       -0.12690
N          3.31180        0.00570       -1.24100
N          1.97050       -0.00720       -1.20340
C          1.30320        0.04420       -2.48100
C          0.21660       -0.80650       -2.70250
C         -0.46070       -0.74110       -3.91960
C         -1.62640       -1.61770       -4.20120
C         -0.01120        0.16850       -4.88380
C          1.08510        1.01290       -4.67640
C          1.74990        0.94430       -3.45260
C          1.51520        1.97230       -5.72630
O         -0.62460        0.12070       -6.12110
C         -1.42920        1.19480       -6.42700
C         -1.97200        2.06040       -5.48410
C         -2.80900        3.08330       -5.92740
C         -3.07320        3.19940       -7.28950
C         -2.53370        2.32030       -8.24760
C         -1.69840        1.30630       -7.79730
C         -2.86770        2.47830       -9.70460
C         -1.58810        2.55980      -10.54700
C         -3.74710        1.30420      -10.15680
O         -3.87690        4.18500       -7.78270
H          5.07880       -0.00390       -0.18030
H         -0.11380       -1.50310       -1.93120
H         -1.32680       -2.48580       -4.81110
H         -2.40430       -1.08900       -4.77740
H         -2.09990       -2.00220       -3.28730
H          2.61110        1.58300       -3.25880
H          2.57290        2.25420       -5.63650
H          0.92270        2.90150       -5.67680
H          1.37360        1.56280       -6.74000
H         -1.75490        1.94550       -4.42390
H         -3.24660        3.77590       -5.21430
H         -1.25160        0.59700       -8.49210
H         -3.44520        3.42870       -9.85890
H         -1.02960        1.61790      -10.53370
H         -0.92200        3.34670      -10.17470
H         -1.82150        2.78990      -11.59220
H         -3.24010        0.34310      -10.01980
H         -4.01260        1.39490      -11.21510
H         -4.68020        1.27020       -9.58180
H         -4.24230        4.75280       -7.06380
