48
rmsd38.gzmat
O          0.00000        0.00000        0.00000
C          1.20620        0.00000        0.00000
N          1.95180        0.00000        1.18770
H          1.43190       -0.00270        2.07000
C          3.36620        0.01130        1.22230
O          3.92930        0.01270        2.28620
C          3.98310        0.02010       -0.11650
N          3.31590        0.01580       -1.23270
N          1.97400       -0.00290       -1.20190
C          1.31840        0.00460       -2.48610
C          0.20300       -0.81760       -2.67450
C         -0.45470       -0.80380       -3.90320
C         -1.65750       -1.64360       -4.13880
C          0.04230        0.02780       -4.91350
C          1.16360        0.84530       -4.73850
C          1.80940        0.82920       -3.50240
C          1.65390        1.69920       -5.85090
O         -0.51040       -0.03540       -6.17870
C         -1.70470        0.63040       -6.33510
C         -2.14370        1.65510       -5.50430
C         -3.34760        2.28780       -5.81050
C         -4.06290        1.87460       -6.93130
C         -3.62380        0.83640       -7.77490
C         -2.42570        0.20930       -7.45930
C         -4.44560        0.41640       -8.96120
C         -3.58740        0.37780      -10.23250
C         -5.07370       -0.95700       -8.68500
O         -5.24740        2.45380       -7.28000
H          5.07910        0.02840       -0.16720
H         -0.16300       -1.45680       -1.87000
H         -1.75950       -2.45700       -3.40790
H         -1.64410       -2.10220       -5.14060
H         -2.57880       -1.03930       -4.08080
H          2.69030        1.44870       -3.33560
H          2.34970        1.13790       -6.49590
H          2.18230        2.59490       -5.49860
H          0.83090        2.03640       -6.50330
H         -1.56650        1.95970       -4.63380
H         -3.71670        3.09060       -5.17890
H         -2.03960       -0.60380       -8.07190
H         -5.27450        1.15590       -9.12510
H         -2.82650       -0.40840      -10.18910
H         -3.06770        1.33050      -10.38720
H         -4.20580        0.18990      -11.11670
H         -4.31060       -1.72290       -8.51150
H         -5.69060       -1.28440       -9.52830
H         -5.71670       -0.92450       -7.79750
H         -5.49300        3.18400       -6.66420
