rmsd193.gzmat
 OpenBabel08211713383D

 37 38  0  0  0  0  0  0  0  0999 V2000
    0.0000    0.0000    0.0000 S   0  0  0  0  0  0  0  0  0  0  0  0
    1.4414    0.0000    0.0000 O   0  0  0  0  0  0  0  0  0  0  0  0
   -0.7716    0.0000   -1.2229 O   0  0  0  0  0  0  0  0  0  0  0  0
   -0.4452    1.4568    0.8705 N   0  0  0  0  0  0  0  0  0  0  0  0
   -1.6300    2.1856    0.4293 C   0  0  0  0  0  0  0  0  0  0  0  0
   -1.2774    3.3150   -0.5167 C   0  0  0  0  0  0  0  0  0  0  0  0
   -0.2074    3.8354   -0.6819 O   0  0  0  0  0  0  0  0  0  0  0  0
   -2.3858    3.7429   -1.1682 O   0  0  0  0  0  0  0  0  0  0  0  0
   -0.6321   -1.2847    1.0189 C   0  0  0  0  0  0  0  0  0  0  0  0
   -1.7125   -1.9858    0.5350 C   0  0  0  0  0  0  0  0  0  0  0  0
   -2.3175   -3.0030    1.3051 C   0  0  0  0  0  0  0  0  0  0  0  0
   -1.8267   -3.2971    2.5513 C   0  0  0  0  0  0  0  0  0  0  0  0
   -0.6986   -2.6063    3.0679 C   0  0  0  0  0  0  0  0  0  0  0  0
   -0.0828   -1.5877    2.2978 C   0  0  0  0  0  0  0  0  0  0  0  0
    1.0481   -0.9163    2.8437 C   0  0  0  0  0  0  0  0  0  0  0  0
    1.5055   -1.2130    4.1009 C   0  0  0  0  0  0  0  0  0  0  0  0
    0.8864   -2.2137    4.8816 C   0  0  0  0  0  0  0  0  0  0  0  0
   -0.1844   -2.9132    4.3723 C   0  0  0  0  0  0  0  0  0  0  0  0
   -0.8728   -3.9490    5.0954 N   0  0  0  0  0  0  0  0  0  0  0  0
   -0.9769   -3.6875    6.5447 C   0  0  0  0  0  0  0  0  0  0  0  0
   -0.2708   -5.2740    4.8223 C   0  0  0  0  0  0  0  0  0  0  0  0
    0.3365    2.0858    1.0803 H   0  0  0  0  0  0  0  0  0  0  0  0
   -2.1348    2.6211    1.3320 H   0  0  0  0  0  0  0  0  0  0  0  0
   -2.3884    1.5121   -0.0461 H   0  0  0  0  0  0  0  0  0  0  0  0
   -2.2134    4.4690   -1.8171 H   0  0  0  0  0  0  0  0  0  0  0  0
   -2.1406   -1.7768   -0.4568 H   0  0  0  0  0  0  0  0  0  0  0  0
   -3.1752   -3.5369    0.9025 H   0  0  0  0  0  0  0  0  0  0  0  0
   -2.3028   -4.0618    3.1735 H   0  0  0  0  0  0  0  0  0  0  0  0
    1.5827   -0.1651    2.2546 H   0  0  0  0  0  0  0  0  0  0  0  0
    2.3679   -0.6872    4.5138 H   0  0  0  0  0  0  0  0  0  0  0  0
    1.2800   -2.4265    5.8719 H   0  0  0  0  0  0  0  0  0  0  0  0
   -1.3971   -2.6796    6.7036 H   0  0  0  0  0  0  0  0  0  0  0  0
   -0.0292   -3.7635    7.0976 H   0  0  0  0  0  0  0  0  0  0  0  0
   -1.6905   -4.4131    6.9737 H   0  0  0  0  0  0  0  0  0  0  0  0
   -0.9383   -6.0535    5.2270 H   0  0  0  0  0  0  0  0  0  0  0  0
    0.7324   -5.4073    5.2555 H   0  0  0  0  0  0  0  0  0  0  0  0
   -0.1984   -5.4292    3.7325 H   0  0  0  0  0  0  0  0  0  0  0  0
  1  4  1  0  0  0  0
  1  9  1  0  0  0  0
  2  1  2  0  0  0  0
  3  1  2  0  0  0  0
  4 22  1  0  0  0  0
  5  4  1  0  0  0  0
  5 23  1  0  0  0  0
  6  5  1  0  0  0  0
  7  6  2  0  0  0  0
  8  6  1  0  0  0  0
  9 14  1  0  0  0  0
 10  9  2  0  0  0  0
 10 11  1  0  0  0  0
 11 12  2  0  0  0  0
 12 13  1  0  0  0  0
 12 28  1  0  0  0  0
 13 18  2  0  0  0  0
 14 15  2  0  0  0  0
 14 13  1  0  0  0  0
 15 16  1  0  0  0  0
 16 30  1  0  0  0  0
 16 17  2  0  0  0  0
 17 31  1  0  0  0  0
 18 17  1  0  0  0  0
 18 19  1  0  0  0  0
 19 20  1  0  0  0  0
 20 32  1  0  0  0  0
 20 34  1  0  0  0  0
 20 33  1  0  0  0  0
 21 19  1  0  0  0  0
 21 35  1  0  0  0  0
 21 36  1  0  0  0  0
 24  5  1  0  0  0  0
 25  8  1  0  0  0  0
 26 10  1  0  0  0  0
 27 11  1  0  0  0  0
 29 15  1  0  0  0  0
 37 21  1  0  0  0  0
M  END
$$$$
