
     RDKit          3D

 37 38  0  0  0  0  0  0  0  0999 V2000
   -0.4369    0.1917   -0.1236 S   0  0  0  0  0  0  0  0  0  0  0  0
    0.9955    0.4918   -0.0253 O   0  0  0  0  0  0  0  0  0  0  0  0
   -1.0148   -0.0704   -1.4469 O   0  0  0  0  0  0  0  0  0  0  0  0
   -1.3760    1.4509    0.5411 N   0  0  0  0  0  0  0  0  0  0  0  0
   -1.4578    2.6256   -0.3129 C   0  0  0  0  0  0  0  0  0  0  0  0
   -0.3762    3.6406    0.0138 C   0  0  0  0  0  0  0  0  0  0  0  0
    0.2435    3.6523    1.0472 O   0  0  0  0  0  0  0  0  0  0  0  0
   -0.2345    4.5553   -0.9550 O   0  0  0  0  0  0  0  0  0  0  0  0
   -0.8155   -1.1240    1.0301 C   0  0  0  0  0  0  0  0  0  0  0  0
    0.2491   -1.5868    1.7772 C   0  0  0  0  0  0  0  0  0  0  0  0
    0.0515   -2.6380    2.6977 C   0  0  0  0  0  0  0  0  0  0  0  0
   -1.2104   -3.1606    2.8842 C   0  0  0  0  0  0  0  0  0  0  0  0
   -2.3322   -2.6695    2.1639 C   0  0  0  0  0  0  0  0  0  0  0  0
   -2.1371   -1.6595    1.1604 C   0  0  0  0  0  0  0  0  0  0  0  0
   -3.2318   -1.2757    0.3386 C   0  0  0  0  0  0  0  0  0  0  0  0
   -4.4620   -1.8669    0.5198 C   0  0  0  0  0  0  0  0  0  0  0  0
   -4.6811   -2.8172    1.5421 C   0  0  0  0  0  0  0  0  0  0  0  0
   -3.6511   -3.2067    2.3843 C   0  0  0  0  0  0  0  0  0  0  0  0
   -3.8387   -4.1311    3.4372 N   0  0  0  0  0  0  0  0  0  0  0  0
   -3.7610   -3.5778    4.7848 C   0  0  0  0  0  0  0  0  0  0  0  0
   -4.9252   -5.0788    3.2974 C   0  0  0  0  0  0  0  0  0  0  0  0
   -0.9729    1.7011    1.4493 H   0  0  0  0  0  0  0  0  0  0  0  0
   -2.4339    3.1238   -0.1755 H   0  0  0  0  0  0  0  0  0  0  0  0
   -1.4061    2.3276   -1.3698 H   0  0  0  0  0  0  0  0  0  0  0  0
    0.4430    5.1880   -0.6587 H   0  0  0  0  0  0  0  0  0  0  0  0
    1.2332   -1.1410    1.6288 H   0  0  0  0  0  0  0  0  0  0  0  0
    0.9033   -3.0373    3.2519 H   0  0  0  0  0  0  0  0  0  0  0  0
   -1.3675   -3.9910    3.5725 H   0  0  0  0  0  0  0  0  0  0  0  0
   -3.0804   -0.5406   -0.4474 H   0  0  0  0  0  0  0  0  0  0  0  0
   -5.2961   -1.5822   -0.1262 H   0  0  0  0  0  0  0  0  0  0  0  0
   -5.6825   -3.2255    1.6796 H   0  0  0  0  0  0  0  0  0  0  0  0
   -4.6929   -3.0430    5.0664 H   0  0  0  0  0  0  0  0  0  0  0  0
   -2.9290   -2.8675    4.8684 H   0  0  0  0  0  0  0  0  0  0  0  0
   -3.5986   -4.3871    5.5148 H   0  0  0  0  0  0  0  0  0  0  0  0
   -5.9293   -4.6333    3.4672 H   0  0  0  0  0  0  0  0  0  0  0  0
   -4.7972   -5.8851    4.0370 H   0  0  0  0  0  0  0  0  0  0  0  0
   -4.9111   -5.5263    2.2936 H   0  0  0  0  0  0  0  0  0  0  0  0
  1  2  2  0
  1  3  2  0
  1  4  1  0
  1  9  1  0
  4  5  1  0
  4 22  1  0
  5  6  1  0
  5 23  1  0
  5 24  1  0
  6  7  2  0
  6  8  1  0
  8 25  1  0
  9 10  2  0
  9 14  1  0
 10 11  1  0
 10 26  1  0
 11 12  2  0
 11 27  1  0
 12 13  1  0
 12 28  1  0
 13 14  2  0
 13 18  1  0
 14 15  1  0
 15 16  2  0
 15 29  1  0
 16 17  1  0
 16 30  1  0
 17 18  2  0
 17 31  1  0
 18 19  1  0
 19 20  1  0
 19 21  1  0
 20 32  1  0
 20 33  1  0
 20 34  1  0
 21 35  1  0
 21 36  1  0
 21 37  1  0
M  END

