37

S          0.01730        0.07520        0.02670
O          1.47940        0.02870        0.01310
O         -0.75000        0.06560       -1.22520
N         -0.36280        1.47470        0.91860
C         -1.57840        2.17190        0.55070
C         -1.43140        2.97020       -0.73530
O         -0.37740        3.35330       -1.17190
O         -2.62090        3.24920       -1.28950
C         -0.57280       -1.24170        1.10650
C          0.38560       -1.74750        1.96280
C          0.02860       -2.70170        2.93680
C         -1.27150       -3.15140        3.01430
C         -2.26580       -2.69780        2.10830
C         -1.93460       -1.68730        1.13740
C         -2.96730       -1.18520        0.29380
C         -4.26150       -1.63040        0.44640
C         -4.59130       -2.63500        1.38190
C         -3.61340       -3.20560        2.18110
N         -3.89230       -4.25730        3.08390
C         -3.35260       -5.56250        2.71660
C         -5.24680       -4.34990        3.58920
H          0.46510        2.07230        0.85480
H         -1.84100        2.88030        1.35550
H         -2.42010        1.47300        0.47140
H         -2.44830        3.78340       -2.08440
H          1.40920       -1.38000        1.88690
H          0.78230       -3.06290        3.63970
H         -1.56960       -3.85060        3.79510
H         -2.72060       -0.47250       -0.48840
H         -5.04640       -1.22760       -0.19830
H         -5.61980       -2.99180        1.43690
H         -3.33700       -6.22410        3.59770
H         -2.32720       -5.46920        2.33810
H         -3.96140       -6.05360        1.92820
H         -5.59760       -3.36120        3.91720
H         -5.26130       -5.02720        4.45780
H         -5.97240       -4.74990        2.84830
