rmsd164.gzmat
 OpenBabel08211713383D

 37 38  0  0  0  0  0  0  0  0999 V2000
    0.0000    0.0000    0.0000 S   0  0  0  0  0  0  0  0  0  0  0  0
    1.4409    0.0000    0.0000 O   0  0  0  0  0  0  0  0  0  0  0  0
   -0.7713    0.0000   -1.2234 O   0  0  0  0  0  0  0  0  0  0  0  0
   -0.4489    1.4586    0.8664 N   0  0  0  0  0  0  0  0  0  0  0  0
   -1.5971    2.2154    0.3783 C   0  0  0  0  0  0  0  0  0  0  0  0
   -1.1867    3.3220   -0.5711 C   0  0  0  0  0  0  0  0  0  0  0  0
   -0.0979    3.8054   -0.7248 O   0  0  0  0  0  0  0  0  0  0  0  0
   -2.2700    3.7805   -1.2450 O   0  0  0  0  0  0  0  0  0  0  0  0
   -0.6312   -1.2844    1.0198 C   0  0  0  0  0  0  0  0  0  0  0  0
   -1.7066   -1.9903    0.5316 C   0  0  0  0  0  0  0  0  0  0  0  0
   -2.2882   -3.0338    1.2845 C   0  0  0  0  0  0  0  0  0  0  0  0
   -1.7919   -3.3364    2.5262 C   0  0  0  0  0  0  0  0  0  0  0  0
   -0.6948   -2.6129    3.0649 C   0  0  0  0  0  0  0  0  0  0  0  0
   -0.0795   -1.5925    2.2967 C   0  0  0  0  0  0  0  0  0  0  0  0
    1.0631   -0.9352    2.8345 C   0  0  0  0  0  0  0  0  0  0  0  0
    1.5422   -1.2578    4.0773 C   0  0  0  0  0  0  0  0  0  0  0  0
    0.9144   -2.2492    4.8628 C   0  0  0  0  0  0  0  0  0  0  0  0
   -0.1825   -2.9201    4.3702 C   0  0  0  0  0  0  0  0  0  0  0  0
   -0.8504   -3.9755    5.0826 N   0  0  0  0  0  0  0  0  0  0  0  0
    0.0600   -4.8126    5.8900 C   0  0  0  0  0  0  0  0  0  0  0  0
   -1.9664   -3.4472    5.8989 C   0  0  0  0  0  0  0  0  0  0  0  0
    0.3370    2.0680    1.1135 H   0  0  0  0  0  0  0  0  0  0  0  0
   -2.1200    2.6758    1.2575 H   0  0  0  0  0  0  0  0  0  0  0  0
   -2.3573    1.5559   -0.1147 H   0  0  0  0  0  0  0  0  0  0  0  0
   -2.0634    4.4960   -1.8956 H   0  0  0  0  0  0  0  0  0  0  0  0
   -2.1415   -1.7724   -0.4554 H   0  0  0  0  0  0  0  0  0  0  0  0
   -3.1245   -3.5893    0.8663 H   0  0  0  0  0  0  0  0  0  0  0  0
   -2.2222   -4.1508    3.1180 H   0  0  0  0  0  0  0  0  0  0  0  0
    1.5917   -0.1777    2.2481 H   0  0  0  0  0  0  0  0  0  0  0  0
    2.4203   -0.7504    4.4802 H   0  0  0  0  0  0  0  0  0  0  0  0
    1.3108   -2.4656    5.8512 H   0  0  0  0  0  0  0  0  0  0  0  0
    0.4409   -4.3311    6.8022 H   0  0  0  0  0  0  0  0  0  0  0  0
    0.9184   -5.1249    5.2711 H   0  0  0  0  0  0  0  0  0  0  0  0
   -0.4853   -5.7283    6.1803 H   0  0  0  0  0  0  0  0  0  0  0  0
   -1.6410   -2.8516    6.7661 H   0  0  0  0  0  0  0  0  0  0  0  0
   -2.5699   -4.2981    6.2589 H   0  0  0  0  0  0  0  0  0  0  0  0
   -2.6176   -2.8145    5.2729 H   0  0  0  0  0  0  0  0  0  0  0  0
  1  4  1  0  0  0  0
  1  9  1  0  0  0  0
  2  1  2  0  0  0  0
  3  1  2  0  0  0  0
  4 22  1  0  0  0  0
  5  4  1  0  0  0  0
  5 23  1  0  0  0  0
  6  5  1  0  0  0  0
  7  6  2  0  0  0  0
  8  6  1  0  0  0  0
  9 14  1  0  0  0  0
 10  9  2  0  0  0  0
 10 11  1  0  0  0  0
 11 12  2  0  0  0  0
 12 13  1  0  0  0  0
 12 28  1  0  0  0  0
 13 18  2  0  0  0  0
 14 15  2  0  0  0  0
 14 13  1  0  0  0  0
 15 16  1  0  0  0  0
 16 30  1  0  0  0  0
 16 17  2  0  0  0  0
 17 31  1  0  0  0  0
 18 17  1  0  0  0  0
 18 19  1  0  0  0  0
 19 20  1  0  0  0  0
 19 21  1  0  0  0  0
 20 34  1  0  0  0  0
 20 32  1  0  0  0  0
 21 36  1  0  0  0  0
 21 35  1  0  0  0  0
 24  5  1  0  0  0  0
 25  8  1  0  0  0  0
 26 10  1  0  0  0  0
 27 11  1  0  0  0  0
 29 15  1  0  0  0  0
 33 20  1  0  0  0  0
 37 21  1  0  0  0  0
M  END
$$$$
