37
rmsd193.gzmat
S          0.00000        0.00000        0.00000
O          1.44140        0.00000        0.00000
O         -0.77160        0.00000       -1.22290
N         -0.44520        1.45680        0.87050
C         -1.63000        2.18560        0.42930
C         -1.27740        3.31500       -0.51670
O         -0.20740        3.83540       -0.68190
O         -2.38580        3.74290       -1.16820
C         -0.63210       -1.28470        1.01890
C         -1.71250       -1.98580        0.53500
C         -2.31750       -3.00300        1.30510
C         -1.82670       -3.29710        2.55130
C         -0.69860       -2.60630        3.06790
C         -0.08280       -1.58770        2.29780
C          1.04810       -0.91630        2.84370
C          1.50550       -1.21300        4.10090
C          0.88640       -2.21370        4.88160
C         -0.18440       -2.91320        4.37230
N         -0.87280       -3.94900        5.09540
C         -0.97690       -3.68750        6.54470
C         -0.27080       -5.27400        4.82230
H          0.33650        2.08580        1.08030
H         -2.13480        2.62110        1.33200
H         -2.38840        1.51210       -0.04610
H         -2.21340        4.46900       -1.81710
H         -2.14060       -1.77680       -0.45680
H         -3.17520       -3.53690        0.90250
H         -2.30280       -4.06180        3.17350
H          1.58270       -0.16510        2.25460
H          2.36790       -0.68720        4.51380
H          1.28000       -2.42650        5.87190
H         -1.39710       -2.67960        6.70360
H         -0.02920       -3.76350        7.09760
H         -1.69050       -4.41310        6.97370
H         -0.93830       -6.05350        5.22700
H          0.73240       -5.40730        5.25550
H         -0.19840       -5.42920        3.73250
