37
rmsd79.gzmat
S          0.00000        0.00000        0.00000
O          1.44680        0.00000        0.00000
O         -0.76450        0.00000       -1.22100
N         -0.48700        1.45350        0.85280
C          0.55820        2.28750        1.43930
C          0.90250        3.46430        0.55140
O          0.27700        3.90380       -0.37550
O          2.05490        4.04300        0.96850
C         -0.53260       -1.28290        1.07540
C          0.44740       -1.92920        1.79310
C          0.11630       -2.93860        2.72270
C         -1.19640       -3.28760        2.90910
C         -2.22730       -2.66240        2.15830
C         -1.90310       -1.63940        1.23180
C         -2.96240       -1.01860        0.51090
C         -4.26760       -1.37480        0.72980
C         -4.59920       -2.39210        1.65110
C         -3.60030       -3.04060        2.34220
N         -3.84600       -4.08660        3.29590
C         -3.75450       -5.41960        2.65680
C         -5.10930       -3.93060        4.04360
H         -1.20170        2.01270        0.37670
H          1.48750        1.70370        1.67420
H          0.18900        2.67940        2.42370
H          2.33960        4.81170        0.41540
H          1.51210       -1.68110        1.67130
H          0.90950       -3.42180        3.28830
H         -1.47230       -4.04590        3.64900
H         -2.74710       -0.26090       -0.24880
H         -5.07330       -0.88570        0.17980
H         -5.64370       -2.65950        1.78550
H         -3.71790       -6.18670        3.44930
H         -2.81880       -5.49130        2.07690
H         -4.59370       -5.64630        1.98020
H         -5.17400       -2.90630        4.44830
H         -5.08250       -4.62180        4.90480
H         -6.01830       -4.13570        3.45950
