37
rmsd136.gzmat
S          0.00000        0.00000        0.00000
O          1.44360        0.00000        0.00000
O         -0.75980        0.00000       -1.22880
N         -0.46580        1.45160        0.86500
C         -1.49820        2.31060        0.28810
C         -0.91880        3.60860       -0.22870
O          0.17800        4.06210       -0.04180
O         -1.85130        4.28030       -0.94840
C         -0.53530       -1.27520        1.08490
C          0.42900       -1.81760        1.90410
C          0.09580       -2.79630        2.86510
C         -1.20180       -3.22470        2.97730
C         -2.21090       -2.71740        2.11660
C         -1.88640       -1.71960        1.16260
C         -2.92940       -1.21120        0.33750
C         -4.22070       -1.64620        0.48220
C         -4.55100       -2.64290        1.42570
C         -3.56410       -3.18860        2.21660
N         -3.81010       -4.20870        3.19630
C         -5.15540       -4.15160        3.80170
C         -3.52190       -5.55500        2.64940
H          0.31680        1.99330        1.24700
H         -2.24680        2.54780        1.09060
H         -2.07990        1.80520       -0.52850
H         -1.52980        5.13910       -1.31810
H          1.48250       -1.50470        1.84380
H          0.87310       -3.19110        3.51580
H         -1.48250       -3.95490        3.74280
H         -2.70830       -0.48140       -0.44760
H         -5.01410       -1.24100       -0.14760
H         -5.58230       -2.97880        1.49450
H         -5.97280       -4.46980        3.13760
H         -5.36030       -3.12440        4.14850
H         -5.15570       -4.80450        4.69280
H         -4.24720       -5.89120        1.89200
H         -3.51660       -6.27790        3.48260
H         -2.51890       -5.56520        2.19060
