37
rmsd53.gzmat
S          0.00000        0.00000        0.00000
O          1.44360        0.00000        0.00000
O         -0.75980        0.00000       -1.22880
N         -0.46970        1.45100        0.86430
C         -1.48400        2.32110        0.27300
C         -0.88210        3.60800       -0.24540
O          0.21920        4.04700       -0.05100
O         -1.79870        4.29060       -0.97540
C         -0.53440       -1.27630        1.08390
C          0.43080       -1.82730        1.89570
C          0.09800       -2.80890        2.85460
C         -1.20240       -3.22400        2.97960
C         -2.21540       -2.69950        2.13280
C         -1.88850       -1.71220        1.16880
C         -2.93080       -1.20860        0.33980
C         -4.22490       -1.63210        0.49490
C         -4.55940       -2.60730        1.45940
C         -3.57320       -3.14750        2.25400
N         -3.82230       -4.15000        3.25540
C         -3.68920       -5.50980        2.68360
C         -5.11250       -3.97960        3.95310
H          0.30900        1.98460        1.26460
H         -2.23770        2.57280        1.06630
H         -2.06510        1.81860       -0.54600
H         -1.46100        5.14320       -1.34560
H          1.48580       -1.52130        1.82960
H          0.87880       -3.21740        3.49220
H         -1.48410       -3.95980        3.73980
H         -2.70720       -0.49150       -0.45650
H         -5.01750       -1.23200       -0.13860
H         -5.59340       -2.92990        1.54480
H         -3.70160       -6.24070        3.50970
H         -2.71710       -5.60160        2.17060
H         -4.48200       -5.77170        1.96580
H         -5.18920       -2.94570        4.32980
H         -5.11890       -4.65030        4.83030
H         -6.00050       -4.19800        3.34280
