37

S         -0.43690        0.19170       -0.12360
O          0.99550        0.49180       -0.02530
O         -1.01480       -0.07040       -1.44690
N         -1.37600        1.45090        0.54110
C         -1.45780        2.62560       -0.31290
C         -0.37620        3.64060        0.01380
O          0.24350        3.65230        1.04720
O         -0.23450        4.55530       -0.95500
C         -0.81550       -1.12400        1.03010
C          0.24910       -1.58680        1.77720
C          0.05150       -2.63800        2.69770
C         -1.21040       -3.16060        2.88420
C         -2.33220       -2.66950        2.16390
C         -2.13710       -1.65950        1.16040
C         -3.23180       -1.27570        0.33860
C         -4.46200       -1.86690        0.51980
C         -4.68110       -2.81720        1.54210
C         -3.65110       -3.20670        2.38430
N         -3.83870       -4.13110        3.43720
C         -3.76100       -3.57780        4.78480
C         -4.92520       -5.07880        3.29740
H         -0.97290        1.70110        1.44930
H         -2.43390        3.12380       -0.17550
H         -1.40610        2.32760       -1.36980
H          0.44300        5.18800       -0.65870
H          1.23320       -1.14100        1.62880
H          0.90330       -3.03730        3.25190
H         -1.36750       -3.99100        3.57250
H         -3.08040       -0.54060       -0.44740
H         -5.29610       -1.58220       -0.12620
H         -5.68250       -3.22550        1.67960
H         -4.69290       -3.04300        5.06640
H         -2.92900       -2.86750        4.86840
H         -3.59860       -4.38710        5.51480
H         -5.92930       -4.63330        3.46720
H         -4.79720       -5.88510        4.03700
H         -4.91110       -5.52630        2.29360
