37
rmsd174.gzmat
S          0.00000        0.00000        0.00000
O          1.44120        0.00000        0.00000
O         -0.77040        0.00000       -1.22340
N         -0.44600        1.45290        0.87580
C         -1.66530        2.14820        0.47880
C         -1.38710        3.27150       -0.49910
O         -0.34270        3.82130       -0.72140
O         -2.53690        3.65560       -1.10530
C         -0.63630       -1.28400        1.01700
C         -1.71100       -1.98870        0.52550
C         -2.32910       -2.99520        1.29900
C         -1.85670       -3.27400        2.55570
C         -0.72930       -2.58540        3.07730
C         -0.10080       -1.57760        2.30350
C          1.02870       -0.90650        2.85220
C          1.47540       -1.19590        4.11480
C          0.84610       -2.18790        4.89840
C         -0.22710       -2.88400        4.38880
N         -0.92990       -3.90290        5.11950
C         -0.99910       -3.65350        6.57320
C         -0.37750       -5.24550        4.82620
H          0.32650        2.09990        1.06030
H         -2.14040        2.58470        1.39710
H         -2.42760        1.44990        0.04760
H         -2.41740        4.37160       -1.77710
H         -2.12550       -1.78940       -0.47410
H         -3.18240       -3.53250        0.89130
H         -2.34800       -4.02480        3.18240
H          1.57040       -0.16190        2.26110
H          2.33680       -0.67040        4.53000
H          1.23530       -2.39810        5.89100
H         -1.36490       -2.62830        6.75280
H         -0.04820       -3.78780        7.10960
H         -1.74310       -4.34760        7.00290
H         -1.06320       -6.00410        5.24070
H          0.63030       -5.41130        5.23700
H         -0.33140       -5.39790        3.73500
