rmsd174.gzmat
 OpenBabel08211713383D

 37 38  0  0  0  0  0  0  0  0999 V2000
    0.0000    0.0000    0.0000 S   0  0  0  0  0  0  0  0  0  0  0  0
    1.4412    0.0000    0.0000 O   0  0  0  0  0  0  0  0  0  0  0  0
   -0.7704    0.0000   -1.2234 O   0  0  0  0  0  0  0  0  0  0  0  0
   -0.4460    1.4529    0.8758 N   0  0  0  0  0  0  0  0  0  0  0  0
   -1.6653    2.1482    0.4788 C   0  0  0  0  0  0  0  0  0  0  0  0
   -1.3871    3.2715   -0.4991 C   0  0  0  0  0  0  0  0  0  0  0  0
   -0.3427    3.8213   -0.7214 O   0  0  0  0  0  0  0  0  0  0  0  0
   -2.5369    3.6556   -1.1053 O   0  0  0  0  0  0  0  0  0  0  0  0
   -0.6363   -1.2840    1.0170 C   0  0  0  0  0  0  0  0  0  0  0  0
   -1.7110   -1.9887    0.5255 C   0  0  0  0  0  0  0  0  0  0  0  0
   -2.3291   -2.9952    1.2990 C   0  0  0  0  0  0  0  0  0  0  0  0
   -1.8567   -3.2740    2.5557 C   0  0  0  0  0  0  0  0  0  0  0  0
   -0.7293   -2.5854    3.0773 C   0  0  0  0  0  0  0  0  0  0  0  0
   -0.1008   -1.5776    2.3035 C   0  0  0  0  0  0  0  0  0  0  0  0
    1.0287   -0.9065    2.8522 C   0  0  0  0  0  0  0  0  0  0  0  0
    1.4754   -1.1959    4.1148 C   0  0  0  0  0  0  0  0  0  0  0  0
    0.8461   -2.1879    4.8984 C   0  0  0  0  0  0  0  0  0  0  0  0
   -0.2271   -2.8840    4.3888 C   0  0  0  0  0  0  0  0  0  0  0  0
   -0.9299   -3.9029    5.1195 N   0  0  0  0  0  0  0  0  0  0  0  0
   -0.9991   -3.6535    6.5732 C   0  0  0  0  0  0  0  0  0  0  0  0
   -0.3775   -5.2455    4.8262 C   0  0  0  0  0  0  0  0  0  0  0  0
    0.3265    2.0999    1.0603 H   0  0  0  0  0  0  0  0  0  0  0  0
   -2.1404    2.5847    1.3971 H   0  0  0  0  0  0  0  0  0  0  0  0
   -2.4276    1.4499    0.0476 H   0  0  0  0  0  0  0  0  0  0  0  0
   -2.4174    4.3716   -1.7771 H   0  0  0  0  0  0  0  0  0  0  0  0
   -2.1255   -1.7894   -0.4741 H   0  0  0  0  0  0  0  0  0  0  0  0
   -3.1824   -3.5325    0.8913 H   0  0  0  0  0  0  0  0  0  0  0  0
   -2.3480   -4.0248    3.1824 H   0  0  0  0  0  0  0  0  0  0  0  0
    1.5704   -0.1619    2.2611 H   0  0  0  0  0  0  0  0  0  0  0  0
    2.3368   -0.6704    4.5300 H   0  0  0  0  0  0  0  0  0  0  0  0
    1.2353   -2.3981    5.8910 H   0  0  0  0  0  0  0  0  0  0  0  0
   -1.3649   -2.6283    6.7528 H   0  0  0  0  0  0  0  0  0  0  0  0
   -0.0482   -3.7878    7.1096 H   0  0  0  0  0  0  0  0  0  0  0  0
   -1.7431   -4.3476    7.0029 H   0  0  0  0  0  0  0  0  0  0  0  0
   -1.0632   -6.0041    5.2407 H   0  0  0  0  0  0  0  0  0  0  0  0
    0.6303   -5.4113    5.2370 H   0  0  0  0  0  0  0  0  0  0  0  0
   -0.3314   -5.3979    3.7350 H   0  0  0  0  0  0  0  0  0  0  0  0
  1  4  1  0  0  0  0
  1  9  1  0  0  0  0
  2  1  2  0  0  0  0
  3  1  2  0  0  0  0
  4 22  1  0  0  0  0
  5  4  1  0  0  0  0
  5 23  1  0  0  0  0
  6  5  1  0  0  0  0
  7  6  2  0  0  0  0
  8  6  1  0  0  0  0
  9 14  1  0  0  0  0
 10  9  2  0  0  0  0
 10 11  1  0  0  0  0
 11 12  2  0  0  0  0
 12 13  1  0  0  0  0
 12 28  1  0  0  0  0
 13 18  2  0  0  0  0
 14 15  2  0  0  0  0
 14 13  1  0  0  0  0
 15 16  1  0  0  0  0
 16 30  1  0  0  0  0
 16 17  2  0  0  0  0
 17 31  1  0  0  0  0
 18 17  1  0  0  0  0
 18 19  1  0  0  0  0
 19 20  1  0  0  0  0
 20 32  1  0  0  0  0
 20 34  1  0  0  0  0
 20 33  1  0  0  0  0
 21 19  1  0  0  0  0
 21 36  1  0  0  0  0
 21 35  1  0  0  0  0
 24  5  1  0  0  0  0
 25  8  1  0  0  0  0
 26 10  1  0  0  0  0
 27 11  1  0  0  0  0
 29 15  1  0  0  0  0
 37 21  1  0  0  0  0
M  END
$$$$
