
     RDKit          3D

 37 38  0  0  0  0  0  0  0  0999 V2000
    0.1040    0.0894   -0.0588 S   0  0  0  0  0  0  0  0  0  0  0  0
    1.5548   -0.0461   -0.1927 O   0  0  0  0  0  0  0  0  0  0  0  0
   -0.7545    0.1854   -1.2469 O   0  0  0  0  0  0  0  0  0  0  0  0
   -0.1262    1.4561    0.9260 N   0  0  0  0  0  0  0  0  0  0  0  0
   -1.4079    2.1158    0.7718 C   0  0  0  0  0  0  0  0  0  0  0  0
   -1.4372    3.0422   -0.4336 C   0  0  0  0  0  0  0  0  0  0  0  0
   -0.4505    3.4902   -0.9581 O   0  0  0  0  0  0  0  0  0  0  0  0
   -2.6891    3.3533   -0.7975 O   0  0  0  0  0  0  0  0  0  0  0  0
   -0.5673   -1.2175    0.9716 C   0  0  0  0  0  0  0  0  0  0  0  0
   -1.6617   -1.8872    0.4628 C   0  0  0  0  0  0  0  0  0  0  0  0
   -2.2390   -2.9458    1.1969 C   0  0  0  0  0  0  0  0  0  0  0  0
   -1.7406   -3.2730    2.4394 C   0  0  0  0  0  0  0  0  0  0  0  0
   -0.6442   -2.5701    3.0077 C   0  0  0  0  0  0  0  0  0  0  0  0
    0.0116   -1.5484    2.2390 C   0  0  0  0  0  0  0  0  0  0  0  0
    1.1972   -0.9510    2.7472 C   0  0  0  0  0  0  0  0  0  0  0  0
    1.6954   -1.3496    3.9675 C   0  0  0  0  0  0  0  0  0  0  0  0
    1.0269   -2.3099    4.7591 C   0  0  0  0  0  0  0  0  0  0  0  0
   -0.1452   -2.9044    4.3176 C   0  0  0  0  0  0  0  0  0  0  0  0
   -0.8576   -3.8470    5.0937 N   0  0  0  0  0  0  0  0  0  0  0  0
   -0.1020   -4.6026    6.0718 C   0  0  0  0  0  0  0  0  0  0  0  0
   -2.1399   -3.3926    5.6200 C   0  0  0  0  0  0  0  0  0  0  0  0
    0.6566    2.0850    0.7261 H   0  0  0  0  0  0  0  0  0  0  0  0
   -1.6187    2.7236    1.6688 H   0  0  0  0  0  0  0  0  0  0  0  0
   -2.2159    1.3754    0.6970 H   0  0  0  0  0  0  0  0  0  0  0  0
   -2.6255    3.9699   -1.5476 H   0  0  0  0  0  0  0  0  0  0  0  0
   -2.0528   -1.5971   -0.5128 H   0  0  0  0  0  0  0  0  0  0  0  0
   -3.0733   -3.5062    0.7703 H   0  0  0  0  0  0  0  0  0  0  0  0
   -2.1616   -4.1065    3.0015 H   0  0  0  0  0  0  0  0  0  0  0  0
    1.7225   -0.2072    2.1541 H   0  0  0  0  0  0  0  0  0  0  0  0
    2.6174   -0.9006    4.3448 H   0  0  0  0  0  0  0  0  0  0  0  0
    1.4314   -2.5625    5.7393 H   0  0  0  0  0  0  0  0  0  0  0  0
    0.1671   -4.0158    6.9765 H   0  0  0  0  0  0  0  0  0  0  0  0
    0.8239   -4.9866    5.6210 H   0  0  0  0  0  0  0  0  0  0  0  0
   -0.7048   -5.4613    6.4075 H   0  0  0  0  0  0  0  0  0  0  0  0
   -2.0135   -2.7348    6.5061 H   0  0  0  0  0  0  0  0  0  0  0  0
   -2.7502   -4.2587    5.9230 H   0  0  0  0  0  0  0  0  0  0  0  0
   -2.6962   -2.8290    4.8609 H   0  0  0  0  0  0  0  0  0  0  0  0
  1  2  2  0
  1  3  2  0
  1  4  1  0
  1  9  1  0
  4  5  1  0
  4 22  1  0
  5  6  1  0
  5 23  1  0
  5 24  1  0
  6  7  2  0
  6  8  1  0
  8 25  1  0
  9 10  2  0
  9 14  1  0
 10 11  1  0
 10 26  1  0
 11 12  2  0
 11 27  1  0
 12 13  1  0
 12 28  1  0
 13 14  2  0
 13 18  1  0
 14 15  1  0
 15 16  2  0
 15 29  1  0
 16 17  1  0
 16 30  1  0
 17 18  2  0
 17 31  1  0
 18 19  1  0
 19 20  1  0
 19 21  1  0
 20 32  1  0
 20 33  1  0
 20 34  1  0
 21 35  1  0
 21 36  1  0
 21 37  1  0
M  END

