33
rmsd94.gzmat
N          0.00000        0.00000        0.00000
C          1.41330        0.00000        0.00000
N          1.87810        0.00000        1.24660
C          0.77970        0.02830        2.10270
C         -0.40950        0.03490        1.33160
N         -1.73930       -0.04770        1.72060
C          0.86640        0.05980        3.53050
N          1.99130       -0.01060        4.29520
N          1.54870        0.06570        5.58010
C          0.16650        0.17120        5.60780
N         -0.27850        0.17310        4.33810
C          2.49260       -0.02460        6.67820
C         -0.87610        0.03640       -1.15870
C         -1.60430        1.35290       -1.26800
C         -0.89560        2.55420       -1.23500
C         -1.57570        3.76430       -1.34750
C         -2.96220        3.77530       -1.49250
C         -3.66910        2.57440       -1.52190
C         -2.99180        1.36200       -1.40980
H          1.99730       -0.01310       -0.90060
H         -2.38500        0.55220        1.23230
H         -1.84930       -0.01890        2.73520
H         -0.43400        0.24210        6.49550
H          2.47750        0.90240        7.28040
H          3.52550       -0.16260        6.29050
H          2.25410       -0.88660        7.32750
H         -1.59850       -0.81830       -1.08580
H         -0.27560       -0.14340       -2.08430
H          0.18780        2.54720       -1.11040
H         -1.02330        4.70260       -1.32170
H         -3.49270        4.72150       -1.58210
H         -4.75200        2.58330       -1.63190
H         -3.54920        0.42700       -1.43690
