
     RDKit          3D

 33 35  0  0  0  0  0  0  0  0999 V2000
   -0.0834   -0.1049    0.0584 N   0  0  0  0  0  0  0  0  0  0  0  0
    1.2971   -0.2293    0.0103 C   0  0  0  0  0  0  0  0  0  0  0  0
    1.8293   -0.2225    1.2010 N   0  0  0  0  0  0  0  0  0  0  0  0
    0.7800   -0.0718    2.0878 C   0  0  0  0  0  0  0  0  0  0  0  0
   -0.4242    0.0070    1.3882 C   0  0  0  0  0  0  0  0  0  0  0  0
   -1.7345    0.0817    1.8171 N   0  0  0  0  0  0  0  0  0  0  0  0
    0.8998    0.0043    3.5306 C   0  0  0  0  0  0  0  0  0  0  0  0
    2.0383   -0.0473    4.2184 N   0  0  0  0  0  0  0  0  0  0  0  0
    1.6288    0.0718    5.5015 N   0  0  0  0  0  0  0  0  0  0  0  0
    0.2835    0.1890    5.5488 C   0  0  0  0  0  0  0  0  0  0  0  0
   -0.2154    0.1507    4.3290 N   0  0  0  0  0  0  0  0  0  0  0  0
    2.5878    0.0562    6.5812 C   0  0  0  0  0  0  0  0  0  0  0  0
   -1.0158   -0.0635   -1.0446 C   0  0  0  0  0  0  0  0  0  0  0  0
   -1.6799    1.2904   -1.2238 C   0  0  0  0  0  0  0  0  0  0  0  0
   -0.9997    2.4736   -0.9043 C   0  0  0  0  0  0  0  0  0  0  0  0
   -1.6126    3.7145   -1.0936 C   0  0  0  0  0  0  0  0  0  0  0  0
   -2.9119    3.7878   -1.6038 C   0  0  0  0  0  0  0  0  0  0  0  0
   -3.5981    2.6120   -1.9194 C   0  0  0  0  0  0  0  0  0  0  0  0
   -2.9857    1.3712   -1.7256 C   0  0  0  0  0  0  0  0  0  0  0  0
    1.8244   -0.3134   -0.9404 H   0  0  0  0  0  0  0  0  0  0  0  0
   -2.2907    0.7926    1.3446 H   0  0  0  0  0  0  0  0  0  0  0  0
   -1.7590    0.1833    2.8340 H   0  0  0  0  0  0  0  0  0  0  0  0
   -0.2735    0.2959    6.4791 H   0  0  0  0  0  0  0  0  0  0  0  0
    3.1437   -0.8933    6.5805 H   0  0  0  0  0  0  0  0  0  0  0  0
    2.0558    0.1667    7.5357 H   0  0  0  0  0  0  0  0  0  0  0  0
    3.3035    0.8835    6.4637 H   0  0  0  0  0  0  0  0  0  0  0  0
   -1.7888   -0.8348   -0.8932 H   0  0  0  0  0  0  0  0  0  0  0  0
   -0.4585   -0.3378   -1.9550 H   0  0  0  0  0  0  0  0  0  0  0  0
    0.0122    2.4194   -0.4964 H   0  0  0  0  0  0  0  0  0  0  0  0
   -1.0722    4.6292   -0.8382 H   0  0  0  0  0  0  0  0  0  0  0  0
   -3.3912    4.7589   -1.7488 H   0  0  0  0  0  0  0  0  0  0  0  0
   -4.6173    2.6596   -2.3103 H   0  0  0  0  0  0  0  0  0  0  0  0
   -3.5301    0.4527   -1.9631 H   0  0  0  0  0  0  0  0  0  0  0  0
  1  2  1  0
  1  5  1  0
  1 13  1  0
  2  3  2  0
  2 20  1  0
  3  4  1  0
  4  5  2  0
  4  7  1  0
  5  6  1  0
  6 21  1  0
  6 22  1  0
  7  8  2  0
  7 11  1  0
  8  9  1  0
  9 10  1  0
  9 12  1  0
 10 11  2  0
 10 23  1  0
 12 24  1  0
 12 25  1  0
 12 26  1  0
 13 14  1  0
 13 27  1  0
 13 28  1  0
 14 15  2  0
 14 19  1  0
 15 16  1  0
 15 29  1  0
 16 17  2  0
 16 30  1  0
 17 18  1  0
 17 31  1  0
 18 19  2  0
 18 32  1  0
 19 33  1  0
M  END

