33
rmsd103.gzmat
N          0.00000        0.00000        0.00000
C          1.41450        0.00000        0.00000
N          1.87890        0.00000        1.24550
C          0.78050       -0.02900        2.10260
C         -0.40880       -0.03560        1.33260
N         -1.73390        0.04470        1.73180
C          0.87700       -0.06290        3.52940
N          2.00710        0.06590        4.27880
N          1.58890       -0.04430        5.56900
C          0.21460       -0.22720        5.61520
N         -0.24820       -0.24380        4.35130
C          2.55010        0.09230        6.64720
C         -0.86890       -0.04830       -1.16300
C         -1.64700       -1.33730       -1.25860
C         -2.93760       -1.30540       -1.78930
C         -3.67160       -2.48380       -1.90060
C         -3.12060       -3.69310       -1.47860
C         -1.83050       -3.72380       -0.95240
C         -1.09040       -2.54830       -0.84780
H          1.99800        0.01310       -0.90110
H         -2.39620       -0.51110        1.21670
H         -1.84210       -0.02290        2.74460
H         -0.36860       -0.34200        6.51060
H          2.49560       -0.77630        7.32790
H          2.36770        1.02120        7.21920
H          3.58330        0.14430        6.23820
H         -0.25250        0.08110       -2.08830
H         -1.56350        0.83200       -1.12440
H         -3.37400       -0.36430       -2.12020
H         -4.67710       -2.45970       -2.31720
H         -3.69680       -4.61240       -1.56200
H         -1.39830       -4.66820       -0.62290
H         -0.07860       -2.57880       -0.43940
