33
rmsd81.gzmat
N          0.00000        0.00000        0.00000
C          1.41400        0.00000        0.00000
N          1.87830        0.00000        1.24590
C          0.78010       -0.02880        2.10250
C         -0.40930       -0.03810        1.33220
N         -1.73570        0.03800        1.72920
C          0.87420       -0.05230        3.52960
N          2.00200        0.08110        4.28140
N          1.57860       -0.01060        5.57160
C          0.20360       -0.18650        5.61510
N         -0.25450       -0.21810        4.34990
C          2.53420        0.15170        6.65120
C         -0.87170       -0.05540       -1.16140
C         -1.62980       -1.35740       -1.23930
C         -2.99290       -1.34000       -1.53520
C         -3.69960       -2.53780       -1.61930
C         -3.04810       -3.75080       -1.40260
C         -1.68620       -3.76610       -1.10530
C         -0.97520       -2.57120       -1.02790
H          1.99790        0.01680       -0.90070
H         -2.39200       -0.53040        1.21910
H         -1.84400       -0.02350        2.74260
H         -0.38300       -0.28830        6.50940
H          2.50450       -0.71830        7.33060
H          2.32580        1.07540        7.22190
H          3.56600        0.23090        6.24420
H         -0.26100        0.08030       -2.08870
H         -1.57480        0.81720       -1.12030
H         -3.50940       -0.39650       -1.70300
H         -4.76260       -2.52520       -1.85370
H         -3.60180       -4.68550       -1.46730
H         -1.17480       -4.71260       -0.93440
H          0.09000       -2.58590       -0.79250
