rmsd85.gzmat
 OpenBabel08211713393D

 33 35  0  0  1  0  0  0  0  0999 V2000
    0.0000    0.0000    0.0000 N   0  0  0  0  0  0  0  0  0  0  0  0
    1.4135    0.0000    0.0000 C   0  0  0  0  0  0  0  0  0  0  0  0
    1.8778    0.0000    1.2465 N   0  0  0  0  0  0  0  0  0  0  0  0
    0.7796    0.0283    2.1028 C   0  0  0  0  0  0  0  0  0  0  0  0
   -0.4093    0.0393    1.3317 C   0  0  2  0  0  0  0  0  0  0  0  0
   -1.7386   -0.0351    1.7230 N   0  0  0  0  0  0  0  0  0  0  0  0
    0.8689    0.0439    3.5307 C   0  0  0  0  0  0  0  0  0  0  0  0
    1.9912   -0.0860    4.2912 N   0  0  0  0  0  0  0  0  0  0  0  0
    1.5559   -0.0049    5.5784 N   0  0  0  0  0  0  0  0  0  0  0  0
    0.1788    0.1566    5.6112 C   0  0  0  0  0  0  0  0  0  0  0  0
   -0.2683    0.1951    4.3428 N   0  0  0  0  0  0  0  0  0  0  0  0
    2.4949   -0.1860    6.6700 C   0  0  0  0  0  0  0  0  0  0  0  0
   -0.8754    0.0231   -1.1585 C   0  0  0  0  0  0  0  0  0  0  0  0
   -1.5307    1.3657   -1.3673 C   0  0  0  0  0  0  0  0  0  0  0  0
   -0.8255    2.5497   -1.1517 C   0  0  0  0  0  0  0  0  0  0  0  0
   -1.4442    3.7777   -1.3740 C   0  0  0  0  0  0  0  0  0  0  0  0
   -2.7629    3.8249   -1.8227 C   0  0  0  0  0  0  0  0  0  0  0  0
   -3.4637    2.6409   -2.0470 C   0  0  0  0  0  0  0  0  0  0  0  0
   -2.8524    1.4114   -1.8132 C   0  0  0  0  0  0  0  0  0  0  0  0
    1.9976   -0.0118   -0.9007 H   0  0  0  0  0  0  0  0  0  0  0  0
   -2.3843    0.5588    1.2288 H   0  0  0  0  0  0  0  0  0  0  0  0
   -1.8466    0.0068    2.7378 H   0  0  0  0  0  0  0  0  0  0  0  0
   -0.4158    0.2465    6.5013 H   0  0  0  0  0  0  0  0  0  0  0  0
    2.3212    0.5664    7.4596 H   0  0  0  0  0  0  0  0  0  0  0  0
    3.5387   -0.0727    6.3044 H   0  0  0  0  0  0  0  0  0  0  0  0
    2.4002   -1.2003    7.1028 H   0  0  0  0  0  0  0  0  0  0  0  0
   -1.6469   -0.7822   -1.0354 H   0  0  0  0  0  0  0  0  0  0  0  0
   -0.2860   -0.2484   -2.0704 H   0  0  0  0  0  0  0  0  0  0  0  0
    0.2087    2.5180   -0.8046 H   0  0  0  0  0  0  0  0  0  0  0  0
   -0.8935    4.7014   -1.1994 H   0  0  0  0  0  0  0  0  0  0  0  0
   -3.2459    4.7845   -1.9979 H   0  0  0  0  0  0  0  0  0  0  0  0
   -4.4899    2.6763   -2.4071 H   0  0  0  0  0  0  0  0  0  0  0  0
   -3.4096    0.4921   -1.9830 H   0  0  0  0  0  0  0  0  0  0  0  0
  1  5  1  0  0  0  0
  2  1  1  0  0  0  0
  2  3  2  0  0  0  0
  3  4  2  0  0  0  0
  4  7  1  0  0  0  0
  5  6  1  1  0  0  0
  5  4  1  0  0  0  0
  6 22  1  0  0  0  0
  7  8  2  0  0  0  0
  7 11  2  0  0  0  0
  8  9  1  0  0  0  0
  9 10  1  0  0  0  0
  9 12  1  0  0  0  0
 10 23  1  0  0  0  0
 11 10  2  0  0  0  0
 12 26  1  0  0  0  0
 12 24  1  0  0  0  0
 13 27  1  0  0  0  0
 13  1  1  0  0  0  0
 14 13  1  0  0  0  0
 14 15  1  0  0  0  0
 15 29  1  0  0  0  0
 16 30  1  0  0  0  0
 16 15  2  0  0  0  0
 17 16  1  0  0  0  0
 18 17  2  0  0  0  0
 18 19  1  0  0  0  0
 19 14  2  0  0  0  0
 20  2  1  0  0  0  0
 21  6  1  0  0  0  0
 25 12  1  0  0  0  0
 28 13  1  0  0  0  0
 31 17  1  0  0  0  0
 32 18  1  0  0  0  0
 33 19  1  0  0  0  0
M  RAD  1   5   2
M  END
$$$$
