rmsd76.gzmat
 OpenBabel08211713393D

 33 35  0  0  1  0  0  0  0  0999 V2000
    0.0000    0.0000    0.0000 N   0  0  0  0  0  0  0  0  0  0  0  0
    1.4142    0.0000    0.0000 C   0  0  0  0  0  0  0  0  0  0  0  0
    1.8786    0.0000    1.2460 N   0  0  0  0  0  0  0  0  0  0  0  0
    0.7802   -0.0308    2.1024 C   0  0  0  0  0  0  0  0  0  0  0  0
   -0.4089   -0.0398    1.3320 C   0  0  1  0  0  0  0  0  0  0  0  0
   -1.7355    0.0382    1.7274 N   0  0  0  0  0  0  0  0  0  0  0  0
    0.8704   -0.0576    3.5299 C   0  0  0  0  0  0  0  0  0  0  0  0
    1.9906    0.0931    4.2895 N   0  0  0  0  0  0  0  0  0  0  0  0
    1.5597   -0.0095    5.5765 N   0  0  0  0  0  0  0  0  0  0  0  0
    0.1875   -0.2072    5.6103 C   0  0  0  0  0  0  0  0  0  0  0  0
   -0.2612   -0.2439    4.3424 N   0  0  0  0  0  0  0  0  0  0  0  0
    2.4985    0.1757    6.6671 C   0  0  0  0  0  0  0  0  0  0  0  0
   -0.8731   -0.0472   -1.1597 C   0  0  0  0  0  0  0  0  0  0  0  0
   -1.5720   -1.3762   -1.3047 C   0  0  0  0  0  0  0  0  0  0  0  0
   -2.8945   -1.4017   -1.7492 C   0  0  0  0  0  0  0  0  0  0  0  0
   -3.5483   -2.6209   -1.9122 C   0  0  0  0  0  0  0  0  0  0  0  0
   -2.8873   -3.8136   -1.6228 C   0  0  0  0  0  0  0  0  0  0  0  0
   -1.5670   -3.7864   -1.1771 C   0  0  0  0  0  0  0  0  0  0  0  0
   -0.9072   -2.5695   -1.0228 C   0  0  0  0  0  0  0  0  0  0  0  0
    1.9974    0.0129   -0.9008 H   0  0  0  0  0  0  0  0  0  0  0  0
   -2.3921   -0.5285    1.2165 H   0  0  0  0  0  0  0  0  0  0  0  0
   -1.8441   -0.0266    2.7405 H   0  0  0  0  0  0  0  0  0  0  0  0
   -0.4031   -0.3193    6.5008 H   0  0  0  0  0  0  0  0  0  0  0  0
    2.5447   -0.7308    7.2978 H   0  0  0  0  0  0  0  0  0  0  0  0
    2.2073    1.0427    7.2880 H   0  0  0  0  0  0  0  0  0  0  0  0
    3.5194    0.3673    6.2701 H   0  0  0  0  0  0  0  0  0  0  0  0
   -0.2736    0.1596   -2.0816 H   0  0  0  0  0  0  0  0  0  0  0  0
   -1.6162    0.7891   -1.0791 H   0  0  0  0  0  0  0  0  0  0  0  0
   -3.4203   -0.4749   -1.9716 H   0  0  0  0  0  0  0  0  0  0  0  0
   -4.5779   -2.6412   -2.2647 H   0  0  0  0  0  0  0  0  0  0  0  0
   -3.4022   -4.7649   -1.7438 H   0  0  0  0  0  0  0  0  0  0  0  0
   -1.0489   -4.7171   -0.9487 H   0  0  0  0  0  0  0  0  0  0  0  0
    0.1261   -2.5537   -0.6724 H   0  0  0  0  0  0  0  0  0  0  0  0
  1  2  1  0  0  0  0
  1  5  1  0  0  0  0
  2  3  2  0  0  0  0
  3  4  2  0  0  0  0
  4  7  1  0  0  0  0
  5  6  1  1  0  0  0
  5  4  1  0  0  0  0
  6 22  1  0  0  0  0
  7  8  2  0  0  0  0
  7 11  2  0  0  0  0
  8  9  1  0  0  0  0
  9 10  1  0  0  0  0
  9 12  1  0  0  0  0
 10 23  1  0  0  0  0
 11 10  2  0  0  0  0
 12 25  1  0  0  0  0
 12 24  1  0  0  0  0
 13 28  1  0  0  0  0
 13  1  1  0  0  0  0
 14 13  1  0  0  0  0
 14 19  2  0  0  0  0
 15 14  1  0  0  0  0
 16 15  2  0  0  0  0
 16 17  1  0  0  0  0
 17 18  2  0  0  0  0
 18 19  1  0  0  0  0
 18 32  1  0  0  0  0
 19 33  1  0  0  0  0
 20  2  1  0  0  0  0
 21  6  1  0  0  0  0
 26 12  1  0  0  0  0
 27 13  1  0  0  0  0
 29 15  1  0  0  0  0
 30 16  1  0  0  0  0
 31 17  1  0  0  0  0
M  RAD  1   5   2
M  END
$$$$
