33
rmsd76.gzmat
N          0.00000        0.00000        0.00000
C          1.41420        0.00000        0.00000
N          1.87860        0.00000        1.24600
C          0.78020       -0.03080        2.10240
C         -0.40890       -0.03980        1.33200
N         -1.73550        0.03820        1.72740
C          0.87040       -0.05760        3.52990
N          1.99060        0.09310        4.28950
N          1.55970       -0.00950        5.57650
C          0.18750       -0.20720        5.61030
N         -0.26120       -0.24390        4.34240
C          2.49850        0.17570        6.66710
C         -0.87310       -0.04720       -1.15970
C         -1.57200       -1.37620       -1.30470
C         -2.89450       -1.40170       -1.74920
C         -3.54830       -2.62090       -1.91220
C         -2.88730       -3.81360       -1.62280
C         -1.56700       -3.78640       -1.17710
C         -0.90720       -2.56950       -1.02280
H          1.99740        0.01290       -0.90080
H         -2.39210       -0.52850        1.21650
H         -1.84410       -0.02660        2.74050
H         -0.40310       -0.31930        6.50080
H          2.54470       -0.73080        7.29780
H          2.20730        1.04270        7.28800
H          3.51940        0.36730        6.27010
H         -0.27360        0.15960       -2.08160
H         -1.61620        0.78910       -1.07910
H         -3.42030       -0.47490       -1.97160
H         -4.57790       -2.64120       -2.26470
H         -3.40220       -4.76490       -1.74380
H         -1.04890       -4.71710       -0.94870
H          0.12610       -2.55370       -0.67240
