rmsd108.gzmat
 OpenBabel08211713403D

 42 44  0  0  1  0  0  0  0  0999 V2000
    0.0000    0.0000    0.0000 C   0  0  0  0  0  0  0  0  0  0  0  0
    1.5133    0.0000    0.0000 C   0  0  0  0  0  0  0  0  0  0  0  0
    2.1674    0.0000    1.4163 C   0  0  1  0  0  0  0  0  0  0  0  0
    2.3873    1.0632    1.7292 H   0  0  0  0  0  0  0  0  0  0  0  0
    1.2736   -0.5874    2.5210 C   0  0  0  0  0  0  0  0  0  0  0  0
    0.1192   -0.3029    2.6819 O   0  0  0  0  0  0  0  0  0  0  0  0
    1.8570   -1.4229    3.4057 O   0  0  0  0  0  0  0  0  0  0  0  0
    3.4168   -0.7584    1.3782 N   0  0  0  0  0  0  0  0  0  0  0  0
    3.4709   -1.8553    0.3594 C   0  0  2  0  0  0  0  0  0  0  0  0
    3.4466   -2.8672    0.8005 H   0  0  0  0  0  0  0  0  0  0  0  0
    4.9177   -1.3581   -0.0628 C   0  0  2  0  0  0  0  0  0  0  0  0
    5.7226   -2.0588    0.2684 H   0  0  0  0  0  0  0  0  0  0  0  0
    4.6636   -0.1700    0.9285 C   0  0  0  0  0  0  0  0  0  0  0  0
    5.1982    0.8289    1.2659 O   0  0  0  0  0  0  0  0  0  0  0  0
    5.1111   -0.9336   -1.4145 N   0  0  0  0  0  0  0  0  0  0  0  0
    5.7926   -1.7519   -2.3004 C   0  0  0  0  0  0  0  0  0  0  0  0
    6.3223   -2.7777   -1.9341 O   0  0  0  0  0  0  0  0  0  0  0  0
    5.8782   -1.2694   -3.7404 C   0  0  0  0  0  0  0  0  0  0  0  0
    5.1077   -0.1094   -3.9723 O   0  0  0  0  0  0  0  0  0  0  0  0
    3.7602   -0.2476   -4.1754 C   0  0  0  0  0  0  0  0  0  0  0  0
    3.0521   -1.4447   -4.1457 C   0  0  0  0  0  0  0  0  0  0  0  0
    1.6715   -1.3997   -4.3428 C   0  0  0  0  0  0  0  0  0  0  0  0
    1.0262   -0.1856   -4.5643 C   0  0  0  0  0  0  0  0  0  0  0  0
    1.7591    1.0032   -4.5959 C   0  0  0  0  0  0  0  0  0  0  0  0
    3.1341    0.9858   -4.4011 C   0  0  0  0  0  0  0  0  0  0  0  0
    2.0900   -1.6026   -0.8031 S   0  0  0  0  0  0  0  0  0  0  0  0
    2.0375    1.1859   -0.8008 C   0  0  0  0  0  0  0  0  0  0  0  0
   -0.4420   -0.9053    0.4475 H   0  0  0  0  0  0  0  0  0  0  0  0
   -0.4181    0.0916   -1.0118 H   0  0  0  0  0  0  0  0  0  0  0  0
   -0.4023    0.8417    0.5887 H   0  0  0  0  0  0  0  0  0  0  0  0
    2.8254   -1.5791    3.2362 H   0  0  0  0  0  0  0  0  0  0  0  0
    4.5985   -0.1264   -1.7504 H   0  0  0  0  0  0  0  0  0  0  0  0
    6.9097   -0.9098   -3.9606 H   0  0  0  0  0  0  0  0  0  0  0  0
    5.6338   -2.0859   -4.4459 H   0  0  0  0  0  0  0  0  0  0  0  0
    3.5413   -2.3968   -3.9631 H   0  0  0  0  0  0  0  0  0  0  0  0
    1.0959   -2.3258   -4.3187 H   0  0  0  0  0  0  0  0  0  0  0  0
   -0.0500   -0.1623   -4.7177 H   0  0  0  0  0  0  0  0  0  0  0  0
    1.2506    1.9498   -4.7797 H   0  0  0  0  0  0  0  0  0  0  0  0
    3.7246    1.8982   -4.4308 H   0  0  0  0  0  0  0  0  0  0  0  0
    3.1264    1.2989   -0.7564 H   0  0  0  0  0  0  0  0  0  0  0  0
    1.6067    2.1309   -0.4354 H   0  0  0  0  0  0  0  0  0  0  0  0
    1.7645    1.1220   -1.8667 H   0  0  0  0  0  0  0  0  0  0  0  0
  1  2  1  0  0  0  0
  1 28  1  0  0  0  0
  1 30  1  0  0  0  0
  2  3  1  0  0  0  0
  3  4  1  1  0  0  0
  3  5  1  0  0  0  0
  5  6  2  0  0  0  0
  5  7  1  0  0  0  0
  8  3  1  0  0  0  0
  9 11  1  0  0  0  0
  9 10  1  1  0  0  0
  9  8  1  0  0  0  0
 11 12  1  1  0  0  0
 11 13  1  0  0  0  0
 13 14  2  0  0  0  0
 13  8  1  0  0  0  0
 15 11  1  0  0  0  0
 16 17  2  0  0  0  0
 16 15  1  0  0  0  0
 18 16  1  0  0  0  0
 19 18  1  0  0  0  0
 20 21  1  0  0  0  0
 20 19  1  0  0  0  0
 21 35  1  0  0  0  0
 22 36  1  0  0  0  0
 22 21  2  0  0  0  0
 23 22  1  0  0  0  0
 24 23  2  0  0  0  0
 24 25  1  0  0  0  0
 25 20  2  0  0  0  0
 26  2  1  0  0  0  0
 26  9  1  0  0  0  0
 27 40  1  0  0  0  0
 27 41  1  0  0  0  0
 27  2  1  0  0  0  0
 29  1  1  0  0  0  0
 31  7  1  0  0  0  0
 32 15  1  0  0  0  0
 33 18  1  0  0  0  0
 34 18  1  0  0  0  0
 37 23  1  0  0  0  0
 38 24  1  0  0  0  0
 39 25  1  0  0  0  0
 42 27  1  0  0  0  0
M  END
$$$$
