42
rmsd177.gzmat
C          0.00000        0.00000        0.00000
C          1.51330        0.00000        0.00000
C          2.16780        0.00000        1.41450
H          2.38870        1.06480        1.72570
C          1.27450       -0.57930        2.52210
O          0.12060       -0.29120        2.68250
O          1.85740       -1.40600        3.41510
N          3.42080       -0.75150        1.37630
C          3.49370       -1.83730        0.34530
H          3.48530       -2.85290        0.78100
C          4.92710       -1.32450       -0.07290
H          5.75840       -1.99030        0.26510
C          4.66000       -0.13730        0.92880
O          5.16510        0.87480        1.26930
N          5.10040       -0.90320       -1.42760
C          6.36770       -0.86550       -1.98470
O          7.33440       -1.29800       -1.39790
C          6.46640       -0.24750       -3.37180
O          5.28740        0.42810       -3.75860
C          4.99740        1.62380       -3.15660
C          5.74720        2.22630       -2.15090
C          5.28380        3.42370       -1.60620
C          4.10300        4.00030       -2.06690
C          3.37280        3.38440       -3.08600
C          3.80850        2.18690       -3.63910
S          2.09430       -1.59970       -0.80430
C          2.03590        1.18780       -0.79690
H         -0.44440       -0.90920        0.43640
H         -0.41880        0.10650       -1.01000
H         -0.39970        0.83540        0.59980
H          2.81760       -1.58990        3.23010
H          4.29970       -0.53710       -1.93540
H          7.35620        0.40740       -3.44690
H          6.54130       -1.04170       -4.14780
H          6.67040        1.78830       -1.78090
H          5.85340        3.90620       -0.81010
H          3.75170        4.93580       -1.63730
H          2.45630        3.84760       -3.45160
H          3.25540        1.69140       -4.43300
H          3.12860        1.29180       -0.77270
H          1.62640        2.13420       -0.41070
H          1.74500        1.14490       -1.85690
