rmsd177.gzmat
 OpenBabel08211713403D

 42 44  0  0  1  0  0  0  0  0999 V2000
    0.0000    0.0000    0.0000 C   0  0  0  0  0  0  0  0  0  0  0  0
    1.5133    0.0000    0.0000 C   0  0  0  0  0  0  0  0  0  0  0  0
    2.1678    0.0000    1.4145 C   0  0  1  0  0  0  0  0  0  0  0  0
    2.3887    1.0648    1.7257 H   0  0  0  0  0  0  0  0  0  0  0  0
    1.2745   -0.5793    2.5221 C   0  0  0  0  0  0  0  0  0  0  0  0
    0.1206   -0.2912    2.6825 O   0  0  0  0  0  0  0  0  0  0  0  0
    1.8574   -1.4060    3.4151 O   0  0  0  0  0  0  0  0  0  0  0  0
    3.4208   -0.7515    1.3763 N   0  0  0  0  0  0  0  0  0  0  0  0
    3.4937   -1.8373    0.3453 C   0  0  2  0  0  0  0  0  0  0  0  0
    3.4853   -2.8529    0.7810 H   0  0  0  0  0  0  0  0  0  0  0  0
    4.9271   -1.3245   -0.0729 C   0  0  2  0  0  0  0  0  0  0  0  0
    5.7584   -1.9903    0.2651 H   0  0  0  0  0  0  0  0  0  0  0  0
    4.6600   -0.1373    0.9288 C   0  0  0  0  0  0  0  0  0  0  0  0
    5.1651    0.8748    1.2693 O   0  0  0  0  0  0  0  0  0  0  0  0
    5.1004   -0.9032   -1.4276 N   0  0  0  0  0  0  0  0  0  0  0  0
    6.3677   -0.8655   -1.9847 C   0  0  0  0  0  0  0  0  0  0  0  0
    7.3344   -1.2980   -1.3979 O   0  0  0  0  0  0  0  0  0  0  0  0
    6.4664   -0.2475   -3.3718 C   0  0  0  0  0  0  0  0  0  0  0  0
    5.2874    0.4281   -3.7586 O   0  0  0  0  0  0  0  0  0  0  0  0
    4.9974    1.6238   -3.1566 C   0  0  0  0  0  0  0  0  0  0  0  0
    5.7472    2.2263   -2.1509 C   0  0  0  0  0  0  0  0  0  0  0  0
    5.2838    3.4237   -1.6062 C   0  0  0  0  0  0  0  0  0  0  0  0
    4.1030    4.0003   -2.0669 C   0  0  0  0  0  0  0  0  0  0  0  0
    3.3728    3.3844   -3.0860 C   0  0  0  0  0  0  0  0  0  0  0  0
    3.8085    2.1869   -3.6391 C   0  0  0  0  0  0  0  0  0  0  0  0
    2.0943   -1.5997   -0.8043 S   0  0  0  0  0  0  0  0  0  0  0  0
    2.0359    1.1878   -0.7969 C   0  0  0  0  0  0  0  0  0  0  0  0
   -0.4444   -0.9092    0.4364 H   0  0  0  0  0  0  0  0  0  0  0  0
   -0.4188    0.1065   -1.0100 H   0  0  0  0  0  0  0  0  0  0  0  0
   -0.3997    0.8354    0.5998 H   0  0  0  0  0  0  0  0  0  0  0  0
    2.8176   -1.5899    3.2301 H   0  0  0  0  0  0  0  0  0  0  0  0
    4.2997   -0.5371   -1.9354 H   0  0  0  0  0  0  0  0  0  0  0  0
    7.3562    0.4074   -3.4469 H   0  0  0  0  0  0  0  0  0  0  0  0
    6.5413   -1.0417   -4.1478 H   0  0  0  0  0  0  0  0  0  0  0  0
    6.6704    1.7883   -1.7809 H   0  0  0  0  0  0  0  0  0  0  0  0
    5.8534    3.9062   -0.8101 H   0  0  0  0  0  0  0  0  0  0  0  0
    3.7517    4.9358   -1.6373 H   0  0  0  0  0  0  0  0  0  0  0  0
    2.4563    3.8476   -3.4516 H   0  0  0  0  0  0  0  0  0  0  0  0
    3.2554    1.6914   -4.4330 H   0  0  0  0  0  0  0  0  0  0  0  0
    3.1286    1.2918   -0.7727 H   0  0  0  0  0  0  0  0  0  0  0  0
    1.6264    2.1342   -0.4107 H   0  0  0  0  0  0  0  0  0  0  0  0
    1.7450    1.1449   -1.8569 H   0  0  0  0  0  0  0  0  0  0  0  0
  1 28  1  0  0  0  0
  1 30  1  0  0  0  0
  2  1  1  0  0  0  0
  2  3  1  0  0  0  0
  3  4  1  1  0  0  0
  3  5  1  0  0  0  0
  5  6  2  0  0  0  0
  5  7  1  0  0  0  0
  8  3  1  0  0  0  0
  9 11  1  0  0  0  0
  9 10  1  1  0  0  0
  9  8  1  0  0  0  0
 11 12  1  1  0  0  0
 11 13  1  0  0  0  0
 13 14  2  0  0  0  0
 13  8  1  0  0  0  0
 15 11  1  0  0  0  0
 16 15  1  0  0  0  0
 16 17  2  0  0  0  0
 18 16  1  0  0  0  0
 19 18  1  0  0  0  0
 19 20  1  0  0  0  0
 20 21  1  0  0  0  0
 21 35  1  0  0  0  0
 21 22  2  0  0  0  0
 22 36  1  0  0  0  0
 23 37  1  0  0  0  0
 23 22  1  0  0  0  0
 24 23  2  0  0  0  0
 25 20  2  0  0  0  0
 25 24  1  0  0  0  0
 26  2  1  0  0  0  0
 26  9  1  0  0  0  0
 27 40  1  0  0  0  0
 27 41  1  0  0  0  0
 27  2  1  0  0  0  0
 29  1  1  0  0  0  0
 31  7  1  0  0  0  0
 32 15  1  0  0  0  0
 33 18  1  0  0  0  0
 34 18  1  0  0  0  0
 38 24  1  0  0  0  0
 39 25  1  0  0  0  0
 42 27  1  0  0  0  0
M  END
$$$$
