rmsd202.gzmat
 OpenBabel08211713403D

 42 44  0  0  1  0  0  0  0  0999 V2000
    0.0000    0.0000    0.0000 C   0  0  0  0  0  0  0  0  0  0  0  0
    1.5134    0.0000    0.0000 C   0  0  0  0  0  0  0  0  0  0  0  0
    2.1657    0.0000    1.4169 C   0  0  1  0  0  0  0  0  0  0  0  0
    2.4026    1.0625    1.7226 H   0  0  0  0  0  0  0  0  0  0  0  0
    1.2500   -0.5551    2.5191 C   0  0  0  0  0  0  0  0  0  0  0  0
    0.1284   -0.1742    2.7126 O   0  0  0  0  0  0  0  0  0  0  0  0
    1.7697   -1.4753    3.3573 O   0  0  0  0  0  0  0  0  0  0  0  0
    3.4050   -0.7758    1.3904 N   0  0  0  0  0  0  0  0  0  0  0  0
    3.4653   -1.8606    0.3592 C   0  0  2  0  0  0  0  0  0  0  0  0
    3.4452   -2.8774    0.7893 H   0  0  0  0  0  0  0  0  0  0  0  0
    4.9117   -1.3557   -0.0564 C   0  0  2  0  0  0  0  0  0  0  0  0
    5.7195   -2.0607    0.2571 H   0  0  0  0  0  0  0  0  0  0  0  0
    4.6593   -0.1868    0.9584 C   0  0  0  0  0  0  0  0  0  0  0  0
    5.1959    0.8026    1.3190 O   0  0  0  0  0  0  0  0  0  0  0  0
    5.0985   -0.9027   -1.3999 N   0  0  0  0  0  0  0  0  0  0  0  0
    5.8024   -1.6869   -2.3003 C   0  0  0  0  0  0  0  0  0  0  0  0
    6.3736   -2.6959   -1.9512 O   0  0  0  0  0  0  0  0  0  0  0  0
    5.8581   -1.1751   -3.7324 C   0  0  0  0  0  0  0  0  0  0  0  0
    4.9210   -0.1480   -3.9789 O   0  0  0  0  0  0  0  0  0  0  0  0
    3.6038   -0.4929   -4.1328 C   0  0  0  0  0  0  0  0  0  0  0  0
    2.7820    0.6280   -4.3116 C   0  0  0  0  0  0  0  0  0  0  0  0
    1.4139    0.4287   -4.4477 C   0  0  0  0  0  0  0  0  0  0  0  0
    0.8807   -0.8615   -4.4069 C   0  0  0  0  0  0  0  0  0  0  0  0
    1.7193   -1.9607   -4.2377 C   0  0  0  0  0  0  0  0  0  0  0  0
    3.0968   -1.7882   -4.0998 C   0  0  0  0  0  0  0  0  0  0  0  0
    2.0867   -1.6032   -0.8029 S   0  0  0  0  0  0  0  0  0  0  0  0
    2.0392    1.1858   -0.7989 C   0  0  0  0  0  0  0  0  0  0  0  0
   -0.4420   -0.9035    0.4497 H   0  0  0  0  0  0  0  0  0  0  0  0
   -0.4181    0.0900   -1.0119 H   0  0  0  0  0  0  0  0  0  0  0  0
   -0.4014    0.8444    0.5864 H   0  0  0  0  0  0  0  0  0  0  0  0
    2.7247   -1.6896    3.1786 H   0  0  0  0  0  0  0  0  0  0  0  0
    4.5461   -0.1189   -1.7306 H   0  0  0  0  0  0  0  0  0  0  0  0
    6.8257   -0.6554   -3.9174 H   0  0  0  0  0  0  0  0  0  0  0  0
    5.7628   -2.0075   -4.4554 H   0  0  0  0  0  0  0  0  0  0  0  0
    3.2183    1.6226   -4.3502 H   0  0  0  0  0  0  0  0  0  0  0  0
    0.7542    1.2846   -4.5895 H   0  0  0  0  0  0  0  0  0  0  0  0
   -0.1920   -1.0080   -4.5090 H   0  0  0  0  0  0  0  0  0  0  0  0
    1.2990   -2.9667   -4.2061 H   0  0  0  0  0  0  0  0  0  0  0  0
    3.7386   -2.6527   -3.9589 H   0  0  0  0  0  0  0  0  0  0  0  0
    3.1271    1.3044   -0.7424 H   0  0  0  0  0  0  0  0  0  0  0  0
    1.5987    2.1291   -0.4404 H   0  0  0  0  0  0  0  0  0  0  0  0
    1.7775    1.1176   -1.8673 H   0  0  0  0  0  0  0  0  0  0  0  0
  1  2  1  0  0  0  0
  1 28  1  0  0  0  0
  1 30  1  0  0  0  0
  2  3  1  0  0  0  0
  3  4  1  1  0  0  0
  3  5  1  0  0  0  0
  5  6  2  0  0  0  0
  5  7  1  0  0  0  0
  8  3  1  0  0  0  0
  9 11  1  0  0  0  0
  9 10  1  1  0  0  0
  9  8  1  0  0  0  0
 11 12  1  1  0  0  0
 11 13  1  0  0  0  0
 13 14  2  0  0  0  0
 13  8  1  0  0  0  0
 15 11  1  0  0  0  0
 16 17  2  0  0  0  0
 16 15  1  0  0  0  0
 18 16  1  0  0  0  0
 19 18  1  0  0  0  0
 20 25  1  0  0  0  0
 20 19  1  0  0  0  0
 21 20  2  0  0  0  0
 22 23  2  0  0  0  0
 22 21  1  0  0  0  0
 23 24  1  0  0  0  0
 24 38  1  0  0  0  0
 24 25  2  0  0  0  0
 25 39  1  0  0  0  0
 26  2  1  0  0  0  0
 26  9  1  0  0  0  0
 27 40  1  0  0  0  0
 27 41  1  0  0  0  0
 27  2  1  0  0  0  0
 29  1  1  0  0  0  0
 31  7  1  0  0  0  0
 32 15  1  0  0  0  0
 33 18  1  0  0  0  0
 34 18  1  0  0  0  0
 35 21  1  0  0  0  0
 36 22  1  0  0  0  0
 37 23  1  0  0  0  0
 42 27  1  0  0  0  0
M  END
$$$$
