rmsd212.gzmat
 OpenBabel08211713403D

 42 44  0  0  1  0  0  0  0  0999 V2000
    0.0000    0.0000    0.0000 C   0  0  0  0  0  0  0  0  0  0  0  0
    1.5135    0.0000    0.0000 C   0  0  0  0  0  0  0  0  0  0  0  0
    2.1659    0.0000    1.4171 C   0  0  1  0  0  0  0  0  0  0  0  0
    2.4039    1.0626    1.7208 H   0  0  0  0  0  0  0  0  0  0  0  0
    1.2501   -0.5532    2.5200 C   0  0  0  0  0  0  0  0  0  0  0  0
    0.1258   -0.1781    2.7091 O   0  0  0  0  0  0  0  0  0  0  0  0
    1.7724   -1.4668    3.3640 O   0  0  0  0  0  0  0  0  0  0  0  0
    3.4034   -0.7783    1.3900 N   0  0  0  0  0  0  0  0  0  0  0  0
    3.4578   -1.8686    0.3639 C   0  0  2  0  0  0  0  0  0  0  0  0
    3.4268   -2.8836    0.7976 H   0  0  0  0  0  0  0  0  0  0  0  0
    4.9103   -1.3769   -0.0466 C   0  0  2  0  0  0  0  0  0  0  0  0
    5.7081   -2.0873    0.2797 H   0  0  0  0  0  0  0  0  0  0  0  0
    4.6589   -0.1978    0.9537 C   0  0  0  0  0  0  0  0  0  0  0  0
    5.2001    0.7933    1.3032 O   0  0  0  0  0  0  0  0  0  0  0  0
    5.1152   -0.9436   -1.3952 N   0  0  0  0  0  0  0  0  0  0  0  0
    5.6921   -1.8111   -2.3089 C   0  0  0  0  0  0  0  0  0  0  0  0
    6.1375   -2.8840   -1.9669 O   0  0  0  0  0  0  0  0  0  0  0  0
    5.7798   -1.3191   -3.7457 C   0  0  0  0  0  0  0  0  0  0  0  0
    5.0292   -0.1431   -3.9618 O   0  0  0  0  0  0  0  0  0  0  0  0
    3.6746   -0.2540   -4.1311 C   0  0  0  0  0  0  0  0  0  0  0  0
    3.0618    0.9958   -4.2956 C   0  0  0  0  0  0  0  0  0  0  0  0
    1.6825    1.0395   -4.4538 C   0  0  0  0  0  0  0  0  0  0  0  0
    0.9321   -0.1384   -4.4439 C   0  0  0  0  0  0  0  0  0  0  0  0
    1.5646   -1.3692   -4.2870 C   0  0  0  0  0  0  0  0  0  0  0  0
    2.9490   -1.4411   -4.1302 C   0  0  0  0  0  0  0  0  0  0  0  0
    2.0877   -1.6015   -0.8058 S   0  0  0  0  0  0  0  0  0  0  0  0
    2.0375    1.1880   -0.7965 C   0  0  0  0  0  0  0  0  0  0  0  0
   -0.4429   -0.9048    0.4462 H   0  0  0  0  0  0  0  0  0  0  0  0
   -0.4179    0.0939   -1.0116 H   0  0  0  0  0  0  0  0  0  0  0  0
   -0.4004    0.8433    0.5883 H   0  0  0  0  0  0  0  0  0  0  0  0
    2.7281   -1.6792    3.1866 H   0  0  0  0  0  0  0  0  0  0  0  0
    4.6572   -0.0969   -1.7116 H   0  0  0  0  0  0  0  0  0  0  0  0
    6.8157   -0.9775   -3.9711 H   0  0  0  0  0  0  0  0  0  0  0  0
    5.5131   -2.1241   -4.4560 H   0  0  0  0  0  0  0  0  0  0  0  0
    3.6646    1.9004   -4.3072 H   0  0  0  0  0  0  0  0  0  0  0  0
    1.1838    1.9991   -4.5890 H   0  0  0  0  0  0  0  0  0  0  0  0
   -0.1478   -0.0935   -4.5633 H   0  0  0  0  0  0  0  0  0  0  0  0
    0.9762   -2.2875   -4.2825 H   0  0  0  0  0  0  0  0  0  0  0  0
    3.4282   -2.4068   -3.9999 H   0  0  0  0  0  0  0  0  0  0  0  0
    3.1255    1.3050   -0.7468 H   0  0  0  0  0  0  0  0  0  0  0  0
    1.6005    2.1310   -0.4331 H   0  0  0  0  0  0  0  0  0  0  0  0
    1.7701    1.1234   -1.8639 H   0  0  0  0  0  0  0  0  0  0  0  0
  1  2  1  0  0  0  0
  1 28  1  0  0  0  0
  1 30  1  0  0  0  0
  2  3  1  0  0  0  0
  3  4  1  1  0  0  0
  3  5  1  0  0  0  0
  5  6  2  0  0  0  0
  5  7  1  0  0  0  0
  8  3  1  0  0  0  0
  9 11  1  0  0  0  0
  9 10  1  1  0  0  0
  9  8  1  0  0  0  0
 11 12  1  1  0  0  0
 11 13  1  0  0  0  0
 13 14  2  0  0  0  0
 13  8  1  0  0  0  0
 15 11  1  0  0  0  0
 16 17  2  0  0  0  0
 16 15  1  0  0  0  0
 18 16  1  0  0  0  0
 19 18  1  0  0  0  0
 20 25  1  0  0  0  0
 20 19  1  0  0  0  0
 21 20  2  0  0  0  0
 22 23  2  0  0  0  0
 22 21  1  0  0  0  0
 23 24  1  0  0  0  0
 24 38  1  0  0  0  0
 24 25  2  0  0  0  0
 25 39  1  0  0  0  0
 26  2  1  0  0  0  0
 26  9  1  0  0  0  0
 27 40  1  0  0  0  0
 27 41  1  0  0  0  0
 27  2  1  0  0  0  0
 29  1  1  0  0  0  0
 31  7  1  0  0  0  0
 32 15  1  0  0  0  0
 33 18  1  0  0  0  0
 34 18  1  0  0  0  0
 35 21  1  0  0  0  0
 36 22  1  0  0  0  0
 37 23  1  0  0  0  0
 42 27  1  0  0  0  0
M  END
$$$$
