42
rmsd212.gzmat
C          0.00000        0.00000        0.00000
C          1.51350        0.00000        0.00000
C          2.16590        0.00000        1.41710
H          2.40390        1.06260        1.72080
C          1.25010       -0.55320        2.52000
O          0.12580       -0.17810        2.70910
O          1.77240       -1.46680        3.36400
N          3.40340       -0.77830        1.39000
C          3.45780       -1.86860        0.36390
H          3.42680       -2.88360        0.79760
C          4.91030       -1.37690       -0.04660
H          5.70810       -2.08730        0.27970
C          4.65890       -0.19780        0.95370
O          5.20010        0.79330        1.30320
N          5.11520       -0.94360       -1.39520
C          5.69210       -1.81110       -2.30890
O          6.13750       -2.88400       -1.96690
C          5.77980       -1.31910       -3.74570
O          5.02920       -0.14310       -3.96180
C          3.67460       -0.25400       -4.13110
C          3.06180        0.99580       -4.29560
C          1.68250        1.03950       -4.45380
C          0.93210       -0.13840       -4.44390
C          1.56460       -1.36920       -4.28700
C          2.94900       -1.44110       -4.13020
S          2.08770       -1.60150       -0.80580
C          2.03750        1.18800       -0.79650
H         -0.44290       -0.90480        0.44620
H         -0.41790        0.09390       -1.01160
H         -0.40040        0.84330        0.58830
H          2.72810       -1.67920        3.18660
H          4.65720       -0.09690       -1.71160
H          6.81570       -0.97750       -3.97110
H          5.51310       -2.12410       -4.45600
H          3.66460        1.90040       -4.30720
H          1.18380        1.99910       -4.58900
H         -0.14780       -0.09350       -4.56330
H          0.97620       -2.28750       -4.28250
H          3.42820       -2.40680       -3.99990
H          3.12550        1.30500       -0.74680
H          1.60050        2.13100       -0.43310
H          1.77010        1.12340       -1.86390
