
     RDKit          3D

 42 44  0  0  0  0  0  0  0  0999 V2000
    0.0047    0.1124    0.0138 C   0  0  0  0  0  0  0  0  0  0  0  0
    1.5329    0.0777    0.0662 C   0  0  0  0  0  0  0  0  0  0  0  0
    2.1682   -0.0410    1.4949 C   0  0  1  0  0  0  0  0  0  0  0  0
    2.3880    0.9741    1.8635 H   0  0  0  0  0  0  0  0  0  0  0  0
    1.3109   -0.7089    2.5897 C   0  0  0  0  0  0  0  0  0  0  0  0
    0.1726   -0.4027    2.8138 O   0  0  0  0  0  0  0  0  0  0  0  0
    1.9660   -1.6238    3.3149 O   0  0  0  0  0  0  0  0  0  0  0  0
    3.4380   -0.7395    1.3437 N   0  0  0  0  0  0  0  0  0  0  0  0
    3.4789   -1.8130    0.3301 C   0  0  2  0  0  0  0  0  0  0  0  0
    3.3945   -2.8335    0.7277 H   0  0  0  0  0  0  0  0  0  0  0  0
    4.9177   -1.3515   -0.0612 C   0  0  2  0  0  0  0  0  0  0  0  0
    5.7250   -2.0049    0.3013 H   0  0  0  0  0  0  0  0  0  0  0  0
    4.6423   -0.1526    0.8912 C   0  0  0  0  0  0  0  0  0  0  0  0
    5.1333    0.9109    1.1267 O   0  0  0  0  0  0  0  0  0  0  0  0
    5.1457   -1.0276   -1.4287 N   0  0  0  0  0  0  0  0  0  0  0  0
    6.4097   -0.8696   -1.9168 C   0  0  0  0  0  0  0  0  0  0  0  0
    7.4181   -1.1800   -1.3125 O   0  0  0  0  0  0  0  0  0  0  0  0
    6.4752   -0.2686   -3.3229 C   0  0  0  0  0  0  0  0  0  0  0  0
    5.2850    0.3590   -3.7456 O   0  0  0  0  0  0  0  0  0  0  0  0
    4.9400    1.5704   -3.2057 C   0  0  0  0  0  0  0  0  0  0  0  0
    5.5897    2.1602   -2.1135 C   0  0  0  0  0  0  0  0  0  0  0  0
    5.1142    3.3762   -1.6097 C   0  0  0  0  0  0  0  0  0  0  0  0
    4.0137    4.0104   -2.1864 C   0  0  0  0  0  0  0  0  0  0  0  0
    3.3788    3.4175   -3.2847 C   0  0  0  0  0  0  0  0  0  0  0  0
    3.8349    2.2035   -3.7929 C   0  0  0  0  0  0  0  0  0  0  0  0
    2.0897   -1.4919   -0.8189 S   0  0  0  0  0  0  0  0  0  0  0  0
    2.1046    1.3056   -0.6511 C   0  0  0  0  0  0  0  0  0  0  0  0
   -0.4500   -0.7893    0.4380 H   0  0  0  0  0  0  0  0  0  0  0  0
   -0.3182    0.2164   -1.0336 H   0  0  0  0  0  0  0  0  0  0  0  0
   -0.3712    0.9769    0.5790 H   0  0  0  0  0  0  0  0  0  0  0  0
    2.8886   -1.6421    2.9948 H   0  0  0  0  0  0  0  0  0  0  0  0
    4.3536   -0.7068   -1.9804 H   0  0  0  0  0  0  0  0  0  0  0  0
    7.3407    0.4136   -3.3494 H   0  0  0  0  0  0  0  0  0  0  0  0
    6.6649   -1.0830   -4.0384 H   0  0  0  0  0  0  0  0  0  0  0  0
    6.4389    1.6840   -1.6251 H   0  0  0  0  0  0  0  0  0  0  0  0
    5.6128    3.8163   -0.7436 H   0  0  0  0  0  0  0  0  0  0  0  0
    3.6504    4.9584   -1.7847 H   0  0  0  0  0  0  0  0  0  0  0  0
    2.5176    3.9043   -3.7488 H   0  0  0  0  0  0  0  0  0  0  0  0
    3.3518    1.7203   -4.6440 H   0  0  0  0  0  0  0  0  0  0  0  0
    3.2009    1.3408   -0.6483 H   0  0  0  0  0  0  0  0  0  0  0  0
    1.7409    2.2255   -0.1647 H   0  0  0  0  0  0  0  0  0  0  0  0
    1.7773    1.3244   -1.6990 H   0  0  0  0  0  0  0  0  0  0  0  0
  2  1  1  0
  1 28  1  0
  1 29  1  0
  1 30  1  0
  2  3  1  0
  2 26  1  0
  2 27  1  0
  3  4  1  1
  3  5  1  0
  3  8  1  0
  5  6  2  0
  5  7  1  0
  7 31  1  0
  8  9  1  0
  8 13  1  0
  9 10  1  1
  9 11  1  0
  9 26  1  0
 11 12  1  1
 11 13  1  0
 11 15  1  0
 13 14  2  0
 15 16  1  0
 15 32  1  0
 16 17  2  0
 16 18  1  0
 18 19  1  0
 18 33  1  0
 18 34  1  0
 19 20  1  0
 20 21  2  0
 20 25  1  0
 21 22  1  0
 21 35  1  0
 22 23  2  0
 22 36  1  0
 23 24  1  0
 23 37  1  0
 24 25  2  0
 24 38  1  0
 25 39  1  0
 27 40  1  0
 27 41  1  0
 27 42  1  0
M  END

