42

C          0.00470        0.11240        0.01380
C          1.53290        0.07770        0.06620
C          2.16820       -0.04100        1.49490
H          2.38800        0.97410        1.86350
C          1.31090       -0.70890        2.58970
O          0.17260       -0.40270        2.81380
O          1.96600       -1.62380        3.31490
N          3.43800       -0.73950        1.34370
C          3.47890       -1.81300        0.33010
H          3.39450       -2.83350        0.72770
C          4.91770       -1.35150       -0.06120
H          5.72500       -2.00490        0.30130
C          4.64230       -0.15260        0.89120
O          5.13330        0.91090        1.12670
N          5.14570       -1.02760       -1.42870
C          6.40970       -0.86960       -1.91680
O          7.41810       -1.18000       -1.31250
C          6.47520       -0.26860       -3.32290
O          5.28500        0.35900       -3.74560
C          4.94000        1.57040       -3.20570
C          5.58970        2.16020       -2.11350
C          5.11420        3.37620       -1.60970
C          4.01370        4.01040       -2.18640
C          3.37880        3.41750       -3.28470
C          3.83490        2.20350       -3.79290
S          2.08970       -1.49190       -0.81890
C          2.10460        1.30560       -0.65110
H         -0.45000       -0.78930        0.43800
H         -0.31820        0.21640       -1.03360
H         -0.37120        0.97690        0.57900
H          2.88860       -1.64210        2.99480
H          4.35360       -0.70680       -1.98040
H          7.34070        0.41360       -3.34940
H          6.66490       -1.08300       -4.03840
H          6.43890        1.68400       -1.62510
H          5.61280        3.81630       -0.74360
H          3.65040        4.95840       -1.78470
H          2.51760        3.90430       -3.74880
H          3.35180        1.72030       -4.64400
H          3.20090        1.34080       -0.64830
H          1.74090        2.22550       -0.16470
H          1.77730        1.32440       -1.69900
