42

C          0.00080       -0.31070       -0.09010
C          1.52520       -0.23810        0.01060
C          2.11260       -0.07260        1.45500
H          2.21920        1.00190        1.67400
C          1.28290       -0.66230        2.61240
O          0.11610       -0.42990        2.76870
O          1.98750       -1.41250        3.46870
N          3.44900       -0.65850        1.43030
C          3.62620       -1.85290        0.56880
H          3.68790       -2.80680        1.10920
C          5.01390       -1.26980        0.12330
H          5.84710       -1.84800        0.55630
C          4.59900       -0.02400        0.93210
O          4.99590        1.10010        1.04120
N          5.23600       -0.99320       -1.26010
C          5.38310       -2.01640       -2.14630
O          5.38320       -3.18750       -1.81560
C          5.60970       -1.57550       -3.59310
O          5.12680       -0.27980       -3.87340
C          3.78700       -0.10510       -4.10360
C          2.83230       -1.12330       -4.00160
C          1.48810       -0.82920       -4.25660
C          1.08890        0.46140       -4.60510
C          2.05210        1.47440       -4.69780
C          3.39410        1.19630       -4.44970
S          2.20590       -1.89200       -0.56400
C          2.04050        0.89250       -0.88820
H         -0.41510       -1.15900        0.46400
H         -0.28270       -0.39950       -1.15020
H         -0.44900        0.60840        0.31220
H          2.91770       -1.39730        3.17350
H          5.19820       -0.04000       -1.60540
H          6.69670       -1.54130       -3.76720
H          5.18650       -2.34250       -4.25960
H          3.10770       -2.13210       -3.69890
H          0.74750       -1.62740       -4.16700
H          0.03710        0.68040       -4.80010
H          1.75520        2.49060       -4.96760
H          4.16080        1.97000       -4.52070
H          3.13190        0.99630       -0.86370
H          1.60640        1.85310       -0.56420
H          1.74590        0.71500       -1.92950
