rmsd233.gzmat
 OpenBabel08211713403D

 42 44  0  0  1  0  0  0  0  0999 V2000
    0.0000    0.0000    0.0000 C   0  0  0  0  0  0  0  0  0  0  0  0
    1.5133    0.0000    0.0000 C   0  0  0  0  0  0  0  0  0  0  0  0
    2.1641    0.0000    1.4162 C   0  0  1  0  0  0  0  0  0  0  0  0
    2.3921    1.0645    1.7233 H   0  0  0  0  0  0  0  0  0  0  0  0
    1.2596   -0.5658    2.5218 C   0  0  0  0  0  0  0  0  0  0  0  0
    0.1231   -0.2251    2.7021 O   0  0  0  0  0  0  0  0  0  0  0  0
    1.8107   -1.4451    3.3840 O   0  0  0  0  0  0  0  0  0  0  0  0
    3.4107   -0.7615    1.3860 N   0  0  0  0  0  0  0  0  0  0  0  0
    3.4834   -1.8474    0.3550 C   0  0  2  0  0  0  0  0  0  0  0  0
    3.4625   -2.8630    0.7900 H   0  0  0  0  0  0  0  0  0  0  0  0
    4.9247   -1.3476   -0.0490 C   0  0  2  0  0  0  0  0  0  0  0  0
    5.7472   -2.0199    0.2985 H   0  0  0  0  0  0  0  0  0  0  0  0
    4.6593   -0.1584    0.9513 C   0  0  0  0  0  0  0  0  0  0  0  0
    5.1719    0.8467    1.3009 O   0  0  0  0  0  0  0  0  0  0  0  0
    5.1178   -0.9296   -1.4023 N   0  0  0  0  0  0  0  0  0  0  0  0
    6.3980   -0.8650   -1.9265 C   0  0  0  0  0  0  0  0  0  0  0  0
    7.3568   -1.2781   -1.3133 O   0  0  0  0  0  0  0  0  0  0  0  0
    6.5250   -0.2420   -3.3085 C   0  0  0  0  0  0  0  0  0  0  0  0
    5.3408    0.3970   -3.7378 O   0  0  0  0  0  0  0  0  0  0  0  0
    4.9939    1.5844   -3.1505 C   0  0  0  0  0  0  0  0  0  0  0  0
    5.6688    2.1962   -2.0984 C   0  0  0  0  0  0  0  0  0  0  0  0
    5.1440    3.3769   -1.5726 C   0  0  0  0  0  0  0  0  0  0  0  0
    3.9776    3.9276   -2.0967 C   0  0  0  0  0  0  0  0  0  0  0  0
    3.3249    3.3044   -3.1630 C   0  0  0  0  0  0  0  0  0  0  0  0
    3.8236    2.1245   -3.6999 C   0  0  0  0  0  0  0  0  0  0  0  0
    2.0948   -1.5989   -0.8051 S   0  0  0  0  0  0  0  0  0  0  0  0
    2.0392    1.1862   -0.7959 C   0  0  0  0  0  0  0  0  0  0  0  0
   -0.4435   -0.9011    0.4526 H   0  0  0  0  0  0  0  0  0  0  0  0
   -0.4195    0.0893   -1.0109 H   0  0  0  0  0  0  0  0  0  0  0  0
   -0.4001    0.8458    0.5846 H   0  0  0  0  0  0  0  0  0  0  0  0
    2.7742   -1.6272    3.2128 H   0  0  0  0  0  0  0  0  0  0  0  0
    4.3224   -0.5789   -1.9285 H   0  0  0  0  0  0  0  0  0  0  0  0
    7.3953    0.4414   -3.3512 H   0  0  0  0  0  0  0  0  0  0  0  0
    6.6529   -1.0321   -4.0817 H   0  0  0  0  0  0  0  0  0  0  0  0
    6.5801    1.7788   -1.6782 H   0  0  0  0  0  0  0  0  0  0  0  0
    5.6540    3.8666   -0.7411 H   0  0  0  0  0  0  0  0  0  0  0  0
    3.5765    4.8489   -1.6806 H   0  0  0  0  0  0  0  0  0  0  0  0
    2.4197    3.7476   -3.5778 H   0  0  0  0  0  0  0  0  0  0  0  0
    3.3319    1.6243   -4.5305 H   0  0  0  0  0  0  0  0  0  0  0  0
    3.1326    1.2844   -0.7729 H   0  0  0  0  0  0  0  0  0  0  0  0
    1.6340    2.1343   -0.4088 H   0  0  0  0  0  0  0  0  0  0  0  0
    1.7477    1.1467   -1.8557 H   0  0  0  0  0  0  0  0  0  0  0  0
  1 28  1  0  0  0  0
  1 30  1  0  0  0  0
  2  1  1  0  0  0  0
  2  3  1  0  0  0  0
  3  4  1  1  0  0  0
  3  5  1  0  0  0  0
  5  6  2  0  0  0  0
  5  7  1  0  0  0  0
  8  3  1  0  0  0  0
  9 11  1  0  0  0  0
  9 10  1  1  0  0  0
  9  8  1  0  0  0  0
 11 12  1  1  0  0  0
 11 13  1  0  0  0  0
 13 14  2  0  0  0  0
 13  8  1  0  0  0  0
 15 11  1  0  0  0  0
 16 15  1  0  0  0  0
 16 17  2  0  0  0  0
 18 16  1  0  0  0  0
 19 18  1  0  0  0  0
 19 20  1  0  0  0  0
 20 21  2  0  0  0  0
 21 35  1  0  0  0  0
 21 22  1  0  0  0  0
 22 36  1  0  0  0  0
 23 37  1  0  0  0  0
 23 22  2  0  0  0  0
 24 23  1  0  0  0  0
 25 24  2  0  0  0  0
 25 20  1  0  0  0  0
 26  2  1  0  0  0  0
 26  9  1  0  0  0  0
 27 40  1  0  0  0  0
 27 41  1  0  0  0  0
 27  2  1  0  0  0  0
 29  1  1  0  0  0  0
 31  7  1  0  0  0  0
 32 15  1  0  0  0  0
 33 18  1  0  0  0  0
 34 18  1  0  0  0  0
 38 24  1  0  0  0  0
 39 25  1  0  0  0  0
 42 27  1  0  0  0  0
M  END
$$$$
