49
rmsd211.gzmat
S          0.00000        0.00000        0.00000
C          1.83180        0.00000        0.00000
C          2.47830        0.00000        1.38150
H          3.40060        0.64120        1.32550
C          1.57880        0.54210        2.53930
H          1.00020       -0.34480        2.94920
N          2.48070        1.00640        3.62970
C          3.09870        2.32170        3.36900
C          1.78900        1.00430        4.93620
C          0.55970        1.55990        2.11870
C         -0.23930        1.38670        1.06250
C         -1.32370        2.29100        0.69370
C         -2.64290        1.97050        1.02420
C         -3.67780        2.83490        0.67440
C         -3.38740        4.01900       -0.00060
C         -2.07090        4.34300       -0.33520
C         -1.03840        3.47830        0.01260
C         -4.47290        4.97750       -0.39350
F         -4.30390        6.20700        0.09770
F         -4.57320        5.15870       -1.71160
F         -5.70660        4.64530       -0.01580
C          2.95450       -1.42570        1.71520
O          2.78180       -2.36020        0.96700
N          3.65230       -1.53310        2.91010
C          4.19530       -2.72100        3.44300
C          4.68160       -2.65600        4.76330
C          5.25710       -3.78110        5.34000
C          5.35430       -4.97180        4.62130
C          4.86940       -5.03190        3.31660
C          4.28930       -3.91670        2.71980
H          2.13420       -0.90320       -0.58430
H          2.18060        0.87030       -0.58700
H          3.51940        2.35570        2.35120
H          3.93620        2.45680        4.07670
H          2.41520        3.17760        3.47930
H          1.43640       -0.01680        5.16240
H          0.92880        1.68790        4.99680
H          2.50780        1.28420        5.72510
H          0.45910        2.42970        2.76810
H         -2.86380        1.04360        1.55460
H         -4.70250        2.56450        0.93680
H         -1.84250        5.26810       -0.86870
H         -0.00940        3.72140       -0.24830
H          3.67620       -0.69750        3.51340
H          4.60980       -1.73200        5.32960
H          5.63430       -3.73140        6.36010
H          5.80610       -5.84820        5.07680
H          4.94380       -5.96160        2.75310
H          3.91520       -3.98370        1.69660
