rmsd210.gzmat
 OpenBabel08211713403D

 49 51  0  0  1  0  0  0  0  0999 V2000
    0.0000    0.0000    0.0000 S   0  0  0  0  0  0  0  0  0  0  0  0
    1.8270    0.0000    0.0000 C   0  0  0  0  0  0  0  0  0  0  0  0
    2.4339    0.0000    1.3932 C   0  0  1  0  0  0  0  0  0  0  0  0
    3.5549    0.1552    1.2738 H   0  0  0  0  0  0  0  0  0  0  0  0
    1.9560    1.1234    2.3500 C   0  0  1  0  0  0  0  0  0  0  0  0
    2.1135    0.7288    3.4026 H   0  0  0  0  0  0  0  0  0  0  0  0
    2.8879    2.2722    2.1894 N   0  0  0  0  0  0  0  0  0  0  0  0
    2.5180    3.1742    1.0813 C   0  0  0  0  0  0  0  0  0  0  0  0
    3.0199    3.0344    3.4500 C   0  0  0  0  0  0  0  0  0  0  0  0
    0.5113    1.5171    2.2381 C   0  0  0  0  0  0  0  0  0  0  0  0
   -0.3606    1.1103    1.3119 C   0  0  0  0  0  0  0  0  0  0  0  0
   -1.7559    1.5560    1.3105 C   0  0  0  0  0  0  0  0  0  0  0  0
   -2.6633    1.0011    2.2177 C   0  0  0  0  0  0  0  0  0  0  0  0
   -3.9792    1.4527    2.2428 C   0  0  0  0  0  0  0  0  0  0  0  0
   -4.3824    2.4583    1.3622 C   0  0  0  0  0  0  0  0  0  0  0  0
   -3.4862    3.0004    0.4429 C   0  0  0  0  0  0  0  0  0  0  0  0
   -2.1689    2.5482    0.4186 C   0  0  0  0  0  0  0  0  0  0  0  0
   -5.8029    2.9372    1.4329 C   0  0  0  0  0  0  0  0  0  0  0  0
   -6.1009    3.9815    0.6613 F   0  0  0  0  0  0  0  0  0  0  0  0
   -6.6970    2.0091    1.0882 F   0  0  0  0  0  0  0  0  0  0  0  0
   -6.1759    3.3217    2.6550 F   0  0  0  0  0  0  0  0  0  0  0  0
    2.2847   -1.4002    1.9907 C   0  0  0  0  0  0  0  0  0  0  0  0
    3.1281   -2.2444    1.7910 O   0  0  0  0  0  0  0  0  0  0  0  0
    1.1602   -1.6497    2.7698 N   0  0  0  0  0  0  0  0  0  0  0  0
    0.8592   -2.9108    3.3405 C   0  0  0  0  0  0  0  0  0  0  0  0
    1.8529   -3.8455    3.6565 C   0  0  0  0  0  0  0  0  0  0  0  0
    1.4904   -5.0491    4.2533 C   0  0  0  0  0  0  0  0  0  0  0  0
    0.1553   -5.3261    4.5412 C   0  0  0  0  0  0  0  0  0  0  0  0
   -0.8301   -4.3917    4.2254 C   0  0  0  0  0  0  0  0  0  0  0  0
   -0.4900   -3.1844    3.6260 C   0  0  0  0  0  0  0  0  0  0  0  0
    2.1485   -0.9039   -0.5655 H   0  0  0  0  0  0  0  0  0  0  0  0
    2.1967    0.8672   -0.5823 H   0  0  0  0  0  0  0  0  0  0  0  0
    2.4914    2.6072    0.1372 H   0  0  0  0  0  0  0  0  0  0  0  0
    3.3008    3.9445    0.9732 H   0  0  0  0  0  0  0  0  0  0  0  0
    1.5502    3.6823    1.2076 H   0  0  0  0  0  0  0  0  0  0  0  0
    3.4006    2.3662    4.2415 H   0  0  0  0  0  0  0  0  0  0  0  0
    2.0913    3.5073    3.8003 H   0  0  0  0  0  0  0  0  0  0  0  0
    3.7775    3.8244    3.3092 H   0  0  0  0  0  0  0  0  0  0  0  0
    0.1973    2.2221    3.0153 H   0  0  0  0  0  0  0  0  0  0  0  0
   -2.3412    0.2186    2.9039 H   0  0  0  0  0  0  0  0  0  0  0  0
   -4.6852    1.0168    2.9536 H   0  0  0  0  0  0  0  0  0  0  0  0
   -3.7928    3.7747   -0.2629 H   0  0  0  0  0  0  0  0  0  0  0  0
   -1.4625    2.9706   -0.2966 H   0  0  0  0  0  0  0  0  0  0  0  0
    0.4194   -0.9555    2.8108 H   0  0  0  0  0  0  0  0  0  0  0  0
    2.9024   -3.6416    3.4360 H   0  0  0  0  0  0  0  0  0  0  0  0
    2.2619   -5.7792    4.4979 H   0  0  0  0  0  0  0  0  0  0  0  0
   -0.1166   -6.2680    5.0100 H   0  0  0  0  0  0  0  0  0  0  0  0
   -1.8739   -4.6098    4.4468 H   0  0  0  0  0  0  0  0  0  0  0  0
   -1.2656   -2.4674    3.3721 H   0  0  0  0  0  0  0  0  0  0  0  0
  1 11  1  0  0  0  0
  2  1  1  0  0  0  0
  2  3  1  0  0  0  0
  3 22  1  0  0  0  0
  3  5  1  0  0  0  0
  3  4  1  6  0  0  0
  5  6  1  1  0  0  0
  7  5  1  0  0  0  0
  7  9  1  0  0  0  0
  8 35  1  0  0  0  0
  8  7  1  0  0  0  0
  9 37  1  0  0  0  0
  9 36  1  0  0  0  0
 10  5  1  0  0  0  0
 10 39  1  0  0  0  0
 11 10  2  0  0  0  0
 12 11  1  0  0  0  0
 12 13  2  0  0  0  0
 13 14  1  0  0  0  0
 13 40  1  0  0  0  0
 14 41  1  0  0  0  0
 15 18  1  0  0  0  0
 15 14  2  0  0  0  0
 16 15  1  0  0  0  0
 17 16  2  0  0  0  0
 17 12  1  0  0  0  0
 18 21  1  0  0  0  0
 19 18  1  0  0  0  0
 20 18  1  0  0  0  0
 22 24  1  0  0  0  0
 23 22  2  0  0  0  0
 24 44  1  0  0  0  0
 24 25  1  0  0  0  0
 25 30  2  0  0  0  0
 25 26  1  0  0  0  0
 26 27  2  0  0  0  0
 27 46  1  0  0  0  0
 27 28  1  0  0  0  0
 28 47  1  0  0  0  0
 29 48  1  0  0  0  0
 29 28  2  0  0  0  0
 30 29  1  0  0  0  0
 31  2  1  0  0  0  0
 32  2  1  0  0  0  0
 33  8  1  0  0  0  0
 34  8  1  0  0  0  0
 38  9  1  0  0  0  0
 42 16  1  0  0  0  0
 43 17  1  0  0  0  0
 45 26  1  0  0  0  0
 49 30  1  0  0  0  0
M  END
$$$$
