rmsd167.gzmat
 OpenBabel08211713403D

 49 51  0  0  1  0  0  0  0  0999 V2000
    0.0000    0.0000    0.0000 S   0  0  0  0  0  0  0  0  0  0  0  0
    1.8269    0.0000    0.0000 C   0  0  0  0  0  0  0  0  0  0  0  0
    2.4329    0.0000    1.3937 C   0  0  1  0  0  0  0  0  0  0  0  0
    3.5546    0.1499    1.2737 H   0  0  0  0  0  0  0  0  0  0  0  0
    1.9591    1.1360    2.3377 C   0  0  1  0  0  0  0  0  0  0  0  0
    2.1486    0.7664    3.3932 H   0  0  0  0  0  0  0  0  0  0  0  0
    2.8665    2.2957    2.1196 N   0  0  0  0  0  0  0  0  0  0  0  0
    2.4116    3.2071    1.0512 C   0  0  0  0  0  0  0  0  0  0  0  0
    3.0837    3.0475    3.3745 C   0  0  0  0  0  0  0  0  0  0  0  0
    0.5059    1.5045    2.2491 C   0  0  0  0  0  0  0  0  0  0  0  0
   -0.3659    1.0925    1.3256 C   0  0  0  0  0  0  0  0  0  0  0  0
   -1.7699    1.5111    1.3265 C   0  0  0  0  0  0  0  0  0  0  0  0
   -2.7172    0.7744    2.0428 C   0  0  0  0  0  0  0  0  0  0  0  0
   -4.0484    1.1798    2.0463 C   0  0  0  0  0  0  0  0  0  0  0  0
   -4.4281    2.3195    1.3346 C   0  0  0  0  0  0  0  0  0  0  0  0
   -3.4874    3.0548    0.6153 C   0  0  0  0  0  0  0  0  0  0  0  0
   -2.1546    2.6493    0.6137 C   0  0  0  0  0  0  0  0  0  0  0  0
   -5.8749    2.7181    1.3568 C   0  0  0  0  0  0  0  0  0  0  0  0
   -6.1701    3.8674    0.7515 F   0  0  0  0  0  0  0  0  0  0  0  0
   -6.6785    1.8253    0.7761 F   0  0  0  0  0  0  0  0  0  0  0  0
   -6.3736    2.8632    2.5860 F   0  0  0  0  0  0  0  0  0  0  0  0
    2.2796   -1.4009    1.9910 C   0  0  0  0  0  0  0  0  0  0  0  0
    3.1059   -2.2531    1.7566 O   0  0  0  0  0  0  0  0  0  0  0  0
    1.1735   -1.6391    2.7990 N   0  0  0  0  0  0  0  0  0  0  0  0
    0.8344   -2.8935    3.3603 C   0  0  0  0  0  0  0  0  0  0  0  0
    1.7301   -3.9666    3.4380 C   0  0  0  0  0  0  0  0  0  0  0  0
    1.3150   -5.1622    4.0178 C   0  0  0  0  0  0  0  0  0  0  0  0
    0.0242   -5.2983    4.5244 C   0  0  0  0  0  0  0  0  0  0  0  0
   -0.8623   -4.2247    4.4537 C   0  0  0  0  0  0  0  0  0  0  0  0
   -0.4689   -3.0234    3.8768 C   0  0  0  0  0  0  0  0  0  0  0  0
    2.1494   -0.9022   -0.5671 H   0  0  0  0  0  0  0  0  0  0  0  0
    2.1978    0.8685   -0.5803 H   0  0  0  0  0  0  0  0  0  0  0  0
    2.2405    2.6423    0.1212 H   0  0  0  0  0  0  0  0  0  0  0  0
    3.2189    3.9312    0.8442 H   0  0  0  0  0  0  0  0  0  0  0  0
    1.4943    3.7675    1.2864 H   0  0  0  0  0  0  0  0  0  0  0  0
    3.5405    2.3782    4.1237 H   0  0  0  0  0  0  0  0  0  0  0  0
    2.1759    3.4941    3.8047 H   0  0  0  0  0  0  0  0  0  0  0  0
    3.8106    3.8560    3.1847 H   0  0  0  0  0  0  0  0  0  0  0  0
    0.1887    2.1953    3.0367 H   0  0  0  0  0  0  0  0  0  0  0  0
   -2.4173   -0.1181    2.5909 H   0  0  0  0  0  0  0  0  0  0  0  0
   -4.7864    0.5996    2.6052 H   0  0  0  0  0  0  0  0  0  0  0  0
   -3.7706    3.9442    0.0491 H   0  0  0  0  0  0  0  0  0  0  0  0
   -1.4138    3.2170    0.0511 H   0  0  0  0  0  0  0  0  0  0  0  0
    0.4710   -0.9099    2.8950 H   0  0  0  0  0  0  0  0  0  0  0  0
    2.7468   -3.8812    3.0486 H   0  0  0  0  0  0  0  0  0  0  0  0
    2.0111   -5.9994    4.0736 H   0  0  0  0  0  0  0  0  0  0  0  0
   -0.2914   -6.2367    4.9722 H   0  0  0  0  0  0  0  0  0  0  0  0
   -1.8710   -4.3289    4.8510 H   0  0  0  0  0  0  0  0  0  0  0  0
   -1.1688   -2.1951    3.8228 H   0  0  0  0  0  0  0  0  0  0  0  0
  1 11  1  0  0  0  0
  2  1  1  0  0  0  0
  2  3  1  0  0  0  0
  3 22  1  0  0  0  0
  3  5  1  0  0  0  0
  3  4  1  6  0  0  0
  5  6  1  1  0  0  0
  7  5  1  0  0  0  0
  7  9  1  0  0  0  0
  8 35  1  0  0  0  0
  8  7  1  0  0  0  0
  9 37  1  0  0  0  0
  9 36  1  0  0  0  0
 10  5  1  0  0  0  0
 10 39  1  0  0  0  0
 11 12  1  0  0  0  0
 11 10  2  0  0  0  0
 12 13  2  0  0  0  0
 13 14  1  0  0  0  0
 13 40  1  0  0  0  0
 14 41  1  0  0  0  0
 15 18  1  0  0  0  0
 15 14  2  0  0  0  0
 16 15  1  0  0  0  0
 17 16  2  0  0  0  0
 17 12  1  0  0  0  0
 18 21  1  0  0  0  0
 19 18  1  0  0  0  0
 20 18  1  0  0  0  0
 22 24  1  0  0  0  0
 23 22  2  0  0  0  0
 24 44  1  0  0  0  0
 24 25  1  0  0  0  0
 25 26  2  0  0  0  0
 25 30  1  0  0  0  0
 26 27  1  0  0  0  0
 27 46  1  0  0  0  0
 27 28  2  0  0  0  0
 28 47  1  0  0  0  0
 29 28  1  0  0  0  0
 29 48  1  0  0  0  0
 30 29  2  0  0  0  0
 31  2  1  0  0  0  0
 32  2  1  0  0  0  0
 33  8  1  0  0  0  0
 34  8  1  0  0  0  0
 38  9  1  0  0  0  0
 42 16  1  0  0  0  0
 43 17  1  0  0  0  0
 45 26  1  0  0  0  0
 49 30  1  0  0  0  0
M  END
$$$$
