49
rmsd198.gzmat
S          0.00000        0.00000        0.00000
C          1.82620        0.00000        0.00000
C          2.42810        0.00000        1.39620
H          3.54780        0.10910        1.27180
C          1.96940        1.15040        2.33390
H          2.04210        0.75710        3.39830
N          2.82190        2.36270        2.31370
C          4.17230        2.10700        2.85230
C          2.89450        3.01310        0.99300
C          0.55140        1.61900        2.15310
C         -0.33170        1.19400        1.24730
C         -1.70920        1.68820        1.20260
C         -2.66370        1.15500        2.07450
C         -3.96920        1.63500        2.04780
C         -4.31570        2.64920        1.15270
C         -3.37030        3.17670        0.27510
C         -2.06350        2.69500        0.30160
C         -5.73030        3.14970        1.16130
F         -5.97970        4.19800        0.37780
F         -6.62150        2.23420        0.77680
F         -6.15210        3.53900        2.36600
C          2.24190       -1.38470        2.02230
O          3.10240       -2.22680        1.89640
N          1.07950       -1.61090        2.74580
C          0.73990       -2.85520        3.33320
C          1.70120       -3.80910        3.68750
C          1.29400       -4.99250        4.29640
C         -0.05360       -5.23070        4.55830
C         -1.00700       -4.27670        4.20520
C         -0.62220       -3.08960        3.59330
H          2.14990       -0.90280       -0.56480
H          2.19050        0.87000       -0.57980
H          4.09300        1.65670        3.85650
H          4.68660        3.07670        2.97580
H          4.80670        1.45980        2.22790
H          1.87510        3.20250        0.61670
H          3.45290        2.44960        0.23140
H          3.37840        3.99830        1.11690
H          0.27840        2.40160        2.87480
H         -2.38570        0.36660        2.77280
H         -4.71190        1.21390        2.72920
H         -3.63050        3.96140       -0.43770
H         -1.31880        3.10530       -0.38100
H          0.34180       -0.91030        2.73380
H          2.76080       -3.63860        3.48860
H          2.04090       -5.73750        4.57010
H         -0.36100       -6.15780        5.03500
H         -2.06080       -4.46320        4.40650
H         -1.37240       -2.35710        3.30980
