rmsd134.gzmat
 OpenBabel08211713403D

 49 51  0  0  1  0  0  0  0  0999 V2000
    0.0000    0.0000    0.0000 S   0  0  0  0  0  0  0  0  0  0  0  0
    1.8298    0.0000    0.0000 C   0  0  0  0  0  0  0  0  0  0  0  0
    2.3857    0.0000    1.4142 C   0  0  1  0  0  0  0  0  0  0  0  0
    3.5107   -0.0074    1.3645 H   0  0  0  0  0  0  0  0  0  0  0  0
    1.9913    1.2638    2.2368 C   0  0  1  0  0  0  0  0  0  0  0  0
    2.1640    0.9892    3.3268 H   0  0  0  0  0  0  0  0  0  0  0  0
    2.9510    2.3409    1.8803 N   0  0  0  0  0  0  0  0  0  0  0  0
    2.4533    3.2508    0.8289 C   0  0  0  0  0  0  0  0  0  0  0  0
    3.3450    3.1199    3.0756 C   0  0  0  0  0  0  0  0  0  0  0  0
    0.5463    1.6575    2.1315 C   0  0  0  0  0  0  0  0  0  0  0  0
   -0.3492    1.1627    1.2743 C   0  0  0  0  0  0  0  0  0  0  0  0
   -1.7687    1.5192    1.3180 C   0  0  0  0  0  0  0  0  0  0  0  0
   -2.2702    2.5309    0.4950 C   0  0  0  0  0  0  0  0  0  0  0  0
   -3.6205    2.8622    0.5528 C   0  0  0  0  0  0  0  0  0  0  0  0
   -4.4634    2.1826    1.4343 C   0  0  0  0  0  0  0  0  0  0  0  0
   -3.9685    1.1691    2.2536 C   0  0  0  0  0  0  0  0  0  0  0  0
   -2.6170    0.8379    2.1959 C   0  0  0  0  0  0  0  0  0  0  0  0
   -5.9129    2.5688    1.4640 C   0  0  0  0  0  0  0  0  0  0  0  0
   -6.5483    2.3462    0.3115 F   0  0  0  0  0  0  0  0  0  0  0  0
   -6.6619    1.9467    2.3734 F   0  0  0  0  0  0  0  0  0  0  0  0
   -6.1176    3.8648    1.7081 F   0  0  0  0  0  0  0  0  0  0  0  0
    1.9192   -1.2324    2.1895 C   0  0  0  0  0  0  0  0  0  0  0  0
    1.2697   -1.1627    3.2066 O   0  0  0  0  0  0  0  0  0  0  0  0
    2.3316   -2.4540    1.6624 N   0  0  0  0  0  0  0  0  0  0  0  0
    1.9685   -3.7130    2.2000 C   0  0  0  0  0  0  0  0  0  0  0  0
    0.8455   -3.8855    3.0191 C   0  0  0  0  0  0  0  0  0  0  0  0
    0.5404   -5.1558    3.4980 C   0  0  0  0  0  0  0  0  0  0  0  0
    1.3310   -6.2527    3.1606 C   0  0  0  0  0  0  0  0  0  0  0  0
    2.4402   -6.0782    2.3346 C   0  0  0  0  0  0  0  0  0  0  0  0
    2.7681   -4.8160    1.8524 C   0  0  0  0  0  0  0  0  0  0  0  0
    2.1532   -0.8829   -0.5815 H   0  0  0  0  0  0  0  0  0  0  0  0
    2.2083    0.8822   -0.5566 H   0  0  0  0  0  0  0  0  0  0  0  0
    2.1697    2.6734   -0.0648 H   0  0  0  0  0  0  0  0  0  0  0  0
    3.2725    3.9278    0.5319 H   0  0  0  0  0  0  0  0  0  0  0  0
    1.5887    3.8632    1.1285 H   0  0  0  0  0  0  0  0  0  0  0  0
    3.7902    2.4412    3.8231 H   0  0  0  0  0  0  0  0  0  0  0  0
    2.5205    3.6746    3.5479 H   0  0  0  0  0  0  0  0  0  0  0  0
    4.1304    3.8397    2.7890 H   0  0  0  0  0  0  0  0  0  0  0  0
    0.2442    2.3977    2.8787 H   0  0  0  0  0  0  0  0  0  0  0  0
   -1.6060    3.0562   -0.1903 H   0  0  0  0  0  0  0  0  0  0  0  0
   -4.0087    3.6512   -0.0940 H   0  0  0  0  0  0  0  0  0  0  0  0
   -4.6169    0.6244    2.9423 H   0  0  0  0  0  0  0  0  0  0  0  0
   -2.2171    0.0460    2.8333 H   0  0  0  0  0  0  0  0  0  0  0  0
    2.9280   -2.4711    0.8443 H   0  0  0  0  0  0  0  0  0  0  0  0
    0.2095   -3.0378    3.2827 H   0  0  0  0  0  0  0  0  0  0  0  0
   -0.3288   -5.2912    4.1412 H   0  0  0  0  0  0  0  0  0  0  0  0
    1.0834   -7.2410    3.5388 H   0  0  0  0  0  0  0  0  0  0  0  0
    3.0558   -6.9351    2.0650 H   0  0  0  0  0  0  0  0  0  0  0  0
    3.6404   -4.6885    1.2187 H   0  0  0  0  0  0  0  0  0  0  0  0
  1 11  1  0  0  0  0
  2  1  1  0  0  0  0
  2  3  1  0  0  0  0
  3 22  1  0  0  0  0
  3  5  1  0  0  0  0
  3  4  1  6  0  0  0
  5  6  1  1  0  0  0
  7  5  1  0  0  0  0
  7  9  1  0  0  0  0
  8 35  1  0  0  0  0
  8  7  1  0  0  0  0
  9 37  1  0  0  0  0
  9 36  1  0  0  0  0
 10  5  1  0  0  0  0
 10 39  1  0  0  0  0
 11 12  1  0  0  0  0
 11 10  2  0  0  0  0
 12 17  2  0  0  0  0
 13 14  2  0  0  0  0
 13 12  1  0  0  0  0
 14 15  1  0  0  0  0
 15 18  1  0  0  0  0
 15 16  2  0  0  0  0
 16 42  1  0  0  0  0
 17 16  1  0  0  0  0
 17 43  1  0  0  0  0
 18 21  1  0  0  0  0
 18 20  1  0  0  0  0
 19 18  1  0  0  0  0
 22 23  2  0  0  0  0
 24 22  1  0  0  0  0
 24 25  1  0  0  0  0
 25 26  1  0  0  0  0
 26 45  1  0  0  0  0
 26 27  2  0  0  0  0
 27 46  1  0  0  0  0
 28 27  1  0  0  0  0
 28 47  1  0  0  0  0
 29 28  2  0  0  0  0
 30 25  2  0  0  0  0
 30 29  1  0  0  0  0
 31  2  1  0  0  0  0
 32  2  1  0  0  0  0
 33  8  1  0  0  0  0
 34  8  1  0  0  0  0
 38  9  1  0  0  0  0
 40 13  1  0  0  0  0
 41 14  1  0  0  0  0
 44 24  1  0  0  0  0
 48 29  1  0  0  0  0
 49 30  1  0  0  0  0
M  END
$$$$
