49

S          0.28270        0.07480       -0.11390
C          2.10140        0.17340       -0.00500
C          2.62980        0.05160        1.43160
H          3.72670        0.10260        1.36910
C          2.14900        1.20070        2.36010
H          2.22800        0.80810        3.39120
N          2.98280        2.40120        2.37330
C          4.28110        2.22750        2.98600
C          3.02850        3.18940        1.16000
C          0.70280        1.58020        2.17380
C         -0.15770        1.15640        1.21970
C         -1.59370        1.53680        1.23680
C         -2.29090        1.61860        2.45580
C         -3.63310        1.98830        2.48860
C         -4.30820        2.27420        1.29710
C         -3.63110        2.18940        0.07680
C         -2.28770        1.82020        0.04760
C         -5.77570        2.61420        1.32710
F         -6.12920        3.39520        0.29180
F         -6.54030        1.50710        1.26350
F         -6.11470        3.25890        2.45740
C          2.37020       -1.36730        1.96080
O          3.15640       -2.26820        1.72380
N          1.20540       -1.51730        2.66610
C          0.62580       -2.69070        3.17880
C          1.28710       -3.92990        3.20870
C          0.63320       -5.04130        3.74540
C         -0.66500       -4.94420        4.25220
C         -1.32060       -3.70970        4.21760
C         -0.68260       -2.59160        3.68500
H          2.47710       -0.65720       -0.61940
H          2.42900        1.11660       -0.45990
H          4.17930        1.70950        3.95260
H          4.73680        3.21270        3.17580
H          5.00320        1.64800        2.36700
H          2.01750        3.30400        0.74250
H          3.68460        2.76430        0.36740
H          3.41520        4.19630        1.38870
H          0.33540        2.30760        2.90320
H         -1.77540        1.37550        3.38670
H         -4.16150        2.05090        3.44130
H         -4.15460        2.42230       -0.85170
H         -1.76040        1.76370       -0.90600
H          0.60530       -0.69950        2.70900
H          2.29390       -4.00380        2.80620
H          1.15440       -6.00170        3.76430
H         -1.16370       -5.82220        4.66850
H         -2.33810       -3.61500        4.60440
H         -1.20160       -1.62920        3.64920
