
     RDKit          3D

 49 51  0  0  0  0  0  0  0  0999 V2000
    0.3970    0.0033   -0.1692 S   0  0  0  0  0  0  0  0  0  0  0  0
    2.2062    0.1216    0.0589 C   0  0  0  0  0  0  0  0  0  0  0  0
    2.6290    0.1169    1.5290 C   0  0  1  0  0  0  0  0  0  0  0  0
    3.7270    0.1338    1.5276 H   0  0  0  0  0  0  0  0  0  0  0  0
    2.1323    1.4056    2.2250 C   0  0  1  0  0  0  0  0  0  0  0  0
    2.3260    1.2981    3.3155 H   0  0  0  0  0  0  0  0  0  0  0  0
    2.9083    2.5501    1.7085 N   0  0  0  0  0  0  0  0  0  0  0  0
    2.2276    3.8315    1.6965 C   0  0  0  0  0  0  0  0  0  0  0  0
    4.2150    2.6545    2.3312 C   0  0  0  0  0  0  0  0  0  0  0  0
    0.6402    1.5905    2.0899 C   0  0  0  0  0  0  0  0  0  0  0  0
   -0.1597    1.0290    1.1535 C   0  0  0  0  0  0  0  0  0  0  0  0
   -1.6372    1.1783    1.2109 C   0  0  0  0  0  0  0  0  0  0  0  0
   -2.4753    0.0573    1.0760 C   0  0  0  0  0  0  0  0  0  0  0  0
   -3.8588    0.1905    1.1762 C   0  0  0  0  0  0  0  0  0  0  0  0
   -4.4264    1.4485    1.4041 C   0  0  0  0  0  0  0  0  0  0  0  0
   -3.6033    2.5717    1.5349 C   0  0  0  0  0  0  0  0  0  0  0  0
   -2.2199    2.4360    1.4377 C   0  0  0  0  0  0  0  0  0  0  0  0
   -5.9247    1.6005    1.4550 C   0  0  0  0  0  0  0  0  0  0  0  0
   -6.2954    2.6400    2.2232 F   0  0  0  0  0  0  0  0  0  0  0  0
   -6.4414    1.8141    0.2298 F   0  0  0  0  0  0  0  0  0  0  0  0
   -6.5210    0.4999    1.9452 F   0  0  0  0  0  0  0  0  0  0  0  0
    2.3009   -1.2348    2.1823 C   0  0  0  0  0  0  0  0  0  0  0  0
    3.0381   -2.1875    1.9913 O   0  0  0  0  0  0  0  0  0  0  0  0
    1.1497   -1.2814    2.9197 N   0  0  0  0  0  0  0  0  0  0  0  0
    0.5027   -2.3977    3.4763 C   0  0  0  0  0  0  0  0  0  0  0  0
    1.0939   -3.6689    3.5679 C   0  0  0  0  0  0  0  0  0  0  0  0
    0.3704   -4.7205    4.1351 C   0  0  0  0  0  0  0  0  0  0  0  0
   -0.9288   -4.5321    4.6135 C   0  0  0  0  0  0  0  0  0  0  0  0
   -1.5139   -3.2657    4.5193 C   0  0  0  0  0  0  0  0  0  0  0  0
   -0.8065   -2.2063    3.9545 C   0  0  0  0  0  0  0  0  0  0  0  0
    2.6286   -0.7401   -0.4754 H   0  0  0  0  0  0  0  0  0  0  0  0
    2.5620    1.0542   -0.4017 H   0  0  0  0  0  0  0  0  0  0  0  0
    1.2959    3.7703    1.1183 H   0  0  0  0  0  0  0  0  0  0  0  0
    2.8772    4.5764    1.2115 H   0  0  0  0  0  0  0  0  0  0  0  0
    1.9807    4.2175    2.7119 H   0  0  0  0  0  0  0  0  0  0  0  0
    4.7560    1.6990    2.2764 H   0  0  0  0  0  0  0  0  0  0  0  0
    4.1594    2.9485    3.4041 H   0  0  0  0  0  0  0  0  0  0  0  0
    4.8219    3.4076    1.8056 H   0  0  0  0  0  0  0  0  0  0  0  0
    0.1517    2.1903    2.8624 H   0  0  0  0  0  0  0  0  0  0  0  0
   -2.0348   -0.9283    0.9140 H   0  0  0  0  0  0  0  0  0  0  0  0
   -4.5001   -0.6878    1.0889 H   0  0  0  0  0  0  0  0  0  0  0  0
   -4.0473    3.5525    1.7125 H   0  0  0  0  0  0  0  0  0  0  0  0
   -1.5801    3.3158    1.5261 H   0  0  0  0  0  0  0  0  0  0  0  0
    0.5992   -0.4276    2.9232 H   0  0  0  0  0  0  0  0  0  0  0  0
    2.1013   -3.8136    3.1865 H   0  0  0  0  0  0  0  0  0  0  0  0
    0.8371   -5.7065    4.2017 H   0  0  0  0  0  0  0  0  0  0  0  0
   -1.4818   -5.3640    5.0550 H   0  0  0  0  0  0  0  0  0  0  0  0
   -2.5300   -3.0993    4.8851 H   0  0  0  0  0  0  0  0  0  0  0  0
   -1.2700   -1.2187    3.8739 H   0  0  0  0  0  0  0  0  0  0  0  0
  1  2  1  0
  1 11  1  0
  2  3  1  0
  2 31  1  0
  2 32  1  0
  3  4  1  6
  3  5  1  0
  3 22  1  0
  5  6  1  1
  5  7  1  0
  5 10  1  0
  7  8  1  0
  7  9  1  0
  8 33  1  0
  8 34  1  0
  8 35  1  0
  9 36  1  0
  9 37  1  0
  9 38  1  0
 10 11  2  0
 10 39  1  0
 11 12  1  0
 12 13  2  0
 12 17  1  0
 13 14  1  0
 13 40  1  0
 14 15  2  0
 14 41  1  0
 15 16  1  0
 15 18  1  0
 16 17  2  0
 16 42  1  0
 17 43  1  0
 18 19  1  0
 18 20  1  0
 18 21  1  0
 22 23  2  0
 22 24  1  0
 24 25  1  0
 24 44  1  0
 25 26  2  0
 25 30  1  0
 26 27  1  0
 26 45  1  0
 27 28  2  0
 27 46  1  0
 28 29  1  0
 28 47  1  0
 29 30  2  0
 29 48  1  0
 30 49  1  0
M  END

