
     RDKit          3D

 49 51  0  0  0  0  0  0  0  0999 V2000
    0.8966    0.3799   -0.3268 S   0  0  0  0  0  0  0  0  0  0  0  0
    2.6728    0.4662    0.1345 C   0  0  0  0  0  0  0  0  0  0  0  0
    2.9541    0.3248    1.6283 C   0  0  1  0  0  0  0  0  0  0  0  0
    4.0417    0.4318    1.7473 H   0  0  0  0  0  0  0  0  0  0  0  0
    2.2963    1.4953    2.4053 C   0  0  1  0  0  0  0  0  0  0  0  0
    2.4788    1.3025    3.4817 H   0  0  0  0  0  0  0  0  0  0  0  0
    2.9333    2.7653    2.0109 N   0  0  0  0  0  0  0  0  0  0  0  0
    2.0988    3.9511    2.0871 C   0  0  0  0  0  0  0  0  0  0  0  0
    4.2004    2.9711    2.6888 C   0  0  0  0  0  0  0  0  0  0  0  0
    0.8020    1.4928    2.2134 C   0  0  0  0  0  0  0  0  0  0  0  0
    0.1310    1.0486    1.1325 C   0  0  0  0  0  0  0  0  0  0  0  0
   -1.3511    1.0277    1.0701 C   0  0  0  0  0  0  0  0  0  0  0  0
   -2.0979    0.6016    2.1825 C   0  0  0  0  0  0  0  0  0  0  0  0
   -3.4902    0.5861    2.1417 C   0  0  0  0  0  0  0  0  0  0  0  0
   -4.1604    0.9884    0.9814 C   0  0  0  0  0  0  0  0  0  0  0  0
   -3.4298    1.3993   -0.1380 C   0  0  0  0  0  0  0  0  0  0  0  0
   -2.0371    1.4150   -0.0943 C   0  0  0  0  0  0  0  0  0  0  0  0
   -5.6663    1.0207    0.9540 C   0  0  0  0  0  0  0  0  0  0  0  0
   -6.1485    0.8307   -0.2866 F   0  0  0  0  0  0  0  0  0  0  0  0
   -6.2012    0.0763    1.7473 F   0  0  0  0  0  0  0  0  0  0  0  0
   -6.1417    2.2068    1.3817 F   0  0  0  0  0  0  0  0  0  0  0  0
    2.6538   -0.9941    2.3549 C   0  0  0  0  0  0  0  0  0  0  0  0
    3.2001   -1.2092    3.4253 O   0  0  0  0  0  0  0  0  0  0  0  0
    1.7541   -1.8349    1.7632 N   0  0  0  0  0  0  0  0  0  0  0  0
    1.2109   -3.0325    2.2614 C   0  0  0  0  0  0  0  0  0  0  0  0
    1.6708   -3.6692    3.4267 C   0  0  0  0  0  0  0  0  0  0  0  0
    1.0658   -4.8579    3.8415 C   0  0  0  0  0  0  0  0  0  0  0  0
    0.0125   -5.4257    3.1206 C   0  0  0  0  0  0  0  0  0  0  0  0
   -0.4431   -4.7883    1.9624 C   0  0  0  0  0  0  0  0  0  0  0  0
    0.1488   -3.6017    1.5350 C   0  0  0  0  0  0  0  0  0  0  0  0
    3.1621   -0.3201   -0.4582 H   0  0  0  0  0  0  0  0  0  0  0  0
    3.0581    1.4463   -0.1784 H   0  0  0  0  0  0  0  0  0  0  0  0
    1.1908    3.8282    1.4824 H   0  0  0  0  0  0  0  0  0  0  0  0
    2.6602    4.8091    1.6855 H   0  0  0  0  0  0  0  0  0  0  0  0
    1.7901    4.2128    3.1245 H   0  0  0  0  0  0  0  0  0  0  0  0
    4.8509    2.0909    2.5851 H   0  0  0  0  0  0  0  0  0  0  0  0
    4.0792    3.1686    3.7775 H   0  0  0  0  0  0  0  0  0  0  0  0
    4.7282    3.8294    2.2450 H   0  0  0  0  0  0  0  0  0  0  0  0
    0.2027    1.9000    3.0316 H   0  0  0  0  0  0  0  0  0  0  0  0
   -1.5762    0.2546    3.0760 H   0  0  0  0  0  0  0  0  0  0  0  0
   -4.0596    0.2413    3.0062 H   0  0  0  0  0  0  0  0  0  0  0  0
   -3.9528    1.7043   -1.0457 H   0  0  0  0  0  0  0  0  0  0  0  0
   -1.4718    1.7426   -0.9688 H   0  0  0  0  0  0  0  0  0  0  0  0
    1.3093   -1.4892    0.9138 H   0  0  0  0  0  0  0  0  0  0  0  0
    2.4854   -3.2211    3.9895 H   0  0  0  0  0  0  0  0  0  0  0  0
    1.4298   -5.3463    4.7490 H   0  0  0  0  0  0  0  0  0  0  0  0
   -0.4505   -6.3559    3.4572 H   0  0  0  0  0  0  0  0  0  0  0  0
   -1.2675   -5.2155    1.3864 H   0  0  0  0  0  0  0  0  0  0  0  0
   -0.2125   -3.1011    0.6323 H   0  0  0  0  0  0  0  0  0  0  0  0
  1  2  1  0
  1 11  1  0
  2  3  1  0
  2 31  1  0
  2 32  1  0
  3  4  1  6
  3  5  1  0
  3 22  1  0
  5  6  1  1
  5  7  1  0
  5 10  1  0
  7  8  1  0
  7  9  1  0
  8 33  1  0
  8 34  1  0
  8 35  1  0
  9 36  1  0
  9 37  1  0
  9 38  1  0
 10 11  2  0
 10 39  1  0
 11 12  1  0
 12 13  2  0
 12 17  1  0
 13 14  1  0
 13 40  1  0
 14 15  2  0
 14 41  1  0
 15 16  1  0
 15 18  1  0
 16 17  2  0
 16 42  1  0
 17 43  1  0
 18 19  1  0
 18 20  1  0
 18 21  1  0
 22 23  2  0
 22 24  1  0
 24 25  1  0
 24 44  1  0
 25 26  2  0
 25 30  1  0
 26 27  1  0
 26 45  1  0
 27 28  2  0
 27 46  1  0
 28 29  1  0
 28 47  1  0
 29 30  2  0
 29 48  1  0
 30 49  1  0
M  END

