
     RDKit          3D

 49 51  0  0  0  0  0  0  0  0999 V2000
    0.2637    0.0247   -0.0364 S   0  0  0  0  0  0  0  0  0  0  0  0
    2.0628    0.1776    0.2135 C   0  0  0  0  0  0  0  0  0  0  0  0
    2.4331    0.1515    1.6984 C   0  0  1  0  0  0  0  0  0  0  0  0
    3.5336    0.1043    1.7610 H   0  0  0  0  0  0  0  0  0  0  0  0
    1.9753    1.4672    2.3568 C   0  0  1  0  0  0  0  0  0  0  0  0
    2.1117    1.3526    3.4500 H   0  0  0  0  0  0  0  0  0  0  0  0
    2.8173    2.5739    1.8565 N   0  0  0  0  0  0  0  0  0  0  0  0
    2.1848    3.8784    1.7851 C   0  0  0  0  0  0  0  0  0  0  0  0
    4.0890    2.6458    2.5498 C   0  0  0  0  0  0  0  0  0  0  0  0
    0.5003    1.6982    2.1592 C   0  0  0  0  0  0  0  0  0  0  0  0
   -0.2977    1.1293    1.2336 C   0  0  0  0  0  0  0  0  0  0  0  0
   -1.7649    1.3505    1.2210 C   0  0  0  0  0  0  0  0  0  0  0  0
   -2.4633    1.5582    0.0187 C   0  0  0  0  0  0  0  0  0  0  0  0
   -3.8383    1.7841    0.0236 C   0  0  0  0  0  0  0  0  0  0  0  0
   -4.5409    1.7990    1.2328 C   0  0  0  0  0  0  0  0  0  0  0  0
   -3.8613    1.5768    2.4356 C   0  0  0  0  0  0  0  0  0  0  0  0
   -2.4873    1.3491    2.4276 C   0  0  0  0  0  0  0  0  0  0  0  0
   -6.0166    2.0976    1.2456 C   0  0  0  0  0  0  0  0  0  0  0  0
   -6.6436    1.4842    2.2650 F   0  0  0  0  0  0  0  0  0  0  0  0
   -6.2528    3.4181    1.3807 F   0  0  0  0  0  0  0  0  0  0  0  0
   -6.6178    1.7091    0.1070 F   0  0  0  0  0  0  0  0  0  0  0  0
    1.8964   -1.0659    2.4694 C   0  0  0  0  0  0  0  0  0  0  0  0
    1.2929   -0.9520    3.5206 O   0  0  0  0  0  0  0  0  0  0  0  0
    2.2018   -2.2704    1.8865 N   0  0  0  0  0  0  0  0  0  0  0  0
    1.8483   -3.5696    2.2941 C   0  0  0  0  0  0  0  0  0  0  0  0
    1.1259   -3.8392    3.4691 C   0  0  0  0  0  0  0  0  0  0  0  0
    0.8170   -5.1615    3.7950 C   0  0  0  0  0  0  0  0  0  0  0  0
    1.2126   -6.2226    2.9772 C   0  0  0  0  0  0  0  0  0  0  0  0
    1.9313   -5.9508    1.8095 C   0  0  0  0  0  0  0  0  0  0  0  0
    2.2465   -4.6368    1.4697 C   0  0  0  0  0  0  0  0  0  0  0  0
    2.5139   -0.6394   -0.3689 H   0  0  0  0  0  0  0  0  0  0  0  0
    2.4220    1.1310   -0.2020 H   0  0  0  0  0  0  0  0  0  0  0  0
    1.2758    3.8352    1.1705 H   0  0  0  0  0  0  0  0  0  0  0  0
    2.8817    4.5887    1.3131 H   0  0  0  0  0  0  0  0  0  0  0  0
    1.9082    4.2961    2.7797 H   0  0  0  0  0  0  0  0  0  0  0  0
    4.5972    1.6698    2.5446 H   0  0  0  0  0  0  0  0  0  0  0  0
    3.9860    2.9615    3.6129 H   0  0  0  0  0  0  0  0  0  0  0  0
    4.7532    3.3655    2.0464 H   0  0  0  0  0  0  0  0  0  0  0  0
    0.0238    2.3804    2.8673 H   0  0  0  0  0  0  0  0  0  0  0  0
   -1.9170    1.5525   -0.9262 H   0  0  0  0  0  0  0  0  0  0  0  0
   -4.3700    1.9473   -0.9151 H   0  0  0  0  0  0  0  0  0  0  0  0
   -4.4138    1.5617    3.3765 H   0  0  0  0  0  0  0  0  0  0  0  0
   -1.9628    1.1385    3.3610 H   0  0  0  0  0  0  0  0  0  0  0  0
    2.7045   -2.2269    1.0093 H   0  0  0  0  0  0  0  0  0  0  0  0
    0.8178   -3.0131    4.1040 H   0  0  0  0  0  0  0  0  0  0  0  0
    0.2536   -5.3603    4.7101 H   0  0  0  0  0  0  0  0  0  0  0  0
    0.9636   -7.2515    3.2454 H   0  0  0  0  0  0  0  0  0  0  0  0
    2.2493   -6.7661    1.1553 H   0  0  0  0  0  0  0  0  0  0  0  0
    2.8071   -4.4306    0.5528 H   0  0  0  0  0  0  0  0  0  0  0  0
  1  2  1  0
  1 11  1  0
  2  3  1  0
  2 31  1  0
  2 32  1  0
  3  4  1  6
  3  5  1  0
  3 22  1  0
  5  6  1  1
  5  7  1  0
  5 10  1  0
  7  8  1  0
  7  9  1  0
  8 33  1  0
  8 34  1  0
  8 35  1  0
  9 36  1  0
  9 37  1  0
  9 38  1  0
 10 11  2  0
 10 39  1  0
 11 12  1  0
 12 13  2  0
 12 17  1  0
 13 14  1  0
 13 40  1  0
 14 15  2  0
 14 41  1  0
 15 16  1  0
 15 18  1  0
 16 17  2  0
 16 42  1  0
 17 43  1  0
 18 19  1  0
 18 20  1  0
 18 21  1  0
 22 23  2  0
 22 24  1  0
 24 25  1  0
 24 44  1  0
 25 26  2  0
 25 30  1  0
 26 27  1  0
 26 45  1  0
 27 28  2  0
 27 46  1  0
 28 29  1  0
 28 47  1  0
 29 30  2  0
 29 48  1  0
 30 49  1  0
M  END

