49

S          0.26370        0.02470       -0.03640
C          2.06280        0.17760        0.21350
C          2.43310        0.15150        1.69840
H          3.53360        0.10430        1.76100
C          1.97530        1.46720        2.35680
H          2.11170        1.35260        3.45000
N          2.81730        2.57390        1.85650
C          2.18480        3.87840        1.78510
C          4.08900        2.64580        2.54980
C          0.50030        1.69820        2.15920
C         -0.29770        1.12930        1.23360
C         -1.76490        1.35050        1.22100
C         -2.46330        1.55820        0.01870
C         -3.83830        1.78410        0.02360
C         -4.54090        1.79900        1.23280
C         -3.86130        1.57680        2.43560
C         -2.48730        1.34910        2.42760
C         -6.01660        2.09760        1.24560
F         -6.64360        1.48420        2.26500
F         -6.25280        3.41810        1.38070
F         -6.61780        1.70910        0.10700
C          1.89640       -1.06590        2.46940
O          1.29290       -0.95200        3.52060
N          2.20180       -2.27040        1.88650
C          1.84830       -3.56960        2.29410
C          1.12590       -3.83920        3.46910
C          0.81700       -5.16150        3.79500
C          1.21260       -6.22260        2.97720
C          1.93130       -5.95080        1.80950
C          2.24650       -4.63680        1.46970
H          2.51390       -0.63940       -0.36890
H          2.42200        1.13100       -0.20200
H          1.27580        3.83520        1.17050
H          2.88170        4.58870        1.31310
H          1.90820        4.29610        2.77970
H          4.59720        1.66980        2.54460
H          3.98600        2.96150        3.61290
H          4.75320        3.36550        2.04640
H          0.02380        2.38040        2.86730
H         -1.91700        1.55250       -0.92620
H         -4.37000        1.94730       -0.91510
H         -4.41380        1.56170        3.37650
H         -1.96280        1.13850        3.36100
H          2.70450       -2.22690        1.00930
H          0.81780       -3.01310        4.10400
H          0.25360       -5.36030        4.71010
H          0.96360       -7.25150        3.24540
H          2.24930       -6.76610        1.15530
H          2.80710       -4.43060        0.55280
