49
rmsd224.gzmat
S          0.00000        0.00000        0.00000
C          1.83190        0.00000        0.00000
C          2.47360        0.00000        1.38300
H          3.41060        0.61920        1.32310
C          1.58480        0.57160        2.53520
H          1.00770       -0.30370        2.97150
N          2.50340        1.05740        3.60200
C          3.10310        2.37470        3.30980
C          1.83710        1.06780        4.92160
C          0.56190        1.58140        2.10460
C         -0.23770        1.39660        1.05090
C         -1.32280        2.29650        0.67210
C         -2.63450        2.01380        1.06280
C         -3.66740        2.87550        0.70300
C         -3.38370        4.02120       -0.04010
C         -2.07750        4.30100       -0.44370
C         -1.04550        3.43910       -0.08430
C         -4.49430        4.94980       -0.43490
F         -4.14180        6.23280       -0.52840
F         -5.02640        4.66470       -1.62450
F         -5.53510        4.96770        0.39820
C          2.91200       -1.43280        1.73630
O          2.70790       -2.37420        1.00500
N          3.61270       -1.53790        2.93020
C          4.12980       -2.72760        3.48370
C          4.83060       -2.60430        4.69950
C          5.37070       -3.73510        5.29920
C          5.22090       -4.98900        4.70780
C          4.52720       -5.10590        3.50530
C          3.97980       -3.98590        2.88660
H          2.13590       -0.90400       -0.58170
H          2.18180        0.87020       -0.58650
H          3.48380        2.40550        2.27640
H          3.96560        2.51810        3.98470
H          2.41920        3.22730        3.44110
H          1.50210        0.04580        5.17140
H          0.96950        1.74180        4.98820
H          2.56760        1.36810        5.69220
H          0.45880        2.45680        2.74660
H         -2.84990        1.11760        1.64530
H         -4.68880        2.63660        1.00640
H         -1.84970        5.18480       -1.04300
H         -0.02350        3.65090       -0.39570
H          3.68460       -0.68620        3.50580
H          4.95300       -1.63110        5.16620
H          5.91500       -3.64020        6.23740
H          5.64300       -5.87010        5.18230
H          4.40890       -6.08470        3.04040
H          3.44040       -4.09940        1.94440
