49
rmsd151.gzmat
S          0.00000        0.00000        0.00000
C          1.82710        0.00000        0.00000
C          2.42420        0.00000        1.39770
H          3.54920        0.12460        1.28680
C          1.96390        1.15670        2.32280
H          2.16070        0.80670        3.38340
N          2.87300        2.30930        2.07700
C          2.41040        3.20820        1.00130
C          3.10380        3.08030        3.31820
C          0.51070        1.52660        2.23460
C         -0.36330        1.10350        1.31810
C         -1.76580        1.52640        1.31300
C         -2.13230        2.67830        0.61200
C         -3.46140        3.09240        0.60210
C         -4.41970        2.34840        1.29010
C         -4.05640        1.20350        2.00000
C         -2.72690        0.78900        2.00890
C         -5.85300        2.79420        1.29350
F         -6.74460        1.80290        1.30790
F         -6.17000        3.54160        2.35260
F         -6.21680        3.53380        0.24580
C          2.23160       -1.39420        2.00020
O          3.01830       -2.27680        1.74310
N          1.13810       -1.59170        2.83590
C          0.76620       -2.82850        3.41400
C          1.58730       -3.96240        3.40510
C          1.14280       -5.13250        4.01420
C         -0.10550       -5.18580        4.63070
C         -0.91990       -4.05440        4.64000
C         -0.49490       -2.87620        4.03870
H          2.15170       -0.90310       -0.56430
H          2.19970        0.86890       -0.57900
H          2.21190        2.63200        0.08430
H          3.22470        3.91690        0.76880
H          1.50560        3.78550        1.24460
H          3.58040        2.42540        4.06780
H          2.19800        3.52410        3.75650
H          3.81750        3.89470        3.10580
H          0.19760        2.22690        3.01490
H         -1.38030        3.25010        0.06910
H         -3.73120        3.99770        0.05470
H         -4.80000        0.62420        2.55150
H         -2.44150       -0.11140        2.55280
H          0.46970       -0.83390        2.95520
H          2.56860       -3.94400        2.92670
H          1.78200       -6.01530        4.00630
H         -0.44390       -6.10460        5.10140
H         -1.89680       -4.09380        5.11990
H         -1.13700       -2.00090        4.05110
