rmsd205.gzmat
 OpenBabel08211713423D

 47 50  0  0  1  0  0  0  0  0999 V2000
    0.0000    0.0000    0.0000 C   0  0  0  0  0  0  0  0  0  0  0  0
    1.3932    0.0000    0.0000 C   0  0  0  0  0  0  0  0  0  0  0  0
    2.0807    0.0000    1.2142 C   0  0  0  0  0  0  0  0  0  0  0  0
    1.3840   -0.0013    2.4242 C   0  0  0  0  0  0  0  0  0  0  0  0
   -0.0091   -0.0038    2.4155 C   0  0  0  0  0  0  0  0  0  0  0  0
   -0.7007   -0.0042    1.2050 C   0  0  0  0  0  0  0  0  0  0  0  0
    3.5965   -0.0041    1.2195 C   0  0  1  0  0  0  0  0  0  0  0  0
    4.1375    0.4550    0.0064 O   0  0  0  0  0  0  0  0  0  0  0  0
    4.3128    1.8601   -0.0606 C   0  0  0  0  0  0  0  0  0  0  0  0
    5.3549    2.2755    0.9833 C   0  0  1  0  0  0  0  0  0  0  0  0
    6.3907    2.2096    0.5867 H   0  0  0  0  0  0  0  0  0  0  0  0
    5.1761    3.6550    1.2725 O   0  0  0  0  0  0  0  0  0  0  0  0
    4.8716    3.8814    2.6362 C   0  0  1  0  0  0  0  0  0  0  0  0
    5.6011    4.6730    2.9601 H   0  0  0  0  0  0  0  0  0  0  0  0
    3.5035    4.4262    2.6962 N   0  0  0  0  0  0  0  0  0  0  0  0
    3.3741    5.8125    2.9521 C   0  0  0  0  0  0  0  0  0  0  0  0
    4.3084    6.4666    3.3662 O   0  0  0  0  0  0  0  0  0  0  0  0
    2.1141    6.3761    2.7536 N   0  0  0  0  0  0  0  0  0  0  0  0
    2.0094    7.3733    2.9599 H   0  0  0  0  0  0  0  0  0  0  0  0
    0.9886    5.6643    2.2552 C   0  0  0  0  0  0  0  0  0  0  0  0
   -0.0305    6.2914    2.0920 O   0  0  0  0  0  0  0  0  0  0  0  0
    1.2123    4.2428    2.0094 C   0  0  0  0  0  0  0  0  0  0  0  0
    2.4270    3.6824    2.2225 C   0  0  0  0  0  0  0  0  0  0  0  0
    0.0439    3.4770    1.5161 C   0  0  0  0  0  0  0  0  0  0  0  0
    5.0175    2.5500    3.3887 C   0  0  0  0  0  0  0  0  0  0  0  0
    5.1788    1.4831    2.2952 C   0  0  1  0  0  0  0  0  0  0  0  0
    6.0074    0.7738    2.4984 H   0  0  0  0  0  0  0  0  0  0  0  0
    3.9436    0.7840    2.3291 O   0  0  0  0  0  0  0  0  0  0  0  0
    4.4326   -1.7132    1.3525 P   0  0  0  0  0  0  0  0  0  0  0  0
    4.9835   -2.1361    2.6354 O   0  0  0  0  0  0  0  0  0  0  0  0
    5.5610   -1.8044    0.2241 O   0  0  0  0  0  0  0  0  0  0  0  0
    3.2086   -2.5710    0.7761 O   0  0  0  0  0  0  0  0  0  0  0  0
   -0.5409   -0.0028   -0.9438 H   0  0  0  0  0  0  0  0  0  0  0  0
    1.9406   -0.0086   -0.9432 H   0  0  0  0  0  0  0  0  0  0  0  0
    1.9229   -0.0063    3.3737 H   0  0  0  0  0  0  0  0  0  0  0  0
   -0.5564   -0.0086    3.3562 H   0  0  0  0  0  0  0  0  0  0  0  0
   -1.7889   -0.0098    1.2014 H   0  0  0  0  0  0  0  0  0  0  0  0
    4.6651    2.0089   -1.0975 H   0  0  0  0  0  0  0  0  0  0  0  0
    3.3491    2.3819    0.0715 H   0  0  0  0  0  0  0  0  0  0  0  0
    2.6188    2.6080    2.0611 H   0  0  0  0  0  0  0  0  0  0  0  0
    0.2516    2.4044    1.3958 H   0  0  0  0  0  0  0  0  0  0  0  0
   -0.2979    3.8575    0.5390 H   0  0  0  0  0  0  0  0  0  0  0  0
   -0.8158    3.5708    2.2005 H   0  0  0  0  0  0  0  0  0  0  0  0
    4.1461    2.3269    4.0386 H   0  0  0  0  0  0  0  0  0  0  0  0
    5.8878    2.5687    4.0673 H   0  0  0  0  0  0  0  0  0  0  0  0
    5.2418   -1.3418   -0.6332 H   0  0  0  0  0  0  0  0  0  0  0  0
    3.4004   -3.5654    0.9040 H   0  0  0  0  0  0  0  0  0  0  0  0
  1  6  1  0  0  0  0
  2  1  2  0  0  0  0
  2  3  1  0  0  0  0
  3  7  1  0  0  0  0
  3  4  2  0  0  0  0
  4 35  1  0  0  0  0
  5  4  1  0  0  0  0
  5 36  1  0  0  0  0
  6  5  2  0  0  0  0
  7 29  1  1  0  0  0
  7 28  1  0  0  0  0
  8  7  1  0  0  0  0
  9  8  1  0  0  0  0
  9 39  1  0  0  0  0
  9 10  1  0  0  0  0
 10 12  1  0  0  0  0
 10 26  1  0  0  0  0
 10 11  1  6  0  0  0
 12 13  1  0  0  0  0
 13 15  1  0  0  0  0
 13 14  1  1  0  0  0
 13 25  1  0  0  0  0
 15 16  1  0  0  0  0
 16 17  2  0  0  0  0
 18 16  1  0  0  0  0
 18 19  1  0  0  0  0
 20 18  1  0  0  0  0
 21 20  2  0  0  0  0
 22 23  2  0  0  0  0
 22 20  1  0  0  0  0
 23 15  1  0  0  0  0
 24 22  1  0  0  0  0
 24 43  1  0  0  0  0
 25 44  1  0  0  0  0
 25 45  1  0  0  0  0
 26 28  1  0  0  0  0
 26 27  1  1  0  0  0
 26 25  1  0  0  0  0
 29 30  2  0  0  0  0
 31 29  1  0  0  0  0
 32 47  1  0  0  0  0
 32 29  1  0  0  0  0
 33  1  1  0  0  0  0
 34  2  1  0  0  0  0
 37  6  1  0  0  0  0
 38  9  1  0  0  0  0
 40 23  1  0  0  0  0
 41 24  1  0  0  0  0
 42 24  1  0  0  0  0
 46 31  1  0  0  0  0
M  END
$$$$
