rmsd196.gzmat
 OpenBabel08211713423D

 47 50  0  0  1  0  0  0  0  0999 V2000
    0.0000    0.0000    0.0000 C   0  0  0  0  0  0  0  0  0  0  0  0
    1.3933    0.0000    0.0000 C   0  0  0  0  0  0  0  0  0  0  0  0
    2.0815    0.0000    1.2149 C   0  0  0  0  0  0  0  0  0  0  0  0
    1.3861    0.0044    2.4247 C   0  0  0  0  0  0  0  0  0  0  0  0
   -0.0068    0.0023    2.4162 C   0  0  0  0  0  0  0  0  0  0  0  0
   -0.6994   -0.0006    1.2061 C   0  0  0  0  0  0  0  0  0  0  0  0
    3.5971   -0.0011    1.2226 C   0  0  1  0  0  0  0  0  0  0  0  0
    4.1268   -0.4513    2.4439 O   0  0  0  0  0  0  0  0  0  0  0  0
    4.2985   -1.8558    2.5248 C   0  0  0  0  0  0  0  0  0  0  0  0
    5.3590   -2.2720    1.5006 C   0  0  1  0  0  0  0  0  0  0  0  0
    6.3897   -2.1678    1.9024 H   0  0  0  0  0  0  0  0  0  0  0  0
    5.2231   -3.6619    1.2453 O   0  0  0  0  0  0  0  0  0  0  0  0
    4.8735   -3.9272   -0.1001 C   0  0  1  0  0  0  0  0  0  0  0  0
    5.5998   -4.7216   -0.4257 H   0  0  0  0  0  0  0  0  0  0  0  0
    3.5101   -4.4873   -0.1008 N   0  0  0  0  0  0  0  0  0  0  0  0
    3.3996   -5.8954   -0.2098 C   0  0  0  0  0  0  0  0  0  0  0  0
    4.3415   -6.5774   -0.5550 O   0  0  0  0  0  0  0  0  0  0  0  0
    2.1479   -6.4531    0.0498 N   0  0  0  0  0  0  0  0  0  0  0  0
    2.0585   -7.4685   -0.0481 H   0  0  0  0  0  0  0  0  0  0  0  0
    1.0100   -5.7085    0.4636 C   0  0  0  0  0  0  0  0  0  0  0  0
   -0.0032   -6.3281    0.6830 O   0  0  0  0  0  0  0  0  0  0  0  0
    1.2163   -4.2667    0.5687 C   0  0  0  0  0  0  0  0  0  0  0  0
    2.4252   -3.7154    0.3049 C   0  0  0  0  0  0  0  0  0  0  0  0
    0.0348   -3.4699    0.9741 C   0  0  0  0  0  0  0  0  0  0  0  0
    4.9882   -2.6152   -0.8911 C   0  0  0  0  0  0  0  0  0  0  0  0
    5.1723   -1.5167    0.1686 C   0  0  1  0  0  0  0  0  0  0  0  0
    6.0065   -0.8233   -0.0648 H   0  0  0  0  0  0  0  0  0  0  0  0
    3.9482   -0.8000    0.1213 O   0  0  0  0  0  0  0  0  0  0  0  0
    4.4384    1.7063    1.0944 P   0  0  0  0  0  0  0  0  0  0  0  0
    4.8356    2.2120   -0.2140 O   0  0  0  0  0  0  0  0  0  0  0  0
    5.6952    1.7033    2.0838 O   0  0  0  0  0  0  0  0  0  0  0  0
    3.3122    2.5316    1.8805 O   0  0  0  0  0  0  0  0  0  0  0  0
   -0.5411    0.0046   -0.9445 H   0  0  0  0  0  0  0  0  0  0  0  0
    1.9383    0.0074   -0.9462 H   0  0  0  0  0  0  0  0  0  0  0  0
    1.9287    0.0203    3.3710 H   0  0  0  0  0  0  0  0  0  0  0  0
   -0.5536    0.0070    3.3568 H   0  0  0  0  0  0  0  0  0  0  0  0
   -1.7877   -0.0005    1.2026 H   0  0  0  0  0  0  0  0  0  0  0  0
    4.6320   -1.9986    3.5686 H   0  0  0  0  0  0  0  0  0  0  0  0
    3.3376   -2.3789    2.3794 H   0  0  0  0  0  0  0  0  0  0  0  0
    2.6035   -2.6284    0.3695 H   0  0  0  0  0  0  0  0  0  0  0  0
    0.2771   -2.4198    1.1916 H   0  0  0  0  0  0  0  0  0  0  0  0
   -0.4415   -3.8913    1.8760 H   0  0  0  0  0  0  0  0  0  0  0  0
   -0.7395   -3.4731    0.1890 H   0  0  0  0  0  0  0  0  0  0  0  0
    4.1001   -2.4148   -1.5249 H   0  0  0  0  0  0  0  0  0  0  0  0
    5.8408   -2.6459   -1.5916 H   0  0  0  0  0  0  0  0  0  0  0  0
    5.4505    1.2148    2.9523 H   0  0  0  0  0  0  0  0  0  0  0  0
    3.5080    3.5307    1.8087 H   0  0  0  0  0  0  0  0  0  0  0  0
  1  2  2  0  0  0  0
  1  6  1  0  0  0  0
  2  3  1  0  0  0  0
  3  7  1  0  0  0  0
  3  4  2  0  0  0  0
  4 35  1  0  0  0  0
  5  4  1  0  0  0  0
  5 36  1  0  0  0  0
  6  5  2  0  0  0  0
  7 29  1  6  0  0  0
  7  8  1  0  0  0  0
  8  9  1  0  0  0  0
  9 38  1  0  0  0  0
 10 26  1  0  0  0  0
 10 11  1  1  0  0  0
 10  9  1  0  0  0  0
 12 10  1  0  0  0  0
 13 14  1  6  0  0  0
 13 12  1  0  0  0  0
 15 13  1  0  0  0  0
 15 23  1  0  0  0  0
 16 15  1  0  0  0  0
 16 18  1  0  0  0  0
 17 16  2  0  0  0  0
 18 20  1  0  0  0  0
 19 18  1  0  0  0  0
 20 22  1  0  0  0  0
 20 21  2  0  0  0  0
 22 24  1  0  0  0  0
 23 40  1  0  0  0  0
 23 22  2  0  0  0  0
 24 41  1  0  0  0  0
 24 42  1  0  0  0  0
 25 13  1  0  0  0  0
 25 26  1  0  0  0  0
 26 27  1  6  0  0  0
 28 26  1  0  0  0  0
 28  7  1  0  0  0  0
 29 32  1  0  0  0  0
 29 31  1  0  0  0  0
 30 29  2  0  0  0  0
 31 46  1  0  0  0  0
 33  1  1  0  0  0  0
 34  2  1  0  0  0  0
 37  6  1  0  0  0  0
 39  9  1  0  0  0  0
 43 24  1  0  0  0  0
 44 25  1  0  0  0  0
 45 25  1  0  0  0  0
 47 32  1  0  0  0  0
M  END
$$$$
