47
rmsd205.gzmat
C          0.00000        0.00000        0.00000
C          1.39320        0.00000        0.00000
C          2.08070        0.00000        1.21420
C          1.38400       -0.00130        2.42420
C         -0.00910       -0.00380        2.41550
C         -0.70070       -0.00420        1.20500
C          3.59650       -0.00410        1.21950
O          4.13750        0.45500        0.00640
C          4.31280        1.86010       -0.06060
C          5.35490        2.27550        0.98330
H          6.39070        2.20960        0.58670
O          5.17610        3.65500        1.27250
C          4.87160        3.88140        2.63620
H          5.60110        4.67300        2.96010
N          3.50350        4.42620        2.69620
C          3.37410        5.81250        2.95210
O          4.30840        6.46660        3.36620
N          2.11410        6.37610        2.75360
H          2.00940        7.37330        2.95990
C          0.98860        5.66430        2.25520
O         -0.03050        6.29140        2.09200
C          1.21230        4.24280        2.00940
C          2.42700        3.68240        2.22250
C          0.04390        3.47700        1.51610
C          5.01750        2.55000        3.38870
C          5.17880        1.48310        2.29520
H          6.00740        0.77380        2.49840
O          3.94360        0.78400        2.32910
P          4.43260       -1.71320        1.35250
O          4.98350       -2.13610        2.63540
O          5.56100       -1.80440        0.22410
O          3.20860       -2.57100        0.77610
H         -0.54090       -0.00280       -0.94380
H          1.94060       -0.00860       -0.94320
H          1.92290       -0.00630        3.37370
H         -0.55640       -0.00860        3.35620
H         -1.78890       -0.00980        1.20140
H          4.66510        2.00890       -1.09750
H          3.34910        2.38190        0.07150
H          2.61880        2.60800        2.06110
H          0.25160        2.40440        1.39580
H         -0.29790        3.85750        0.53900
H         -0.81580        3.57080        2.20050
H          4.14610        2.32690        4.03860
H          5.88780        2.56870        4.06730
H          5.24180       -1.34180       -0.63320
H          3.40040       -3.56540        0.90400
