47
rmsd83.gzmat
C          0.00000        0.00000        0.00000
C          1.39280        0.00000        0.00000
C          2.08090        0.00000        1.21420
C          1.38540       -0.00270        2.42460
C         -0.00800       -0.00760        2.41590
C         -0.69980       -0.00570        1.20580
C          3.59610       -0.00970        1.21240
O          4.13420        0.44310       -0.00430
C          4.29270        1.84980       -0.08070
C          5.35100        2.26870        0.94440
H          6.38140        2.18600        0.53720
O          5.19110        3.65280        1.21820
C          4.87190        3.89680        2.57500
H          5.59710        4.69530        2.89340
N          3.50300        4.44100        2.61780
C          3.37590        5.84150        2.78470
O          4.31800        6.52350        3.12960
N          2.10970        6.38930        2.58150
H          2.00880        7.39880        2.71860
C          0.97100        5.64340        2.17180
O         -0.05460        6.25730        1.99810
C          1.19260        4.20920        2.01380
C          2.41680        3.66700        2.22120
C          0.01100        3.40110        1.63100
C          5.01680        2.57550        3.34590
C          5.18150        1.49260        2.26750
H          6.01690        0.79380        2.47840
O          3.95540        0.77880        2.31900
P          4.41520       -1.72800        1.33290
O          4.76400       -2.26860        2.64120
O          5.70290       -1.71810        0.38430
O          3.30240       -2.51930        0.49480
H         -0.54090       -0.00360       -0.94380
H          1.94100       -0.01230       -0.94340
H          1.92460       -0.00810        3.37380
H         -0.55520       -0.01760        3.35640
H         -1.78800       -0.01000        1.20240
H          4.62200        2.00050       -1.12470
H          3.32830        2.36480        0.07160
H          2.60650        2.58520        2.11660
H          0.28100        2.45490        1.13970
H         -0.64880        3.95130        0.93790
H         -0.60410        3.15090        2.51070
H          4.14610        2.35970        3.99890
H          5.88690        2.60480        4.02450
H          5.49730       -1.19690       -0.47440
H          3.48290       -3.52190        0.55060
