47
rmsd217.gzmat
C          0.00000        0.00000        0.00000
C          1.39300        0.00000        0.00000
C          2.08120        0.00000        1.21400
C          1.38530        0.00650        2.42430
C         -0.00810        0.00270        2.41560
C         -0.70020       -0.00380        1.20570
C          3.59710       -0.02030        1.21330
O          4.13600        0.39730       -0.01600
C          4.35940        1.79360       -0.11300
C          5.43090        2.18710        0.90890
H          6.45880        2.03450        0.51590
O          5.34760        3.58610        1.13650
C          4.97430        3.89060        2.46700
H          5.70980        4.67960        2.78660
N          3.62320        4.47900        2.42790
C          3.54870        5.89400        2.44870
O          4.49950        6.57060        2.77950
N          2.32090        6.46840        2.11990
H          2.25900        7.49000        2.15150
C          1.17430        5.73090        1.71850
O          0.18990        6.36300        1.41870
C          1.33670        4.27950        1.72540
C          2.52240        3.71330        2.05450
C          0.13880        3.49040        1.35440
C          5.04990        2.59510        3.28910
C          5.20580        1.46780        2.25500
H          6.01310        0.75210        2.51490
O          3.95680        0.79440        2.29910
P          4.40750       -1.74060        1.37910
O          4.91950       -2.16600        2.67720
O          5.56250       -1.85220        0.27940
O          3.18940       -2.58620        0.77220
H         -0.54140       -0.00400       -0.94380
H          1.94030       -0.00970       -0.94360
H          1.92360        0.00730        3.37420
H         -0.55530        0.00010        3.35620
H         -1.78840       -0.01400        1.20200
H          4.70160        1.91180       -1.15710
H          3.41750        2.35200        0.02440
H          2.66610        2.61940        2.07230
H          0.31580        2.40510        1.36270
H         -0.21790        3.75760        0.34540
H         -0.70130        3.69100        2.04040
H          4.15770        2.43260        3.92690
H          5.90540        2.61970        3.98650
H          5.26820       -1.39050       -0.58750
H          3.36840       -3.58250        0.90490
