47
rmsd222.gzmat
C          0.00000        0.00000        0.00000
C          1.39350        0.00000        0.00000
C          2.08180        0.00000        1.21450
C          1.38640       -0.00460        2.42430
C         -0.00640       -0.00860        2.41600
C         -0.69930       -0.00230        1.20580
C          3.59730        0.01950        1.22630
O          4.12670       -0.43800        2.44530
C          4.30210       -1.84330        2.51040
C          5.37450       -2.24160        1.49130
H          6.40050       -2.15030        1.90790
O          5.23420       -3.62560        1.20580
C          4.94400       -3.86390       -0.15880
H          5.69450       -4.63970       -0.47360
N          3.59050       -4.44200       -0.22660
C          3.50190       -5.84270       -0.41470
O          4.46480       -6.49440       -0.76120
N          2.24850       -6.42600       -0.23150
H          2.17460       -7.43530       -0.38660
C          1.08790       -5.71590        0.18100
O          0.07490       -6.35670        0.32890
C          1.27300       -4.28000        0.37140
C          2.48380       -3.70320        0.18120
C          0.06920       -3.51890        0.78030
C          5.06610       -2.53250       -0.91610
C          5.20630       -1.45760        0.17310
H          6.03370       -0.74550       -0.02520
O          3.96940       -0.76150        0.11900
P          4.40930        1.74320        1.12130
O          4.86640        2.24230       -0.17050
O          5.61100        1.78550        2.17580
O          3.22300        2.55260        1.83200
H         -0.54120        0.00660       -0.94430
H          1.93850        0.00880       -0.94590
H          1.92830        0.00710        3.37110
H         -0.55310       -0.00810        3.35650
H         -1.78740        0.00590        1.20360
H          4.62470       -1.99910        3.55560
H          3.34460       -2.36710        2.34550
H          2.64840       -2.62020        0.30990
H          0.26420       -2.44660        0.92630
H         -0.34740       -3.90940        1.72430
H         -0.73470       -3.60870        0.03010
H          4.19310       -2.32700       -1.56940
H          5.93840       -2.53900       -1.59260
H          5.34520        1.28320        3.02950
H          3.40580        3.55450        1.76320
