rmsd214.gzmat
 OpenBabel08211713423D

 47 50  0  0  1  0  0  0  0  0999 V2000
    0.0000    0.0000    0.0000 C   0  0  0  0  0  0  0  0  0  0  0  0
    1.3929    0.0000    0.0000 C   0  0  0  0  0  0  0  0  0  0  0  0
    2.0810    0.0000    1.2142 C   0  0  0  0  0  0  0  0  0  0  0  0
    1.3850   -0.0050    2.4245 C   0  0  0  0  0  0  0  0  0  0  0  0
   -0.0084   -0.0073    2.4158 C   0  0  0  0  0  0  0  0  0  0  0  0
   -0.7003   -0.0059    1.2057 C   0  0  0  0  0  0  0  0  0  0  0  0
    3.5966   -0.0060    1.2147 C   0  0  1  0  0  0  0  0  0  0  0  0
    4.1355    0.4373   -0.0054 O   0  0  0  0  0  0  0  0  0  0  0  0
    4.3315    1.8389   -0.0845 C   0  0  0  0  0  0  0  0  0  0  0  0
    5.3948    2.2370    0.9440 C   0  0  1  0  0  0  0  0  0  0  0  0
    6.4254    2.1137    0.5476 H   0  0  0  0  0  0  0  0  0  0  0  0
    5.2843    3.6294    1.1976 O   0  0  0  0  0  0  0  0  0  0  0  0
    4.9237    3.9025    2.5387 C   0  0  1  0  0  0  0  0  0  0  0  0
    5.6547    4.6911    2.8687 H   0  0  0  0  0  0  0  0  0  0  0  0
    3.5667    4.4778    2.5238 N   0  0  0  0  0  0  0  0  0  0  0  0
    3.4752    5.8898    2.5958 C   0  0  0  0  0  0  0  0  0  0  0  0
    4.4209    6.5663    2.9412 O   0  0  0  0  0  0  0  0  0  0  0  0
    2.2364    6.4592    2.3015 N   0  0  0  0  0  0  0  0  0  0  0  0
    2.1606    7.4775    2.3744 H   0  0  0  0  0  0  0  0  0  0  0  0
    1.0965    5.7224    1.8802 C   0  0  0  0  0  0  0  0  0  0  0  0
    0.0983    6.3511    1.6214 O   0  0  0  0  0  0  0  0  0  0  0  0
    1.2817    4.2752    1.8180 C   0  0  0  0  0  0  0  0  0  0  0  0
    2.4757    3.7125    2.1218 C   0  0  0  0  0  0  0  0  0  0  0  0
    0.0969    3.4866    1.4070 C   0  0  0  0  0  0  0  0  0  0  0  0
    5.0176    2.5915    3.3337 C   0  0  0  0  0  0  0  0  0  0  0  0
    5.1863    1.4878    2.2767 C   0  0  1  0  0  0  0  0  0  0  0  0
    6.0066    0.7805    2.5174 H   0  0  0  0  0  0  0  0  0  0  0  0
    3.9487    0.7934    2.3151 O   0  0  0  0  0  0  0  0  0  0  0  0
    4.4185   -1.7227    1.3528 P   0  0  0  0  0  0  0  0  0  0  0  0
    4.7952   -2.2319    2.6662 O   0  0  0  0  0  0  0  0  0  0  0  0
    5.6866   -1.7354    0.3779 O   0  0  0  0  0  0  0  0  0  0  0  0
    3.2901   -2.5348    0.5563 O   0  0  0  0  0  0  0  0  0  0  0  0
   -0.5416   -0.0010   -0.9435 H   0  0  0  0  0  0  0  0  0  0  0  0
    1.9415   -0.0110   -0.9430 H   0  0  0  0  0  0  0  0  0  0  0  0
    1.9236   -0.0152    3.3742 H   0  0  0  0  0  0  0  0  0  0  0  0
   -0.5555   -0.0151    3.3563 H   0  0  0  0  0  0  0  0  0  0  0  0
   -1.7884   -0.0135    1.2021 H   0  0  0  0  0  0  0  0  0  0  0  0
    4.6716    1.9763   -1.1269 H   0  0  0  0  0  0  0  0  0  0  0  0
    3.3797    2.3794    0.0579 H   0  0  0  0  0  0  0  0  0  0  0  0
    2.6358    2.6214    2.0945 H   0  0  0  0  0  0  0  0  0  0  0  0
    0.3134    2.4161    1.2801 H   0  0  0  0  0  0  0  0  0  0  0  0
   -0.3153    3.8547    0.4520 H   0  0  0  0  0  0  0  0  0  0  0  0
   -0.7174    3.5723    2.1454 H   0  0  0  0  0  0  0  0  0  0  0  0
    4.1273    2.4068    3.9688 H   0  0  0  0  0  0  0  0  0  0  0  0
    5.8717    2.6109    4.0331 H   0  0  0  0  0  0  0  0  0  0  0  0
    5.4637   -1.2321   -0.4878 H   0  0  0  0  0  0  0  0  0  0  0  0
    3.4776   -3.5359    0.6259 H   0  0  0  0  0  0  0  0  0  0  0  0
  1  6  1  0  0  0  0
  2  1  2  0  0  0  0
  2  3  1  0  0  0  0
  3  7  1  0  0  0  0
  3  4  2  0  0  0  0
  4 35  1  0  0  0  0
  5  4  1  0  0  0  0
  5 36  1  0  0  0  0
  6  5  2  0  0  0  0
  7 29  1  1  0  0  0
  7 28  1  0  0  0  0
  8  7  1  0  0  0  0
  9  8  1  0  0  0  0
  9 39  1  0  0  0  0
  9 10  1  0  0  0  0
 10 12  1  0  0  0  0
 10 26  1  0  0  0  0
 10 11  1  6  0  0  0
 12 13  1  0  0  0  0
 13 14  1  1  0  0  0
 13 25  1  0  0  0  0
 15 13  1  0  0  0  0
 15 16  1  0  0  0  0
 16 17  2  0  0  0  0
 18 19  1  0  0  0  0
 18 16  1  0  0  0  0
 20 18  1  0  0  0  0
 21 20  2  0  0  0  0
 22 20  1  0  0  0  0
 22 23  2  0  0  0  0
 23 15  1  0  0  0  0
 24 22  1  0  0  0  0
 24 43  1  0  0  0  0
 25 44  1  0  0  0  0
 25 45  1  0  0  0  0
 26 28  1  0  0  0  0
 26 27  1  1  0  0  0
 26 25  1  0  0  0  0
 29 30  2  0  0  0  0
 31 29  1  0  0  0  0
 32 47  1  0  0  0  0
 32 29  1  0  0  0  0
 33  1  1  0  0  0  0
 34  2  1  0  0  0  0
 37  6  1  0  0  0  0
 38  9  1  0  0  0  0
 40 23  1  0  0  0  0
 41 24  1  0  0  0  0
 42 24  1  0  0  0  0
 46 31  1  0  0  0  0
M  END
$$$$
