rmsd250.gzmat
 OpenBabel08211713423D

 47 50  0  0  1  0  0  0  0  0999 V2000
    0.0000    0.0000    0.0000 C   0  0  0  0  0  0  0  0  0  0  0  0
    1.3929    0.0000    0.0000 C   0  0  0  0  0  0  0  0  0  0  0  0
    2.0803    0.0000    1.2145 C   0  0  0  0  0  0  0  0  0  0  0  0
    1.3840   -0.0082    2.4244 C   0  0  0  0  0  0  0  0  0  0  0  0
   -0.0094   -0.0111    2.4159 C   0  0  0  0  0  0  0  0  0  0  0  0
   -0.7006   -0.0082    1.2055 C   0  0  0  0  0  0  0  0  0  0  0  0
    3.5954    0.0032    1.2155 C   0  0  1  0  0  0  0  0  0  0  0  0
    4.1332    0.4806    0.0076 O   0  0  0  0  0  0  0  0  0  0  0  0
    4.3040    1.8867   -0.0392 C   0  0  0  0  0  0  0  0  0  0  0  0
    5.3664    2.2731    0.9946 C   0  0  1  0  0  0  0  0  0  0  0  0
    6.3962    2.1648    0.5917 H   0  0  0  0  0  0  0  0  0  0  0  0
    5.2485    3.6588    1.2766 O   0  0  0  0  0  0  0  0  0  0  0  0
    4.8747    3.9022    2.6198 C   0  0  1  0  0  0  0  0  0  0  0  0
    5.5981    4.6882    2.9718 H   0  0  0  0  0  0  0  0  0  0  0  0
    3.5147    4.4705    2.6031 N   0  0  0  0  0  0  0  0  0  0  0  0
    3.4183    5.8818    2.6909 C   0  0  0  0  0  0  0  0  0  0  0  0
    4.3557    6.5552    3.0641 O   0  0  0  0  0  0  0  0  0  0  0  0
    2.1851    6.4527    2.3774 N   0  0  0  0  0  0  0  0  0  0  0  0
    2.1060    7.4703    2.4587 H   0  0  0  0  0  0  0  0  0  0  0  0
    1.0557    5.7186    1.9246 C   0  0  0  0  0  0  0  0  0  0  0  0
    0.0632    6.3491    1.6489 O   0  0  0  0  0  0  0  0  0  0  0  0
    1.2421    4.2714    1.8575 C   0  0  0  0  0  0  0  0  0  0  0  0
    2.4317    3.7073    2.1752 C   0  0  0  0  0  0  0  0  0  0  0  0
    0.0618    3.4866    1.4264 C   0  0  0  0  0  0  0  0  0  0  0  0
    4.9715    2.5763    3.3890 C   0  0  0  0  0  0  0  0  0  0  0  0
    5.1653    1.4956    2.3124 C   0  0  1  0  0  0  0  0  0  0  0  0
    5.9976    0.7992    2.5430 H   0  0  0  0  0  0  0  0  0  0  0  0
    3.9422    0.7764    2.3367 O   0  0  0  0  0  0  0  0  0  0  0  0
    4.4343   -1.7073    1.2990 P   0  0  0  0  0  0  0  0  0  0  0  0
    4.6880   -2.3322    2.5914 O   0  0  0  0  0  0  0  0  0  0  0  0
    5.7963   -1.6010    0.4653 O   0  0  0  0  0  0  0  0  0  0  0  0
    3.4158   -2.4585    0.3163 O   0  0  0  0  0  0  0  0  0  0  0  0
   -0.5413    0.0013   -0.9433 H   0  0  0  0  0  0  0  0  0  0  0  0
    1.9423   -0.0115   -0.9428 H   0  0  0  0  0  0  0  0  0  0  0  0
    1.9229   -0.0192    3.3737 H   0  0  0  0  0  0  0  0  0  0  0  0
   -0.5562   -0.0167    3.3569 H   0  0  0  0  0  0  0  0  0  0  0  0
   -1.7889   -0.0156    1.2005 H   0  0  0  0  0  0  0  0  0  0  0  0
    4.6360    2.0567   -1.0794 H   0  0  0  0  0  0  0  0  0  0  0  0
    3.3443    2.4074    0.1206 H   0  0  0  0  0  0  0  0  0  0  0  0
    2.5947    2.6167    2.1402 H   0  0  0  0  0  0  0  0  0  0  0  0
    0.2420    2.4021    1.4212 H   0  0  0  0  0  0  0  0  0  0  0  0
   -0.2567    3.7710    0.4093 H   0  0  0  0  0  0  0  0  0  0  0  0
   -0.8044    3.6748    2.0835 H   0  0  0  0  0  0  0  0  0  0  0  0
    4.0750    2.3680    4.0078 H   0  0  0  0  0  0  0  0  0  0  0  0
    5.8159    2.5917    4.0999 H   0  0  0  0  0  0  0  0  0  0  0  0
    5.6360   -1.0521   -0.3866 H   0  0  0  0  0  0  0  0  0  0  0  0
    3.6061   -3.4611    0.3303 H   0  0  0  0  0  0  0  0  0  0  0  0
  1  6  1  0  0  0  0
  2  1  2  0  0  0  0
  2  3  1  0  0  0  0
  3  7  1  0  0  0  0
  3  4  2  0  0  0  0
  4 35  1  0  0  0  0
  5  4  1  0  0  0  0
  5 36  1  0  0  0  0
  6  5  2  0  0  0  0
  7 29  1  1  0  0  0
  7 28  1  0  0  0  0
  8  7  1  0  0  0  0
  9  8  1  0  0  0  0
  9 39  1  0  0  0  0
  9 10  1  0  0  0  0
 10 12  1  0  0  0  0
 10 26  1  0  0  0  0
 10 11  1  6  0  0  0
 12 13  1  0  0  0  0
 13 14  1  1  0  0  0
 13 25  1  0  0  0  0
 15 13  1  0  0  0  0
 15 16  1  0  0  0  0
 16 17  2  0  0  0  0
 18 19  1  0  0  0  0
 18 16  1  0  0  0  0
 20 18  1  0  0  0  0
 21 20  2  0  0  0  0
 22 20  1  0  0  0  0
 22 23  2  0  0  0  0
 23 15  1  0  0  0  0
 24 22  1  0  0  0  0
 24 43  1  0  0  0  0
 25 44  1  0  0  0  0
 25 45  1  0  0  0  0
 26 28  1  0  0  0  0
 26 27  1  1  0  0  0
 26 25  1  0  0  0  0
 29 30  2  0  0  0  0
 31 29  1  0  0  0  0
 32 47  1  0  0  0  0
 32 29  1  0  0  0  0
 33  1  1  0  0  0  0
 34  2  1  0  0  0  0
 37  6  1  0  0  0  0
 38  9  1  0  0  0  0
 40 23  1  0  0  0  0
 41 24  1  0  0  0  0
 42 24  1  0  0  0  0
 46 31  1  0  0  0  0
M  END
$$$$
