rmsd83.gzmat
 OpenBabel08211713423D

 47 50  0  0  1  0  0  0  0  0999 V2000
    0.0000    0.0000    0.0000 C   0  0  0  0  0  0  0  0  0  0  0  0
    1.3928    0.0000    0.0000 C   0  0  0  0  0  0  0  0  0  0  0  0
    2.0809    0.0000    1.2142 C   0  0  0  0  0  0  0  0  0  0  0  0
    1.3854   -0.0027    2.4246 C   0  0  0  0  0  0  0  0  0  0  0  0
   -0.0080   -0.0076    2.4159 C   0  0  0  0  0  0  0  0  0  0  0  0
   -0.6998   -0.0057    1.2058 C   0  0  0  0  0  0  0  0  0  0  0  0
    3.5961   -0.0097    1.2124 C   0  0  1  0  0  0  0  0  0  0  0  0
    4.1342    0.4431   -0.0043 O   0  0  0  0  0  0  0  0  0  0  0  0
    4.2927    1.8498   -0.0807 C   0  0  0  0  0  0  0  0  0  0  0  0
    5.3510    2.2687    0.9444 C   0  0  1  0  0  0  0  0  0  0  0  0
    6.3814    2.1860    0.5372 H   0  0  0  0  0  0  0  0  0  0  0  0
    5.1911    3.6528    1.2182 O   0  0  0  0  0  0  0  0  0  0  0  0
    4.8719    3.8968    2.5750 C   0  0  1  0  0  0  0  0  0  0  0  0
    5.5971    4.6953    2.8934 H   0  0  0  0  0  0  0  0  0  0  0  0
    3.5030    4.4410    2.6178 N   0  0  0  0  0  0  0  0  0  0  0  0
    3.3759    5.8415    2.7847 C   0  0  0  0  0  0  0  0  0  0  0  0
    4.3180    6.5235    3.1296 O   0  0  0  0  0  0  0  0  0  0  0  0
    2.1097    6.3893    2.5815 N   0  0  0  0  0  0  0  0  0  0  0  0
    2.0088    7.3988    2.7186 H   0  0  0  0  0  0  0  0  0  0  0  0
    0.9710    5.6434    2.1718 C   0  0  0  0  0  0  0  0  0  0  0  0
   -0.0546    6.2573    1.9981 O   0  0  0  0  0  0  0  0  0  0  0  0
    1.1926    4.2092    2.0138 C   0  0  0  0  0  0  0  0  0  0  0  0
    2.4168    3.6670    2.2212 C   0  0  0  0  0  0  0  0  0  0  0  0
    0.0110    3.4011    1.6310 C   0  0  0  0  0  0  0  0  0  0  0  0
    5.0168    2.5755    3.3459 C   0  0  0  0  0  0  0  0  0  0  0  0
    5.1815    1.4926    2.2675 C   0  0  1  0  0  0  0  0  0  0  0  0
    6.0169    0.7938    2.4784 H   0  0  0  0  0  0  0  0  0  0  0  0
    3.9554    0.7788    2.3190 O   0  0  0  0  0  0  0  0  0  0  0  0
    4.4152   -1.7280    1.3329 P   0  0  0  0  0  0  0  0  0  0  0  0
    4.7640   -2.2686    2.6412 O   0  0  0  0  0  0  0  0  0  0  0  0
    5.7029   -1.7181    0.3843 O   0  0  0  0  0  0  0  0  0  0  0  0
    3.3024   -2.5193    0.4948 O   0  0  0  0  0  0  0  0  0  0  0  0
   -0.5409   -0.0036   -0.9438 H   0  0  0  0  0  0  0  0  0  0  0  0
    1.9410   -0.0123   -0.9434 H   0  0  0  0  0  0  0  0  0  0  0  0
    1.9246   -0.0081    3.3738 H   0  0  0  0  0  0  0  0  0  0  0  0
   -0.5552   -0.0176    3.3564 H   0  0  0  0  0  0  0  0  0  0  0  0
   -1.7880   -0.0100    1.2024 H   0  0  0  0  0  0  0  0  0  0  0  0
    4.6220    2.0005   -1.1247 H   0  0  0  0  0  0  0  0  0  0  0  0
    3.3283    2.3648    0.0716 H   0  0  0  0  0  0  0  0  0  0  0  0
    2.6065    2.5852    2.1166 H   0  0  0  0  0  0  0  0  0  0  0  0
    0.2810    2.4549    1.1397 H   0  0  0  0  0  0  0  0  0  0  0  0
   -0.6488    3.9513    0.9379 H   0  0  0  0  0  0  0  0  0  0  0  0
   -0.6041    3.1509    2.5107 H   0  0  0  0  0  0  0  0  0  0  0  0
    4.1461    2.3597    3.9989 H   0  0  0  0  0  0  0  0  0  0  0  0
    5.8869    2.6048    4.0245 H   0  0  0  0  0  0  0  0  0  0  0  0
    5.4973   -1.1969   -0.4744 H   0  0  0  0  0  0  0  0  0  0  0  0
    3.4829   -3.5219    0.5506 H   0  0  0  0  0  0  0  0  0  0  0  0
  1  6  1  0  0  0  0
  2  1  2  0  0  0  0
  2  3  1  0  0  0  0
  3  4  2  0  0  0  0
  4 35  1  0  0  0  0
  5  4  1  0  0  0  0
  5 36  1  0  0  0  0
  6  5  2  0  0  0  0
  7  3  1  0  0  0  0
  7 29  1  1  0  0  0
  7 28  1  0  0  0  0
  8  7  1  0  0  0  0
  9  8  1  0  0  0  0
  9 39  1  0  0  0  0
  9 10  1  0  0  0  0
 10 12  1  0  0  0  0
 10 26  1  0  0  0  0
 10 11  1  6  0  0  0
 12 13  1  0  0  0  0
 13 15  1  0  0  0  0
 13 14  1  1  0  0  0
 13 25  1  0  0  0  0
 15 16  1  0  0  0  0
 16 17  2  0  0  0  0
 18 19  1  0  0  0  0
 18 16  1  0  0  0  0
 20 18  1  0  0  0  0
 21 20  2  0  0  0  0
 22 20  1  0  0  0  0
 22 23  2  0  0  0  0
 23 15  1  0  0  0  0
 24 22  1  0  0  0  0
 24 43  1  0  0  0  0
 25 44  1  0  0  0  0
 25 45  1  0  0  0  0
 26 28  1  0  0  0  0
 26 27  1  1  0  0  0
 26 25  1  0  0  0  0
 29 30  2  0  0  0  0
 31 29  1  0  0  0  0
 32 47  1  0  0  0  0
 32 29  1  0  0  0  0
 33  1  1  0  0  0  0
 34  2  1  0  0  0  0
 37  6  1  0  0  0  0
 38  9  1  0  0  0  0
 40 23  1  0  0  0  0
 41 24  1  0  0  0  0
 42 24  1  0  0  0  0
 46 31  1  0  0  0  0
M  END
$$$$
