47
rmsd250.gzmat
C          0.00000        0.00000        0.00000
C          1.39290        0.00000        0.00000
C          2.08030        0.00000        1.21450
C          1.38400       -0.00820        2.42440
C         -0.00940       -0.01110        2.41590
C         -0.70060       -0.00820        1.20550
C          3.59540        0.00320        1.21550
O          4.13320        0.48060        0.00760
C          4.30400        1.88670       -0.03920
C          5.36640        2.27310        0.99460
H          6.39620        2.16480        0.59170
O          5.24850        3.65880        1.27660
C          4.87470        3.90220        2.61980
H          5.59810        4.68820        2.97180
N          3.51470        4.47050        2.60310
C          3.41830        5.88180        2.69090
O          4.35570        6.55520        3.06410
N          2.18510        6.45270        2.37740
H          2.10600        7.47030        2.45870
C          1.05570        5.71860        1.92460
O          0.06320        6.34910        1.64890
C          1.24210        4.27140        1.85750
C          2.43170        3.70730        2.17520
C          0.06180        3.48660        1.42640
C          4.97150        2.57630        3.38900
C          5.16530        1.49560        2.31240
H          5.99760        0.79920        2.54300
O          3.94220        0.77640        2.33670
P          4.43430       -1.70730        1.29900
O          4.68800       -2.33220        2.59140
O          5.79630       -1.60100        0.46530
O          3.41580       -2.45850        0.31630
H         -0.54130        0.00130       -0.94330
H          1.94230       -0.01150       -0.94280
H          1.92290       -0.01920        3.37370
H         -0.55620       -0.01670        3.35690
H         -1.78890       -0.01560        1.20050
H          4.63600        2.05670       -1.07940
H          3.34430        2.40740        0.12060
H          2.59470        2.61670        2.14020
H          0.24200        2.40210        1.42120
H         -0.25670        3.77100        0.40930
H         -0.80440        3.67480        2.08350
H          4.07500        2.36800        4.00780
H          5.81590        2.59170        4.09990
H          5.63600       -1.05210       -0.38660
H          3.60610       -3.46110        0.33030
