rmsd217.gzmat
 OpenBabel08211713423D

 47 50  0  0  1  0  0  0  0  0999 V2000
    0.0000    0.0000    0.0000 C   0  0  0  0  0  0  0  0  0  0  0  0
    1.3930    0.0000    0.0000 C   0  0  0  0  0  0  0  0  0  0  0  0
    2.0812    0.0000    1.2140 C   0  0  0  0  0  0  0  0  0  0  0  0
    1.3853    0.0065    2.4243 C   0  0  0  0  0  0  0  0  0  0  0  0
   -0.0081    0.0027    2.4156 C   0  0  0  0  0  0  0  0  0  0  0  0
   -0.7002   -0.0038    1.2057 C   0  0  0  0  0  0  0  0  0  0  0  0
    3.5971   -0.0203    1.2133 C   0  0  1  0  0  0  0  0  0  0  0  0
    4.1360    0.3973   -0.0160 O   0  0  0  0  0  0  0  0  0  0  0  0
    4.3594    1.7936   -0.1130 C   0  0  0  0  0  0  0  0  0  0  0  0
    5.4309    2.1871    0.9089 C   0  0  1  0  0  0  0  0  0  0  0  0
    6.4588    2.0345    0.5159 H   0  0  0  0  0  0  0  0  0  0  0  0
    5.3476    3.5861    1.1365 O   0  0  0  0  0  0  0  0  0  0  0  0
    4.9743    3.8906    2.4670 C   0  0  1  0  0  0  0  0  0  0  0  0
    5.7098    4.6796    2.7866 H   0  0  0  0  0  0  0  0  0  0  0  0
    3.6232    4.4790    2.4279 N   0  0  0  0  0  0  0  0  0  0  0  0
    3.5487    5.8940    2.4487 C   0  0  0  0  0  0  0  0  0  0  0  0
    4.4995    6.5706    2.7795 O   0  0  0  0  0  0  0  0  0  0  0  0
    2.3209    6.4684    2.1199 N   0  0  0  0  0  0  0  0  0  0  0  0
    2.2590    7.4900    2.1515 H   0  0  0  0  0  0  0  0  0  0  0  0
    1.1743    5.7309    1.7185 C   0  0  0  0  0  0  0  0  0  0  0  0
    0.1899    6.3630    1.4187 O   0  0  0  0  0  0  0  0  0  0  0  0
    1.3367    4.2795    1.7254 C   0  0  0  0  0  0  0  0  0  0  0  0
    2.5224    3.7133    2.0545 C   0  0  0  0  0  0  0  0  0  0  0  0
    0.1388    3.4904    1.3544 C   0  0  0  0  0  0  0  0  0  0  0  0
    5.0499    2.5951    3.2891 C   0  0  0  0  0  0  0  0  0  0  0  0
    5.2058    1.4678    2.2550 C   0  0  1  0  0  0  0  0  0  0  0  0
    6.0131    0.7521    2.5149 H   0  0  0  0  0  0  0  0  0  0  0  0
    3.9568    0.7944    2.2991 O   0  0  0  0  0  0  0  0  0  0  0  0
    4.4075   -1.7406    1.3791 P   0  0  0  0  0  0  0  0  0  0  0  0
    4.9195   -2.1660    2.6772 O   0  0  0  0  0  0  0  0  0  0  0  0
    5.5625   -1.8522    0.2794 O   0  0  0  0  0  0  0  0  0  0  0  0
    3.1894   -2.5862    0.7722 O   0  0  0  0  0  0  0  0  0  0  0  0
   -0.5414   -0.0040   -0.9438 H   0  0  0  0  0  0  0  0  0  0  0  0
    1.9403   -0.0097   -0.9436 H   0  0  0  0  0  0  0  0  0  0  0  0
    1.9236    0.0073    3.3742 H   0  0  0  0  0  0  0  0  0  0  0  0
   -0.5553    0.0001    3.3562 H   0  0  0  0  0  0  0  0  0  0  0  0
   -1.7884   -0.0140    1.2020 H   0  0  0  0  0  0  0  0  0  0  0  0
    4.7016    1.9118   -1.1571 H   0  0  0  0  0  0  0  0  0  0  0  0
    3.4175    2.3520    0.0244 H   0  0  0  0  0  0  0  0  0  0  0  0
    2.6661    2.6194    2.0723 H   0  0  0  0  0  0  0  0  0  0  0  0
    0.3158    2.4051    1.3627 H   0  0  0  0  0  0  0  0  0  0  0  0
   -0.2179    3.7576    0.3454 H   0  0  0  0  0  0  0  0  0  0  0  0
   -0.7013    3.6910    2.0404 H   0  0  0  0  0  0  0  0  0  0  0  0
    4.1577    2.4326    3.9269 H   0  0  0  0  0  0  0  0  0  0  0  0
    5.9054    2.6197    3.9865 H   0  0  0  0  0  0  0  0  0  0  0  0
    5.2682   -1.3905   -0.5875 H   0  0  0  0  0  0  0  0  0  0  0  0
    3.3684   -3.5825    0.9049 H   0  0  0  0  0  0  0  0  0  0  0  0
  1  6  1  0  0  0  0
  2  1  2  0  0  0  0
  2  3  1  0  0  0  0
  3  4  2  0  0  0  0
  4 35  1  0  0  0  0
  5  4  1  0  0  0  0
  5 36  1  0  0  0  0
  6  5  2  0  0  0  0
  7  3  1  0  0  0  0
  7 29  1  1  0  0  0
  7 28  1  0  0  0  0
  8  7  1  0  0  0  0
  9  8  1  0  0  0  0
  9 39  1  0  0  0  0
  9 10  1  0  0  0  0
 10 12  1  0  0  0  0
 10 26  1  0  0  0  0
 10 11  1  6  0  0  0
 12 13  1  0  0  0  0
 13 14  1  1  0  0  0
 13 25  1  0  0  0  0
 15 16  1  0  0  0  0
 15 13  1  0  0  0  0
 16 17  2  0  0  0  0
 18 19  1  0  0  0  0
 18 16  1  0  0  0  0
 20 22  1  0  0  0  0
 20 18  1  0  0  0  0
 21 20  2  0  0  0  0
 22 23  2  0  0  0  0
 23 40  1  0  0  0  0
 23 15  1  0  0  0  0
 24 41  1  0  0  0  0
 24 22  1  0  0  0  0
 24 43  1  0  0  0  0
 25 44  1  0  0  0  0
 25 45  1  0  0  0  0
 26 28  1  0  0  0  0
 26 27  1  1  0  0  0
 26 25  1  0  0  0  0
 29 30  2  0  0  0  0
 31 29  1  0  0  0  0
 32 47  1  0  0  0  0
 32 29  1  0  0  0  0
 33  1  1  0  0  0  0
 34  2  1  0  0  0  0
 37  6  1  0  0  0  0
 38  9  1  0  0  0  0
 42 24  1  0  0  0  0
 46 31  1  0  0  0  0
M  END
$$$$
