rmsd210.gzmat
 OpenBabel08211713423D

 47 50  0  0  1  0  0  0  0  0999 V2000
    0.0000    0.0000    0.0000 C   0  0  0  0  0  0  0  0  0  0  0  0
    1.3930    0.0000    0.0000 C   0  0  0  0  0  0  0  0  0  0  0  0
    2.0809    0.0000    1.2144 C   0  0  0  0  0  0  0  0  0  0  0  0
    1.3851    0.0067    2.4250 C   0  0  0  0  0  0  0  0  0  0  0  0
   -0.0083    0.0086    2.4162 C   0  0  0  0  0  0  0  0  0  0  0  0
   -0.7001    0.0021    1.2058 C   0  0  0  0  0  0  0  0  0  0  0  0
    3.5969   -0.0207    1.2137 C   0  0  1  0  0  0  0  0  0  0  0  0
    4.1351    0.4122   -0.0103 O   0  0  0  0  0  0  0  0  0  0  0  0
    4.3515    1.8104   -0.0926 C   0  0  0  0  0  0  0  0  0  0  0  0
    5.4244    2.1942    0.9313 C   0  0  1  0  0  0  0  0  0  0  0  0
    6.4518    2.0489    0.5341 H   0  0  0  0  0  0  0  0  0  0  0  0
    5.3398    3.5903    1.1742 O   0  0  0  0  0  0  0  0  0  0  0  0
    4.9702    3.8802    2.5088 C   0  0  1  0  0  0  0  0  0  0  0  0
    5.7076    4.6640    2.8353 H   0  0  0  0  0  0  0  0  0  0  0  0
    3.6198    4.4704    2.4786 N   0  0  0  0  0  0  0  0  0  0  0  0
    3.5467    5.8853    2.5088 C   0  0  0  0  0  0  0  0  0  0  0  0
    4.4993    6.5592    2.8399 O   0  0  0  0  0  0  0  0  0  0  0  0
    2.3178    6.4630    2.1889 N   0  0  0  0  0  0  0  0  0  0  0  0
    2.2566    7.4842    2.2273 H   0  0  0  0  0  0  0  0  0  0  0  0
    1.1679    5.7288    1.7909 C   0  0  0  0  0  0  0  0  0  0  0  0
    0.1781    6.3620    1.5113 O   0  0  0  0  0  0  0  0  0  0  0  0
    1.3322    4.2778    1.7783 C   0  0  0  0  0  0  0  0  0  0  0  0
    2.5182    3.7082    2.1001 C   0  0  0  0  0  0  0  0  0  0  0  0
    0.1352    3.4957    1.3906 C   0  0  0  0  0  0  0  0  0  0  0  0
    5.0451    2.5755    3.3161 C   0  0  0  0  0  0  0  0  0  0  0  0
    5.2030    1.4596    2.2698 C   0  0  1  0  0  0  0  0  0  0  0  0
    6.0132    0.7442    2.5209 H   0  0  0  0  0  0  0  0  0  0  0  0
    3.9576    0.7794    2.3100 O   0  0  0  0  0  0  0  0  0  0  0  0
    4.4013   -1.7466    1.3517 P   0  0  0  0  0  0  0  0  0  0  0  0
    4.8790   -2.2131    2.6486 O   0  0  0  0  0  0  0  0  0  0  0  0
    5.5809   -1.8317    0.2755 O   0  0  0  0  0  0  0  0  0  0  0  0
    3.1923   -2.5632    0.6884 O   0  0  0  0  0  0  0  0  0  0  0  0
   -0.5410   -0.0092   -0.9439 H   0  0  0  0  0  0  0  0  0  0  0  0
    1.9406   -0.0099   -0.9435 H   0  0  0  0  0  0  0  0  0  0  0  0
    1.9237    0.0033    3.3746 H   0  0  0  0  0  0  0  0  0  0  0  0
   -0.5559    0.0095    3.3567 H   0  0  0  0  0  0  0  0  0  0  0  0
   -1.7882   -0.0038    1.2022 H   0  0  0  0  0  0  0  0  0  0  0  0
    4.6900    1.9413   -1.1365 H   0  0  0  0  0  0  0  0  0  0  0  0
    3.4084    2.3647    0.0533 H   0  0  0  0  0  0  0  0  0  0  0  0
    2.6624    2.6144    2.1072 H   0  0  0  0  0  0  0  0  0  0  0  0
    0.2725    2.4108    1.5040 H   0  0  0  0  0  0  0  0  0  0  0  0
   -0.1395    3.6855    0.3393 H   0  0  0  0  0  0  0  0  0  0  0  0
   -0.7437    3.7815    1.9933 H   0  0  0  0  0  0  0  0  0  0  0  0
    4.1523    2.4074    3.9516 H   0  0  0  0  0  0  0  0  0  0  0  0
    5.8988    2.5925    4.0160 H   0  0  0  0  0  0  0  0  0  0  0  0
    5.3059   -1.3471   -0.5855 H   0  0  0  0  0  0  0  0  0  0  0  0
    3.3603   -3.5645    0.7889 H   0  0  0  0  0  0  0  0  0  0  0  0
  1  6  1  0  0  0  0
  2  1  2  0  0  0  0
  2  3  1  0  0  0  0
  3  4  2  0  0  0  0
  4 35  1  0  0  0  0
  5  4  1  0  0  0  0
  5 36  1  0  0  0  0
  6  5  2  0  0  0  0
  7  3  1  0  0  0  0
  7 29  1  1  0  0  0
  7 28  1  0  0  0  0
  8  7  1  0  0  0  0
  9  8  1  0  0  0  0
  9 39  1  0  0  0  0
  9 10  1  0  0  0  0
 10 12  1  0  0  0  0
 10 26  1  0  0  0  0
 10 11  1  6  0  0  0
 12 13  1  0  0  0  0
 13 14  1  1  0  0  0
 13 25  1  0  0  0  0
 15 16  1  0  0  0  0
 15 13  1  0  0  0  0
 16 17  2  0  0  0  0
 18 19  1  0  0  0  0
 18 16  1  0  0  0  0
 20 18  1  0  0  0  0
 21 20  2  0  0  0  0
 22 20  1  0  0  0  0
 22 23  2  0  0  0  0
 23 40  1  0  0  0  0
 23 15  1  0  0  0  0
 24 41  1  0  0  0  0
 24 22  1  0  0  0  0
 24 43  1  0  0  0  0
 25 44  1  0  0  0  0
 25 45  1  0  0  0  0
 26 28  1  0  0  0  0
 26 27  1  1  0  0  0
 26 25  1  0  0  0  0
 29 30  2  0  0  0  0
 31 29  1  0  0  0  0
 32 47  1  0  0  0  0
 32 29  1  0  0  0  0
 33  1  1  0  0  0  0
 34  2  1  0  0  0  0
 37  6  1  0  0  0  0
 38  9  1  0  0  0  0
 42 24  1  0  0  0  0
 46 31  1  0  0  0  0
M  END
$$$$
