47

C         -0.11950        0.29080        0.32770
C          1.26640        0.15350        0.23420
C          2.04050        0.07680        1.40190
C          1.42630        0.15810        2.65540
C          0.03720        0.28370        2.74320
C         -0.73710        0.34890        1.58150
C          3.54420       -0.03760        1.27370
O          4.20040       -0.31400        2.50110
C          4.37710       -1.71190        2.73830
C          5.36540       -2.27230        1.70630
H          6.40630       -2.10380        2.03600
O          5.15100       -3.66190        1.52970
C          4.92550       -4.01650        0.17280
H          5.60830       -4.83060       -0.09660
N          3.59650       -4.60080        0.01310
C          3.52770       -5.98200       -0.21630
O          4.50090       -6.67900       -0.42190
N          2.24020       -6.48240       -0.19720
H          2.16390       -7.48170       -0.36900
C          1.03660       -5.80530        0.05520
O         -0.02290       -6.40210        0.05560
C          1.20590       -4.36900        0.29810
C          2.45720       -3.85360        0.26190
C         -0.02100       -3.55280        0.56950
C          5.19580       -2.74140       -0.64990
C          5.12030       -1.58850        0.34350
H          5.85320       -0.79540        0.13510
O          3.80210       -1.04160        0.31920
P          4.26080        1.60790        0.69870
O          4.10740        1.87050       -0.74940
O          5.77700        1.52940        1.25440
O          3.58690        2.69230        1.70350
H         -0.72080        0.34620       -0.58240
H          1.75890        0.11140       -0.73820
H          2.04260        0.12660        3.55450
H         -0.44140        0.33440        3.72380
H         -1.82260        0.44870        1.65250
H          4.74530       -1.80880        3.76730
H          3.41930       -2.24920        2.65590
H          2.63330       -2.78890        0.41310
H          0.23080       -2.50210        0.76500
H         -0.56910       -3.95590        1.43610
H         -0.71790       -3.59670       -0.28330
H          4.49600       -2.60290       -1.48380
H          6.21150       -2.79560       -1.06530
H          5.76820        1.05960        2.10820
H          2.79760        3.09420        1.31050
