46
rmsd159.gzmat
C          0.00000        0.00000        0.00000
C          1.39490        0.00000        0.00000
C          2.08690        0.00000        1.20970
C          1.38640       -0.01180        2.41430
C         -0.00780       -0.03080        2.41130
C         -0.70340       -0.02370        1.20480
C         -0.74290        0.03950       -1.30710
H         -0.10310       -0.23760       -2.18880
O         -1.75920       -0.92660       -1.34020
C         -1.34240        1.43460       -1.47710
O         -2.53480        1.64620       -1.44250
N         -0.47310        2.50850       -1.79480
C         -0.91230        3.86780       -1.41750
C          0.15540        4.85850       -1.76820
C          1.41160        4.47980       -2.01150
C          1.81640        3.04080       -1.88280
H          2.63870        2.88770       -1.11480
O          0.80650        2.24070       -1.27000
N          2.24850        2.47900       -3.14470
C          3.16320        1.41990       -3.22840
O          3.76120        0.99920       -2.27100
C          3.29070        0.99470       -4.67580
C          2.47720        2.02930       -5.47290
C          1.55890        2.70830       -4.41660
H          1.43040        3.80390       -4.59730
C          0.20690        1.99270       -4.45530
O         -0.00690        0.83320       -4.22600
O         -0.73410        2.86080       -4.89020
C         -2.06780        2.35880       -4.95190
H          1.95090        0.00280       -0.94050
H          3.17550        0.00760        1.20800
H          1.92720       -0.01060        3.35750
H         -0.55350       -0.05000        3.35180
H         -1.79160       -0.04060        1.20280
H         -2.59650       -0.57730       -0.95360
H         -1.17080        3.94500       -0.33420
H         -1.85440        4.07000       -1.98850
H         -0.16740        5.89690       -1.80710
H          2.20590        5.16560       -2.28950
H          4.34850        0.95030       -4.98520
H          2.88400       -0.03120       -4.79770
H          3.13500        2.77770       -5.94720
H          1.89810        1.56320       -6.28710
H         -2.62700        3.19720       -5.37950
H         -2.42040        2.11760       -3.94040
H         -2.11480        1.47260       -5.59250
