46
rmsd13.gzmat
C          0.00000        0.00000        0.00000
C          1.39540        0.00000        0.00000
C          2.08690        0.00000        1.20880
C          1.38620       -0.00320        2.41460
C         -0.00730       -0.00270        2.41220
C         -0.70310        0.00610        1.20470
C         -0.75510       -0.01430       -1.30040
H         -1.83230        0.28810       -1.19000
O         -0.25320        0.94550       -2.19080
C         -0.63650       -1.40660       -1.91770
O         -0.00310       -1.62970       -2.92550
N         -1.39610       -2.45960       -1.34810
C         -0.91560       -3.83890       -1.56960
C         -1.80510       -4.80410       -0.84730
C         -2.63390       -4.40590        0.12000
C         -2.65370       -2.97540        0.57110
H         -2.39520       -2.86710        1.67180
O         -1.57600       -2.21490        0.02710
N         -3.92990       -2.33630        0.32960
C         -4.39600       -1.26460        1.10360
O         -3.84430       -0.90270        2.11180
C         -5.68070       -0.74170        0.49780
C         -6.03240       -1.73760       -0.62060
C         -4.70590       -2.50120       -0.90170
H         -4.86930       -3.58640       -1.11430
C         -4.02420       -1.81360       -2.08680
O         -3.68580       -0.66320       -2.15740
O         -3.93810       -2.69020       -3.11240
C         -3.29400       -2.21180       -4.29210
H          1.94320        0.00380       -0.94040
H          3.17440        0.00300        1.21240
H          1.92790       -0.00220        3.35750
H         -0.55790       -0.00850        3.35140
H         -1.79520        0.01450        1.21030
H          0.53730        0.60700       -2.67280
H          0.14570       -3.97580       -1.25180
H         -0.94470       -4.01320       -2.67590
H         -1.72360       -5.84130       -1.16700
H         -3.30870       -5.07150        0.64890
H         -6.47320       -0.65380        1.25960
H         -5.51280        0.28090        0.09900
H         -6.82060       -2.43950       -0.29990
H         -6.41590       -1.22890       -1.52070
H         -3.43230       -3.03530       -5.00030
H         -2.22970       -2.03610       -4.08550
H         -3.76930       -1.29040       -4.64420
