46
rmsd73.gzmat
C          0.00000        0.00000        0.00000
C          1.39520        0.00000        0.00000
C          2.08700        0.00000        1.20890
C          1.38650       -0.00910        2.41440
C         -0.00720       -0.00800        2.41150
C         -0.70290        0.00400        1.20430
C         -0.75730       -0.01900       -1.29640
H         -1.83720        0.25950       -1.17840
O         -0.29140        0.94330       -2.20370
C         -0.60330       -1.40760       -1.92420
O          0.19840       -1.65130       -2.79700
N         -1.54960       -2.38320       -1.55020
C         -1.24890       -3.80670       -1.78430
C         -2.37650       -4.65100       -1.27100
C         -3.30770       -4.16380       -0.44750
C         -3.21900       -2.75370        0.05470
H         -3.18610       -2.69160        1.18700
O         -1.94760       -2.16540       -0.21850
N         -4.29750       -1.91610       -0.42650
C         -4.60240       -0.68070        0.15900
O         -4.10330       -0.30810        1.19090
C         -5.66130        0.01140       -0.67160
C         -6.08890       -1.02530       -1.72400
C         -4.95260       -2.08690       -1.72470
H         -5.34950       -3.13150       -1.81580
C         -4.02890       -1.83130       -2.91980
O         -3.78360       -2.62840       -3.78510
O         -3.60150       -0.55100       -2.92500
C         -2.76220       -0.17200       -4.01600
H          1.94440       -0.00430       -0.93990
H          3.17470        0.00480        1.21190
H          1.92850       -0.01580        3.35740
H         -0.55700       -0.01310        3.35090
H         -1.79650        0.01500        1.20820
H          0.59930        0.70230       -2.55110
H         -0.28190       -4.12170       -1.32530
H         -1.13660       -3.92570       -2.89580
H         -2.38090       -5.68170       -1.62370
H         -4.14840       -4.74200       -0.07860
H         -6.50000        0.35450       -0.04240
H         -5.22840        0.91870       -1.14180
H         -7.05280       -1.49190       -1.45910
H         -6.22710       -0.56970       -2.71860
H         -2.32790        0.77960       -3.67580
H         -3.37390       -0.04620       -4.91240
H         -1.97520       -0.91650       -4.19010
