46
rmsd217.gzmat
C          0.00000        0.00000        0.00000
C          1.39380        0.00000        0.00000
C          2.08660        0.00000        1.20970
C          1.38850        0.00460        2.41540
C         -0.00610        0.01220        2.41270
C         -0.70160        0.01350        1.20690
C         -0.75440        0.02630       -1.30060
H         -1.26290        1.01000       -1.44200
O          0.10300       -0.05150       -2.41180
C         -1.72270       -1.15950       -1.37580
O         -1.34160       -2.25410       -1.72080
N         -3.01790       -0.99560       -0.83540
C         -4.04680       -2.00130       -1.14910
C         -4.96050       -1.58450       -2.25790
C         -5.03590       -0.31590       -2.66060
C         -4.23550        0.75370       -1.98780
H         -4.89260        1.52310       -1.47850
O         -3.50120        0.29990       -0.83930
N         -3.33460        1.40670       -2.91510
C         -2.71410        0.81170       -4.02830
O         -3.07920       -0.23430       -4.49420
C         -1.59360        1.70680       -4.50360
C         -1.52580        2.87230       -3.50430
C         -2.77540        2.72700       -2.60050
H         -2.50670        2.81360       -1.51350
C         -3.88500        3.74330       -2.87960
O         -4.85330        3.90640       -2.18410
O         -3.66260        4.43220       -4.01840
C         -4.67970        5.35940       -4.39430
H          1.94290        0.00790       -0.94200
H          3.17470       -0.00360        1.21080
H          1.93070        0.00250        3.35820
H         -0.55260        0.01470        3.35360
H         -1.79360        0.01650        1.20880
H          0.42390       -0.98020       -2.53640
H         -4.63280       -2.17230       -0.21030
H         -3.53830       -2.97040       -1.39420
H         -5.54540       -2.38220       -2.71180
H         -5.65480        0.01550       -3.49170
H         -0.64410        1.12940       -4.52910
H         -1.78270        2.04620       -5.53820
H         -0.60160        2.81310       -2.89760
H         -1.48880        3.84830       -4.01660
H         -5.63090        4.83600       -4.54010
H         -4.30110        5.77080       -5.33630
H         -4.78400        6.13560       -3.62940
