rmsd217.gzmat
 OpenBabel08211713413D

 46 48  0  0  1  0  0  0  0  0999 V2000
    0.0000    0.0000    0.0000 C   0  0  0  0  0  0  0  0  0  0  0  0
    1.3938    0.0000    0.0000 C   0  0  0  0  0  0  0  0  0  0  0  0
    2.0866    0.0000    1.2097 C   0  0  0  0  0  0  0  0  0  0  0  0
    1.3885    0.0046    2.4154 C   0  0  0  0  0  0  0  0  0  0  0  0
   -0.0061    0.0122    2.4127 C   0  0  0  0  0  0  0  0  0  0  0  0
   -0.7016    0.0135    1.2069 C   0  0  0  0  0  0  0  0  0  0  0  0
   -0.7544    0.0263   -1.3006 C   0  0  1  0  0  0  0  0  0  0  0  0
   -1.2629    1.0100   -1.4420 H   0  0  0  0  0  0  0  0  0  0  0  0
    0.1030   -0.0515   -2.4118 O   0  0  0  0  0  0  0  0  0  0  0  0
   -1.7227   -1.1595   -1.3758 C   0  0  0  0  0  0  0  0  0  0  0  0
   -1.3416   -2.2541   -1.7208 O   0  0  0  0  0  0  0  0  0  0  0  0
   -3.0179   -0.9956   -0.8354 N   0  0  0  0  0  0  0  0  0  0  0  0
   -4.0468   -2.0013   -1.1491 C   0  0  0  0  0  0  0  0  0  0  0  0
   -4.9605   -1.5845   -2.2579 C   0  0  0  0  0  0  0  0  0  0  0  0
   -5.0359   -0.3159   -2.6606 C   0  0  0  0  0  0  0  0  0  0  0  0
   -4.2355    0.7537   -1.9878 C   0  0  1  0  0  0  0  0  0  0  0  0
   -4.8926    1.5231   -1.4785 H   0  0  0  0  0  0  0  0  0  0  0  0
   -3.5012    0.2999   -0.8393 O   0  0  0  0  0  0  0  0  0  0  0  0
   -3.3346    1.4067   -2.9151 N   0  0  0  0  0  0  0  0  0  0  0  0
   -2.7141    0.8117   -4.0283 C   0  0  0  0  0  0  0  0  0  0  0  0
   -3.0792   -0.2343   -4.4942 O   0  0  0  0  0  0  0  0  0  0  0  0
   -1.5936    1.7068   -4.5036 C   0  0  0  0  0  0  0  0  0  0  0  0
   -1.5258    2.8723   -3.5043 C   0  0  0  0  0  0  0  0  0  0  0  0
   -2.7754    2.7270   -2.6005 C   0  0  1  0  0  0  0  0  0  0  0  0
   -2.5067    2.8136   -1.5135 H   0  0  0  0  0  0  0  0  0  0  0  0
   -3.8850    3.7433   -2.8796 C   0  0  0  0  0  0  0  0  0  0  0  0
   -4.8533    3.9064   -2.1841 O   0  0  0  0  0  0  0  0  0  0  0  0
   -3.6626    4.4322   -4.0184 O   0  0  0  0  0  0  0  0  0  0  0  0
   -4.6797    5.3594   -4.3943 C   0  0  0  0  0  0  0  0  0  0  0  0
    1.9429    0.0079   -0.9420 H   0  0  0  0  0  0  0  0  0  0  0  0
    3.1747   -0.0036    1.2108 H   0  0  0  0  0  0  0  0  0  0  0  0
    1.9307    0.0025    3.3582 H   0  0  0  0  0  0  0  0  0  0  0  0
   -0.5526    0.0147    3.3536 H   0  0  0  0  0  0  0  0  0  0  0  0
   -1.7936    0.0165    1.2088 H   0  0  0  0  0  0  0  0  0  0  0  0
    0.4239   -0.9802   -2.5364 H   0  0  0  0  0  0  0  0  0  0  0  0
   -4.6328   -2.1723   -0.2103 H   0  0  0  0  0  0  0  0  0  0  0  0
   -3.5383   -2.9704   -1.3942 H   0  0  0  0  0  0  0  0  0  0  0  0
   -5.5454   -2.3822   -2.7118 H   0  0  0  0  0  0  0  0  0  0  0  0
   -5.6548    0.0155   -3.4917 H   0  0  0  0  0  0  0  0  0  0  0  0
   -0.6441    1.1294   -4.5291 H   0  0  0  0  0  0  0  0  0  0  0  0
   -1.7827    2.0462   -5.5382 H   0  0  0  0  0  0  0  0  0  0  0  0
   -0.6016    2.8131   -2.8976 H   0  0  0  0  0  0  0  0  0  0  0  0
   -1.4888    3.8483   -4.0166 H   0  0  0  0  0  0  0  0  0  0  0  0
   -5.6309    4.8360   -4.5401 H   0  0  0  0  0  0  0  0  0  0  0  0
   -4.3011    5.7708   -5.3363 H   0  0  0  0  0  0  0  0  0  0  0  0
   -4.7840    6.1356   -3.6294 H   0  0  0  0  0  0  0  0  0  0  0  0
  1  6  1  0  0  0  0
  2  1  2  0  0  0  0
  2  3  1  0  0  0  0
  3 31  1  0  0  0  0
  3  4  2  0  0  0  0
  4 32  1  0  0  0  0
  5  4  1  0  0  0  0
  5 33  1  0  0  0  0
  6 34  1  0  0  0  0
  6  5  2  0  0  0  0
  7  8  1  6  0  0  0
  7  1  1  0  0  0  0
  9  7  1  0  0  0  0
 10  7  1  0  0  0  0
 10 12  1  0  0  0  0
 11 10  2  0  0  0  0
 13 12  1  0  0  0  0
 13 36  1  0  0  0  0
 14 13  1  0  0  0  0
 15 14  2  0  0  0  0
 15 16  1  0  0  0  0
 16 17  1  1  0  0  0
 16 18  1  0  0  0  0
 18 12  1  0  0  0  0
 19 24  1  0  0  0  0
 19 16  1  0  0  0  0
 20 19  1  0  0  0  0
 21 20  2  0  0  0  0
 22 20  1  0  0  0  0
 22 23  1  0  0  0  0
 23 42  1  0  0  0  0
 23 24  1  0  0  0  0
 24 25  1  1  0  0  0
 26 24  1  0  0  0  0
 26 27  2  0  0  0  0
 28 26  1  0  0  0  0
 29 28  1  0  0  0  0
 29 46  1  0  0  0  0
 30  2  1  0  0  0  0
 35  9  1  0  0  0  0
 37 13  1  0  0  0  0
 38 14  1  0  0  0  0
 39 15  1  0  0  0  0
 40 22  1  0  0  0  0
 41 22  1  0  0  0  0
 43 23  1  0  0  0  0
 44 29  1  0  0  0  0
 45 29  1  0  0  0  0
M  END
$$$$
