46
rmsd140.gzmat
C          0.00000        0.00000        0.00000
C          1.39550        0.00000        0.00000
C          2.08750        0.00000        1.20840
C          1.38610       -0.00700        2.41350
C         -0.00760       -0.00800        2.41040
C         -0.70400       -0.00000        1.20330
C         -0.75350       -0.02430       -1.29910
H         -1.84210        0.21570       -1.18090
O         -0.31770        0.96560       -2.19120
C         -0.54170       -1.39930       -1.94070
O          0.27170       -1.59970       -2.81440
N         -1.43770       -2.42190       -1.57260
C         -1.05610       -3.82920       -1.78570
C         -2.13060       -4.73380       -1.26150
C         -3.10550       -4.29030       -0.46410
C         -3.12360       -2.86200       -0.00710
H         -3.14040       -2.75800        1.12190
O         -1.87770       -2.21020       -0.25350
N         -4.23030       -2.10940       -0.55980
C         -4.59750       -0.85190       -0.06110
O         -4.13540       -0.39300        0.95270
C         -5.66710       -0.26090       -0.95390
C         -6.01920       -1.37680       -1.95230
C         -4.82820       -2.37330       -1.87080
H         -5.16340       -3.44130       -1.92940
C         -3.87650       -2.11270       -3.04330
O         -3.55560       -2.92800       -3.86620
O         -3.51780       -0.81270       -3.07960
C         -2.65030       -0.42120       -4.14360
H          1.94370       -0.00850       -0.94070
H          3.17530        0.00200        1.21160
H          1.92790       -0.01170        3.35670
H         -0.55620       -0.01540        3.35020
H         -1.79810        0.00130        1.20550
H          0.58400        0.76100       -2.53610
H         -0.07200       -4.08040       -1.32410
H         -0.93750       -3.95600       -2.89620
H         -2.05890       -5.77180       -1.58450
H         -3.90800       -4.91580       -0.08790
H         -6.53640        0.07600       -0.36470
H         -5.26610        0.63750       -1.46680
H         -6.96150       -1.87930       -1.67470
H         -6.16160       -0.98660       -2.97320
H         -2.17570        0.49330       -3.75710
H         -3.25570       -0.22250       -5.03150
H         -1.89480       -1.18850       -4.35560
