
     RDKit          3D

 46 48  0  0  0  0  0  0  0  0999 V2000
   -0.0501    0.0019    0.1394 C   0  0  0  0  0  0  0  0  0  0  0  0
    1.3453   -0.0425    0.0239 C   0  0  0  0  0  0  0  0  0  0  0  0
    2.1491   -0.0112    1.1648 C   0  0  0  0  0  0  0  0  0  0  0  0
    1.5617    0.0667    2.4316 C   0  0  0  0  0  0  0  0  0  0  0  0
    0.1697    0.1116    2.5495 C   0  0  0  0  0  0  0  0  0  0  0  0
   -0.6357    0.0773    1.4082 C   0  0  0  0  0  0  0  0  0  0  0  0
   -0.9058   -0.0246   -1.1199 C   0  0  1  0  0  0  0  0  0  0  0  0
   -1.9559    0.1399   -0.8400 H   0  0  0  0  0  0  0  0  0  0  0  0
   -0.5100    0.9444   -2.0600 O   0  0  0  0  0  0  0  0  0  0  0  0
   -0.7897   -1.3905   -1.8185 C   0  0  0  0  0  0  0  0  0  0  0  0
   -0.1397   -1.4979   -2.8536 O   0  0  0  0  0  0  0  0  0  0  0  0
   -1.4344   -2.4528   -1.2743 N   0  0  0  0  0  0  0  0  0  0  0  0
   -1.2657   -3.8222   -1.7185 C   0  0  0  0  0  0  0  0  0  0  0  0
   -2.4242   -4.6523   -1.2510 C   0  0  0  0  0  0  0  0  0  0  0  0
   -3.3625   -4.1725   -0.4305 C   0  0  0  0  0  0  0  0  0  0  0  0
   -3.2678   -2.7682    0.1040 C   0  0  1  0  0  0  0  0  0  0  0  0
   -3.4531   -2.7234    1.1876 H   0  0  0  0  0  0  0  0  0  0  0  0
   -1.9152   -2.3079    0.0218 O   0  0  0  0  0  0  0  0  0  0  0  0
   -4.2069   -1.8755   -0.5274 N   0  0  0  0  0  0  0  0  0  0  0  0
   -4.5787   -0.6941    0.0950 C   0  0  0  0  0  0  0  0  0  0  0  0
   -4.1507   -0.3194    1.1654 O   0  0  0  0  0  0  0  0  0  0  0  0
   -5.5799    0.0052   -0.8116 C   0  0  0  0  0  0  0  0  0  0  0  0
   -6.0316   -1.0921   -1.7806 C   0  0  0  0  0  0  0  0  0  0  0  0
   -4.8370   -2.0780   -1.8303 C   0  0  1  0  0  0  0  0  0  0  0  0
   -5.1605   -3.1192   -1.9500 H   0  0  0  0  0  0  0  0  0  0  0  0
   -3.9071   -1.8048   -3.0152 C   0  0  0  0  0  0  0  0  0  0  0  0
   -3.5961   -2.6359   -3.8316 O   0  0  0  0  0  0  0  0  0  0  0  0
   -3.5246   -0.5216   -3.0511 O   0  0  0  0  0  0  0  0  0  0  0  0
   -2.7451   -0.0880   -4.1795 C   0  0  0  0  0  0  0  0  0  0  0  0
    1.8014   -0.0935   -0.9677 H   0  0  0  0  0  0  0  0  0  0  0  0
    3.2369   -0.0449    1.0657 H   0  0  0  0  0  0  0  0  0  0  0  0
    2.1895    0.0946    3.3258 H   0  0  0  0  0  0  0  0  0  0  0  0
   -0.2944    0.1756    3.5368 H   0  0  0  0  0  0  0  0  0  0  0  0
   -1.7242    0.0990    1.5003 H   0  0  0  0  0  0  0  0  0  0  0  0
   -0.0286    0.4423   -2.7453 H   0  0  0  0  0  0  0  0  0  0  0  0
   -0.3077   -4.2468   -1.3588 H   0  0  0  0  0  0  0  0  0  0  0  0
   -1.2234   -3.7979   -2.8175 H   0  0  0  0  0  0  0  0  0  0  0  0
   -2.4684   -5.6830   -1.6123 H   0  0  0  0  0  0  0  0  0  0  0  0
   -4.2172   -4.7778   -0.1190 H   0  0  0  0  0  0  0  0  0  0  0  0
   -6.3857    0.4524   -0.2144 H   0  0  0  0  0  0  0  0  0  0  0  0
   -5.0470    0.8170   -1.3299 H   0  0  0  0  0  0  0  0  0  0  0  0
   -6.9044   -1.6249   -1.3735 H   0  0  0  0  0  0  0  0  0  0  0  0
   -6.3011   -0.7190   -2.7774 H   0  0  0  0  0  0  0  0  0  0  0  0
   -2.2520    0.8353   -3.8598 H   0  0  0  0  0  0  0  0  0  0  0  0
   -3.4125    0.0887   -5.0367 H   0  0  0  0  0  0  0  0  0  0  0  0
   -1.9977   -0.8468   -4.4390 H   0  0  0  0  0  0  0  0  0  0  0  0
  1  2  2  0
  1  6  1  0
  1  7  1  0
  2  3  1  0
  2 30  1  0
  3  4  2  0
  3 31  1  0
  4  5  1  0
  4 32  1  0
  5  6  2  0
  5 33  1  0
  6 34  1  0
  7  8  1  1
  7  9  1  0
  7 10  1  0
  9 35  1  0
 10 11  2  0
 10 12  1  0
 12 13  1  0
 12 18  1  0
 13 14  1  0
 13 36  1  0
 13 37  1  0
 14 15  2  0
 14 38  1  0
 15 16  1  0
 15 39  1  0
 16 17  1  1
 16 18  1  0
 16 19  1  0
 19 20  1  0
 19 24  1  0
 20 21  2  0
 20 22  1  0
 22 23  1  0
 22 40  1  0
 22 41  1  0
 23 24  1  0
 23 42  1  0
 23 43  1  0
 24 25  1  1
 24 26  1  0
 26 27  2  0
 26 28  1  0
 28 29  1  0
 29 44  1  0
 29 45  1  0
 29 46  1  0
M  END

