rmsd89.gzmat
 OpenBabel08211713413D

 46 48  0  0  1  0  0  0  0  0999 V2000
    0.0000    0.0000    0.0000 C   0  0  0  0  0  0  0  0  0  0  0  0
    1.3954    0.0000    0.0000 C   0  0  0  0  0  0  0  0  0  0  0  0
    2.0869    0.0000    1.2088 C   0  0  0  0  0  0  0  0  0  0  0  0
    1.3860   -0.0063    2.4144 C   0  0  0  0  0  0  0  0  0  0  0  0
   -0.0077   -0.0095    2.4115 C   0  0  0  0  0  0  0  0  0  0  0  0
   -0.7036   -0.0015    1.2042 C   0  0  0  0  0  0  0  0  0  0  0  0
   -0.7573   -0.0208   -1.2968 C   0  0  1  0  0  0  0  0  0  0  0  0
   -1.8559    0.1636   -1.1672 H   0  0  0  0  0  0  0  0  0  0  0  0
   -0.3732    1.0165   -2.1580 O   0  0  0  0  0  0  0  0  0  0  0  0
   -0.4942   -1.3651   -1.9809 C   0  0  0  0  0  0  0  0  0  0  0  0
    0.2922   -1.5023   -2.8901 O   0  0  0  0  0  0  0  0  0  0  0  0
   -1.3197   -2.4423   -1.5981 N   0  0  0  0  0  0  0  0  0  0  0  0
   -0.8691   -3.8203   -1.8614 C   0  0  0  0  0  0  0  0  0  0  0  0
   -1.8660   -4.7947   -1.3105 C   0  0  0  0  0  0  0  0  0  0  0  0
   -2.8213   -4.4245   -0.4543 C   0  0  0  0  0  0  0  0  0  0  0  0
   -2.8897   -3.0120    0.0456 C   0  0  1  0  0  0  0  0  0  0  0  0
   -2.8453   -2.9422    1.1766 H   0  0  0  0  0  0  0  0  0  0  0  0
   -1.6996   -2.2840   -0.2524 O   0  0  0  0  0  0  0  0  0  0  0  0
   -4.0674   -2.3100   -0.4202 N   0  0  0  0  0  0  0  0  0  0  0  0
   -4.5077   -1.1147    0.1635 C   0  0  0  0  0  0  0  0  0  0  0  0
   -4.0427   -0.6773    1.1856 O   0  0  0  0  0  0  0  0  0  0  0  0
   -5.6527   -0.5589   -0.6559 C   0  0  0  0  0  0  0  0  0  0  0  0
   -5.9690   -1.6491   -1.6935 C   0  0  0  0  0  0  0  0  0  0  0  0
   -4.7031   -2.5518   -1.7172 C   0  0  1  0  0  0  0  0  0  0  0  0
   -4.9585   -3.6380   -1.8215 H   0  0  0  0  0  0  0  0  0  0  0  0
   -3.8321   -2.1558   -2.9142 C   0  0  0  0  0  0  0  0  0  0  0  0
   -3.4971   -2.8948   -3.8005 O   0  0  0  0  0  0  0  0  0  0  0  0
   -3.5729   -0.8311   -2.8909 O   0  0  0  0  0  0  0  0  0  0  0  0
   -2.8135   -0.3138   -3.9830 C   0  0  0  0  0  0  0  0  0  0  0  0
    1.9445   -0.0085   -0.9404 H   0  0  0  0  0  0  0  0  0  0  0  0
    3.1747    0.0013    1.2122 H   0  0  0  0  0  0  0  0  0  0  0  0
    1.9289   -0.0086    3.3569 H   0  0  0  0  0  0  0  0  0  0  0  0
   -0.5583   -0.0179    3.3504 H   0  0  0  0  0  0  0  0  0  0  0  0
   -1.7975   -0.0022    1.2081 H   0  0  0  0  0  0  0  0  0  0  0  0
    0.5307    0.8610   -2.5206 H   0  0  0  0  0  0  0  0  0  0  0  0
    0.1474   -4.0238   -1.4492 H   0  0  0  0  0  0  0  0  0  0  0  0
   -0.7948   -3.9161   -2.9786 H   0  0  0  0  0  0  0  0  0  0  0  0
   -1.7553   -5.8186   -1.6648 H   0  0  0  0  0  0  0  0  0  0  0  0
   -3.5711   -5.1005   -0.0575 H   0  0  0  0  0  0  0  0  0  0  0  0
   -6.5168   -0.3100   -0.0173 H   0  0  0  0  0  0  0  0  0  0  0  0
   -5.3353    0.3881   -1.1397 H   0  0  0  0  0  0  0  0  0  0  0  0
   -6.8556   -2.2361   -1.4000 H   0  0  0  0  0  0  0  0  0  0  0  0
   -6.1908   -1.2240   -2.6858 H   0  0  0  0  0  0  0  0  0  0  0  0
   -2.4383    0.6446   -3.5942 H   0  0  0  0  0  0  0  0  0  0  0  0
   -3.4779   -0.1765   -4.8400 H   0  0  0  0  0  0  0  0  0  0  0  0
   -1.9788   -0.9771   -4.2452 H   0  0  0  0  0  0  0  0  0  0  0  0
  1  2  2  0  0  0  0
  1  6  1  0  0  0  0
  2  3  1  0  0  0  0
  3 31  1  0  0  0  0
  3  4  2  0  0  0  0
  4 32  1  0  0  0  0
  5  4  1  0  0  0  0
  5 33  1  0  0  0  0
  6 34  1  0  0  0  0
  6  5  2  0  0  0  0
  7  8  1  1  0  0  0
  7  1  1  0  0  0  0
  9  7  1  0  0  0  0
 10 12  1  0  0  0  0
 10  7  1  0  0  0  0
 11 10  2  0  0  0  0
 12 18  1  0  0  0  0
 13 12  1  0  0  0  0
 13 36  1  0  0  0  0
 13 14  1  0  0  0  0
 14 15  2  0  0  0  0
 15 39  1  0  0  0  0
 15 16  1  0  0  0  0
 16 17  1  1  0  0  0
 18 16  1  0  0  0  0
 19 16  1  0  0  0  0
 19 20  1  0  0  0  0
 20 21  2  0  0  0  0
 22 40  1  0  0  0  0
 22 20  1  0  0  0  0
 23 42  1  0  0  0  0
 23 22  1  0  0  0  0
 24 25  1  6  0  0  0
 24 23  1  0  0  0  0
 24 19  1  0  0  0  0
 26 28  1  0  0  0  0
 26 24  1  0  0  0  0
 27 26  2  0  0  0  0
 29 44  1  0  0  0  0
 29 28  1  0  0  0  0
 30  2  1  0  0  0  0
 35  9  1  0  0  0  0
 37 13  1  0  0  0  0
 38 14  1  0  0  0  0
 41 22  1  0  0  0  0
 43 23  1  0  0  0  0
 45 29  1  0  0  0  0
 46 29  1  0  0  0  0
M  END
$$$$
