
     RDKit          3D

 46 48  0  0  0  0  0  0  0  0999 V2000
    0.0519    0.0461    0.0922 C   0  0  0  0  0  0  0  0  0  0  0  0
    1.4123   -0.2598    0.1869 C   0  0  0  0  0  0  0  0  0  0  0  0
    2.0126   -0.4191    1.4393 C   0  0  0  0  0  0  0  0  0  0  0  0
    1.2569   -0.2740    2.6050 C   0  0  0  0  0  0  0  0  0  0  0  0
   -0.1042    0.0354    2.5135 C   0  0  0  0  0  0  0  0  0  0  0  0
   -0.7053    0.1948    1.2639 C   0  0  0  0  0  0  0  0  0  0  0  0
   -0.6152    0.1978   -1.2704 C   0  0  1  0  0  0  0  0  0  0  0  0
   -1.2053    1.1188   -1.2609 H   0  0  0  0  0  0  0  0  0  0  0  0
    0.2872    0.2571   -2.3455 O   0  0  0  0  0  0  0  0  0  0  0  0
   -1.5236   -1.0208   -1.5174 C   0  0  0  0  0  0  0  0  0  0  0  0
   -1.0423   -2.0229   -2.0233 O   0  0  0  0  0  0  0  0  0  0  0  0
   -2.8203   -0.9524   -1.1113 N   0  0  0  0  0  0  0  0  0  0  0  0
   -3.8014   -1.9901   -1.3570 C   0  0  0  0  0  0  0  0  0  0  0  0
   -4.9890   -1.4328   -2.0849 C   0  0  0  0  0  0  0  0  0  0  0  0
   -5.0943   -0.1335   -2.3600 C   0  0  0  0  0  0  0  0  0  0  0  0
   -4.0963    0.8585   -1.8264 C   0  0  1  0  0  0  0  0  0  0  0  0
   -4.6263    1.6901   -1.3398 H   0  0  0  0  0  0  0  0  0  0  0  0
   -3.3521    0.2756   -0.7316 O   0  0  0  0  0  0  0  0  0  0  0  0
   -3.2254    1.4354   -2.8212 N   0  0  0  0  0  0  0  0  0  0  0  0
   -2.7054    0.7952   -3.9491 C   0  0  0  0  0  0  0  0  0  0  0  0
   -2.9460   -0.3380   -4.2908 O   0  0  0  0  0  0  0  0  0  0  0  0
   -1.7948    1.7928   -4.6529 C   0  0  0  0  0  0  0  0  0  0  0  0
   -1.4968    2.8537   -3.5926 C   0  0  0  0  0  0  0  0  0  0  0  0
   -2.7197    2.8050   -2.6598 C   0  0  1  0  0  0  0  0  0  0  0  0
   -2.4547    2.9870   -1.6067 H   0  0  0  0  0  0  0  0  0  0  0  0
   -3.8690    3.7608   -2.9825 C   0  0  0  0  0  0  0  0  0  0  0  0
   -4.7908    3.9607   -2.2269 O   0  0  0  0  0  0  0  0  0  0  0  0
   -3.7861    4.2906   -4.2090 O   0  0  0  0  0  0  0  0  0  0  0  0
   -4.8740    5.1274   -4.6141 C   0  0  0  0  0  0  0  0  0  0  0  0
    1.9959   -0.3562   -0.7294 H   0  0  0  0  0  0  0  0  0  0  0  0
    3.0775   -0.6565    1.5034 H   0  0  0  0  0  0  0  0  0  0  0  0
    1.7268   -0.3987    3.5837 H   0  0  0  0  0  0  0  0  0  0  0  0
   -0.7007    0.1547    3.4215 H   0  0  0  0  0  0  0  0  0  0  0  0
   -1.7687    0.4359    1.1924 H   0  0  0  0  0  0  0  0  0  0  0  0
    0.3723   -0.6653   -2.6533 H   0  0  0  0  0  0  0  0  0  0  0  0
   -4.1045   -2.4712   -0.4077 H   0  0  0  0  0  0  0  0  0  0  0  0
   -3.2914   -2.7500   -1.9684 H   0  0  0  0  0  0  0  0  0  0  0  0
   -5.7513   -2.1435   -2.4147 H   0  0  0  0  0  0  0  0  0  0  0  0
   -5.9192    0.2708   -2.9506 H   0  0  0  0  0  0  0  0  0  0  0  0
   -0.9054    1.2684   -5.0236 H   0  0  0  0  0  0  0  0  0  0  0  0
   -2.3431    2.2036   -5.5164 H   0  0  0  0  0  0  0  0  0  0  0  0
   -0.6061    2.5511   -3.0256 H   0  0  0  0  0  0  0  0  0  0  0  0
   -1.3333    3.8576   -4.0011 H   0  0  0  0  0  0  0  0  0  0  0  0
   -5.8173    4.5618   -4.6080 H   0  0  0  0  0  0  0  0  0  0  0  0
   -4.6354    5.4669   -5.6287 H   0  0  0  0  0  0  0  0  0  0  0  0
   -4.9751    5.9851   -3.9333 H   0  0  0  0  0  0  0  0  0  0  0  0
  1  2  2  0
  1  6  1  0
  1  7  1  0
  2  3  1  0
  2 30  1  0
  3  4  2  0
  3 31  1  0
  4  5  1  0
  4 32  1  0
  5  6  2  0
  5 33  1  0
  6 34  1  0
  7  8  1  1
  7  9  1  0
  7 10  1  0
  9 35  1  0
 10 11  2  0
 10 12  1  0
 12 13  1  0
 12 18  1  0
 13 14  1  0
 13 36  1  0
 13 37  1  0
 14 15  2  0
 14 38  1  0
 15 16  1  0
 15 39  1  0
 16 17  1  1
 16 18  1  0
 16 19  1  0
 19 20  1  0
 19 24  1  0
 20 21  2  0
 20 22  1  0
 22 23  1  0
 22 40  1  0
 22 41  1  0
 23 24  1  0
 23 42  1  0
 23 43  1  0
 24 25  1  1
 24 26  1  0
 26 27  2  0
 26 28  1  0
 28 29  1  0
 29 44  1  0
 29 45  1  0
 29 46  1  0
M  END

