rmsd159.gzmat
 OpenBabel08211713413D

 46 48  0  0  1  0  0  0  0  0999 V2000
    0.0000    0.0000    0.0000 C   0  0  0  0  0  0  0  0  0  0  0  0
    1.3949    0.0000    0.0000 C   0  0  0  0  0  0  0  0  0  0  0  0
    2.0869    0.0000    1.2097 C   0  0  0  0  0  0  0  0  0  0  0  0
    1.3864   -0.0118    2.4143 C   0  0  0  0  0  0  0  0  0  0  0  0
   -0.0078   -0.0308    2.4113 C   0  0  0  0  0  0  0  0  0  0  0  0
   -0.7034   -0.0237    1.2048 C   0  0  0  0  0  0  0  0  0  0  0  0
   -0.7429    0.0395   -1.3071 C   0  0  1  0  0  0  0  0  0  0  0  0
   -0.1031   -0.2376   -2.1888 H   0  0  0  0  0  0  0  0  0  0  0  0
   -1.7592   -0.9266   -1.3402 O   0  0  0  0  0  0  0  0  0  0  0  0
   -1.3424    1.4346   -1.4771 C   0  0  0  0  0  0  0  0  0  0  0  0
   -2.5348    1.6462   -1.4425 O   0  0  0  0  0  0  0  0  0  0  0  0
   -0.4731    2.5085   -1.7948 N   0  0  0  0  0  0  0  0  0  0  0  0
   -0.9123    3.8678   -1.4175 C   0  0  0  0  0  0  0  0  0  0  0  0
    0.1554    4.8585   -1.7682 C   0  0  0  0  0  0  0  0  0  0  0  0
    1.4116    4.4798   -2.0115 C   0  0  0  0  0  0  0  0  0  0  0  0
    1.8164    3.0408   -1.8828 C   0  0  1  0  0  0  0  0  0  0  0  0
    2.6387    2.8877   -1.1148 H   0  0  0  0  0  0  0  0  0  0  0  0
    0.8065    2.2407   -1.2700 O   0  0  0  0  0  0  0  0  0  0  0  0
    2.2485    2.4790   -3.1447 N   0  0  0  0  0  0  0  0  0  0  0  0
    3.1632    1.4199   -3.2284 C   0  0  0  0  0  0  0  0  0  0  0  0
    3.7612    0.9992   -2.2710 O   0  0  0  0  0  0  0  0  0  0  0  0
    3.2907    0.9947   -4.6758 C   0  0  0  0  0  0  0  0  0  0  0  0
    2.4772    2.0293   -5.4729 C   0  0  0  0  0  0  0  0  0  0  0  0
    1.5589    2.7083   -4.4166 C   0  0  1  0  0  0  0  0  0  0  0  0
    1.4304    3.8039   -4.5973 H   0  0  0  0  0  0  0  0  0  0  0  0
    0.2069    1.9927   -4.4553 C   0  0  0  0  0  0  0  0  0  0  0  0
   -0.0069    0.8332   -4.2260 O   0  0  0  0  0  0  0  0  0  0  0  0
   -0.7341    2.8608   -4.8902 O   0  0  0  0  0  0  0  0  0  0  0  0
   -2.0678    2.3588   -4.9519 C   0  0  0  0  0  0  0  0  0  0  0  0
    1.9509    0.0028   -0.9405 H   0  0  0  0  0  0  0  0  0  0  0  0
    3.1755    0.0076    1.2080 H   0  0  0  0  0  0  0  0  0  0  0  0
    1.9272   -0.0106    3.3575 H   0  0  0  0  0  0  0  0  0  0  0  0
   -0.5535   -0.0500    3.3518 H   0  0  0  0  0  0  0  0  0  0  0  0
   -1.7916   -0.0406    1.2028 H   0  0  0  0  0  0  0  0  0  0  0  0
   -2.5965   -0.5773   -0.9536 H   0  0  0  0  0  0  0  0  0  0  0  0
   -1.1708    3.9450   -0.3342 H   0  0  0  0  0  0  0  0  0  0  0  0
   -1.8544    4.0700   -1.9885 H   0  0  0  0  0  0  0  0  0  0  0  0
   -0.1674    5.8969   -1.8071 H   0  0  0  0  0  0  0  0  0  0  0  0
    2.2059    5.1656   -2.2895 H   0  0  0  0  0  0  0  0  0  0  0  0
    4.3485    0.9503   -4.9852 H   0  0  0  0  0  0  0  0  0  0  0  0
    2.8840   -0.0312   -4.7977 H   0  0  0  0  0  0  0  0  0  0  0  0
    3.1350    2.7777   -5.9472 H   0  0  0  0  0  0  0  0  0  0  0  0
    1.8981    1.5632   -6.2871 H   0  0  0  0  0  0  0  0  0  0  0  0
   -2.6270    3.1972   -5.3795 H   0  0  0  0  0  0  0  0  0  0  0  0
   -2.4204    2.1176   -3.9404 H   0  0  0  0  0  0  0  0  0  0  0  0
   -2.1148    1.4726   -5.5925 H   0  0  0  0  0  0  0  0  0  0  0  0
  1  2  2  0  0  0  0
  1  6  1  0  0  0  0
  2  3  1  0  0  0  0
  3  4  2  0  0  0  0
  4 32  1  0  0  0  0
  5  4  1  0  0  0  0
  5 33  1  0  0  0  0
  6  5  2  0  0  0  0
  7  8  1  6  0  0  0
  7  1  1  0  0  0  0
  9  7  1  0  0  0  0
  9 35  1  0  0  0  0
 10 11  2  0  0  0  0
 10  7  1  0  0  0  0
 12 10  1  0  0  0  0
 12 13  1  0  0  0  0
 12 18  1  0  0  0  0
 13 36  1  0  0  0  0
 14 13  1  0  0  0  0
 15 16  1  0  0  0  0
 15 14  2  0  0  0  0
 16 18  1  0  0  0  0
 16 17  1  1  0  0  0
 19 16  1  0  0  0  0
 20 19  1  0  0  0  0
 20 21  2  0  0  0  0
 22 20  1  0  0  0  0
 23 22  1  0  0  0  0
 23 24  1  0  0  0  0
 24 25  1  6  0  0  0
 24 19  1  0  0  0  0
 26 24  1  0  0  0  0
 26 27  2  0  0  0  0
 28 26  1  0  0  0  0
 29 28  1  0  0  0  0
 29 45  1  0  0  0  0
 30  2  1  0  0  0  0
 31  3  1  0  0  0  0
 34  6  1  0  0  0  0
 37 13  1  0  0  0  0
 38 14  1  0  0  0  0
 39 15  1  0  0  0  0
 40 22  1  0  0  0  0
 41 22  1  0  0  0  0
 42 23  1  0  0  0  0
 43 23  1  0  0  0  0
 44 29  1  0  0  0  0
 46 29  1  0  0  0  0
M  END
$$$$
