rmsd73.gzmat
 OpenBabel08211713413D

 46 47  0  0  1  0  0  0  0  0999 V2000
    0.0000    0.0000    0.0000 C   0  0  0  0  0  0  0  0  0  0  0  0
    1.3952    0.0000    0.0000 C   0  0  0  0  0  0  0  0  0  0  0  0
    2.0870    0.0000    1.2089 C   0  0  0  0  0  0  0  0  0  0  0  0
    1.3865   -0.0091    2.4144 C   0  0  0  0  0  0  0  0  0  0  0  0
   -0.0072   -0.0080    2.4115 C   0  0  0  0  0  0  0  0  0  0  0  0
   -0.7029    0.0040    1.2043 C   0  0  0  0  0  0  0  0  0  0  0  0
   -0.7573   -0.0190   -1.2964 C   0  0  1  0  0  0  0  0  0  0  0  0
   -1.8372    0.2595   -1.1784 H   0  0  0  0  0  0  0  0  0  0  0  0
   -0.2914    0.9433   -2.2037 O   0  0  0  0  0  0  0  0  0  0  0  0
   -0.6033   -1.4076   -1.9242 C   0  0  0  0  0  0  0  0  0  0  0  0
    0.1984   -1.6513   -2.7970 O   0  0  0  0  0  0  0  0  0  0  0  0
   -1.5496   -2.3832   -1.5502 N   0  0  0  0  0  0  0  0  0  0  0  0
   -1.2489   -3.8067   -1.7843 C   0  0  0  0  0  0  0  0  0  0  0  0
   -2.3765   -4.6510   -1.2710 C   0  0  0  0  0  0  0  0  0  0  0  0
   -3.3077   -4.1638   -0.4475 C   0  0  0  0  0  0  0  0  0  0  0  0
   -3.2190   -2.7537    0.0547 C   0  0  1  0  0  0  0  0  0  0  0  0
   -3.1861   -2.6916    1.1870 H   0  0  0  0  0  0  0  0  0  0  0  0
   -1.9476   -2.1654   -0.2185 O   0  0  0  0  0  0  0  0  0  0  0  0
   -4.2975   -1.9161   -0.4265 N   0  0  0  0  0  0  0  0  0  0  0  0
   -4.6024   -0.6807    0.1590 C   0  0  0  0  0  0  0  0  0  0  0  0
   -4.1033   -0.3081    1.1909 O   0  0  0  0  0  0  0  0  0  0  0  0
   -5.6613    0.0114   -0.6716 C   0  0  0  0  0  0  0  0  0  0  0  0
   -6.0889   -1.0253   -1.7240 C   0  0  0  0  0  0  0  0  0  0  0  0
   -4.9526   -2.0869   -1.7247 C   0  0  1  0  0  0  0  0  0  0  0  0
   -5.3495   -3.1315   -1.8158 H   0  0  0  0  0  0  0  0  0  0  0  0
   -4.0289   -1.8313   -2.9198 C   0  0  0  0  0  0  0  0  0  0  0  0
   -3.7836   -2.6284   -3.7851 O   0  0  0  0  0  0  0  0  0  0  0  0
   -3.6015   -0.5510   -2.9250 O   0  0  0  0  0  0  0  0  0  0  0  0
   -2.7622   -0.1720   -4.0160 C   0  0  0  0  0  0  0  0  0  0  0  0
    1.9444   -0.0043   -0.9399 H   0  0  0  0  0  0  0  0  0  0  0  0
    3.1747    0.0048    1.2119 H   0  0  0  0  0  0  0  0  0  0  0  0
    1.9285   -0.0158    3.3574 H   0  0  0  0  0  0  0  0  0  0  0  0
   -0.5570   -0.0131    3.3509 H   0  0  0  0  0  0  0  0  0  0  0  0
   -1.7965    0.0150    1.2082 H   0  0  0  0  0  0  0  0  0  0  0  0
    0.5993    0.7023   -2.5511 H   0  0  0  0  0  0  0  0  0  0  0  0
   -0.2819   -4.1217   -1.3253 H   0  0  0  0  0  0  0  0  0  0  0  0
   -1.1366   -3.9257   -2.8958 H   0  0  0  0  0  0  0  0  0  0  0  0
   -2.3809   -5.6817   -1.6237 H   0  0  0  0  0  0  0  0  0  0  0  0
   -4.1484   -4.7420   -0.0786 H   0  0  0  0  0  0  0  0  0  0  0  0
   -6.5000    0.3545   -0.0424 H   0  0  0  0  0  0  0  0  0  0  0  0
   -5.2284    0.9187   -1.1418 H   0  0  0  0  0  0  0  0  0  0  0  0
   -7.0528   -1.4919   -1.4591 H   0  0  0  0  0  0  0  0  0  0  0  0
   -6.2271   -0.5697   -2.7186 H   0  0  0  0  0  0  0  0  0  0  0  0
   -2.3279    0.7796   -3.6758 H   0  0  0  0  0  0  0  0  0  0  0  0
   -3.3739   -0.0462   -4.9124 H   0  0  0  0  0  0  0  0  0  0  0  0
   -1.9752   -0.9165   -4.1901 H   0  0  0  0  0  0  0  0  0  0  0  0
  1  2  2  0  0  0  0
  1  6  1  0  0  0  0
  2  3  1  0  0  0  0
  3 31  1  0  0  0  0
  3  4  2  0  0  0  0
  4 32  1  0  0  0  0
  5  4  1  0  0  0  0
  5 33  1  0  0  0  0
  6 34  1  0  0  0  0
  6  5  2  0  0  0  0
  7  8  1  1  0  0  0
  7  1  1  0  0  0  0
  9  7  1  0  0  0  0
 10 12  1  0  0  0  0
 10  7  1  0  0  0  0
 11 10  2  0  0  0  0
 12 18  1  0  0  0  0
 13 12  1  0  0  0  0
 13 36  1  0  0  0  0
 13 14  1  0  0  0  0
 14 15  2  0  0  0  0
 15 39  1  0  0  0  0
 15 16  1  0  0  0  0
 16 17  1  1  0  0  0
 18 16  1  0  0  0  0
 19 16  1  0  0  0  0
 19 20  1  0  0  0  0
 20 21  2  0  0  0  0
 22 40  1  0  0  0  0
 22 20  1  0  0  0  0
 23 42  1  0  0  0  0
 23 22  1  0  0  0  0
 24 25  1  6  0  0  0
 24 23  1  0  0  0  0
 24 19  1  0  0  0  0
 26 24  1  0  0  0  0
 27 26  2  0  0  0  0
 28 26  1  0  0  0  0
 29 44  1  0  0  0  0
 29 28  1  0  0  0  0
 30  2  1  0  0  0  0
 35  9  1  0  0  0  0
 38 14  1  0  0  0  0
 41 22  1  0  0  0  0
 43 23  1  0  0  0  0
 45 29  1  0  0  0  0
 46 29  1  0  0  0  0
M  RAD  2  13   2  37   2
M  END
$$$$
