rmsd140.gzmat
 OpenBabel08211713413D

 46 48  0  0  1  0  0  0  0  0999 V2000
    0.0000    0.0000    0.0000 C   0  0  0  0  0  0  0  0  0  0  0  0
    1.3955    0.0000    0.0000 C   0  0  0  0  0  0  0  0  0  0  0  0
    2.0875    0.0000    1.2084 C   0  0  0  0  0  0  0  0  0  0  0  0
    1.3861   -0.0070    2.4135 C   0  0  0  0  0  0  0  0  0  0  0  0
   -0.0076   -0.0080    2.4104 C   0  0  0  0  0  0  0  0  0  0  0  0
   -0.7040   -0.0000    1.2033 C   0  0  0  0  0  0  0  0  0  0  0  0
   -0.7535   -0.0243   -1.2991 C   0  0  1  0  0  0  0  0  0  0  0  0
   -1.8421    0.2157   -1.1809 H   0  0  0  0  0  0  0  0  0  0  0  0
   -0.3177    0.9656   -2.1912 O   0  0  0  0  0  0  0  0  0  0  0  0
   -0.5417   -1.3993   -1.9407 C   0  0  0  0  0  0  0  0  0  0  0  0
    0.2717   -1.5997   -2.8144 O   0  0  0  0  0  0  0  0  0  0  0  0
   -1.4377   -2.4219   -1.5726 N   0  0  0  0  0  0  0  0  0  0  0  0
   -1.0561   -3.8292   -1.7857 C   0  0  0  0  0  0  0  0  0  0  0  0
   -2.1306   -4.7338   -1.2615 C   0  0  0  0  0  0  0  0  0  0  0  0
   -3.1055   -4.2903   -0.4641 C   0  0  0  0  0  0  0  0  0  0  0  0
   -3.1236   -2.8620   -0.0071 C   0  0  1  0  0  0  0  0  0  0  0  0
   -3.1404   -2.7580    1.1219 H   0  0  0  0  0  0  0  0  0  0  0  0
   -1.8777   -2.2102   -0.2535 O   0  0  0  0  0  0  0  0  0  0  0  0
   -4.2303   -2.1094   -0.5598 N   0  0  0  0  0  0  0  0  0  0  0  0
   -4.5975   -0.8519   -0.0611 C   0  0  0  0  0  0  0  0  0  0  0  0
   -4.1354   -0.3930    0.9527 O   0  0  0  0  0  0  0  0  0  0  0  0
   -5.6671   -0.2609   -0.9539 C   0  0  0  0  0  0  0  0  0  0  0  0
   -6.0192   -1.3768   -1.9523 C   0  0  0  0  0  0  0  0  0  0  0  0
   -4.8282   -2.3733   -1.8708 C   0  0  1  0  0  0  0  0  0  0  0  0
   -5.1634   -3.4413   -1.9294 H   0  0  0  0  0  0  0  0  0  0  0  0
   -3.8765   -2.1127   -3.0433 C   0  0  0  0  0  0  0  0  0  0  0  0
   -3.5556   -2.9280   -3.8662 O   0  0  0  0  0  0  0  0  0  0  0  0
   -3.5178   -0.8127   -3.0796 O   0  0  0  0  0  0  0  0  0  0  0  0
   -2.6503   -0.4212   -4.1436 C   0  0  0  0  0  0  0  0  0  0  0  0
    1.9437   -0.0085   -0.9407 H   0  0  0  0  0  0  0  0  0  0  0  0
    3.1753    0.0020    1.2116 H   0  0  0  0  0  0  0  0  0  0  0  0
    1.9279   -0.0117    3.3567 H   0  0  0  0  0  0  0  0  0  0  0  0
   -0.5562   -0.0154    3.3502 H   0  0  0  0  0  0  0  0  0  0  0  0
   -1.7981    0.0013    1.2055 H   0  0  0  0  0  0  0  0  0  0  0  0
    0.5840    0.7610   -2.5361 H   0  0  0  0  0  0  0  0  0  0  0  0
   -0.0720   -4.0804   -1.3241 H   0  0  0  0  0  0  0  0  0  0  0  0
   -0.9375   -3.9560   -2.8962 H   0  0  0  0  0  0  0  0  0  0  0  0
   -2.0589   -5.7718   -1.5845 H   0  0  0  0  0  0  0  0  0  0  0  0
   -3.9080   -4.9158   -0.0879 H   0  0  0  0  0  0  0  0  0  0  0  0
   -6.5364    0.0760   -0.3647 H   0  0  0  0  0  0  0  0  0  0  0  0
   -5.2661    0.6375   -1.4668 H   0  0  0  0  0  0  0  0  0  0  0  0
   -6.9615   -1.8793   -1.6747 H   0  0  0  0  0  0  0  0  0  0  0  0
   -6.1616   -0.9866   -2.9732 H   0  0  0  0  0  0  0  0  0  0  0  0
   -2.1757    0.4933   -3.7571 H   0  0  0  0  0  0  0  0  0  0  0  0
   -3.2557   -0.2225   -5.0315 H   0  0  0  0  0  0  0  0  0  0  0  0
   -1.8948   -1.1885   -4.3556 H   0  0  0  0  0  0  0  0  0  0  0  0
  1  6  1  0  0  0  0
  2  1  2  0  0  0  0
  2  3  1  0  0  0  0
  3 31  1  0  0  0  0
  3  4  2  0  0  0  0
  4 32  1  0  0  0  0
  5  4  1  0  0  0  0
  5 33  1  0  0  0  0
  6 34  1  0  0  0  0
  6  5  2  0  0  0  0
  7  8  1  1  0  0  0
  7  1  1  0  0  0  0
  9  7  1  0  0  0  0
 10 12  1  0  0  0  0
 10  7  1  0  0  0  0
 11 10  2  0  0  0  0
 12 18  1  0  0  0  0
 13 12  1  0  0  0  0
 13 36  1  0  0  0  0
 13 14  1  0  0  0  0
 14 15  2  0  0  0  0
 15 39  1  0  0  0  0
 15 16  1  0  0  0  0
 16 17  1  1  0  0  0
 18 16  1  0  0  0  0
 19 20  1  0  0  0  0
 19 16  1  0  0  0  0
 20 21  2  0  0  0  0
 22 40  1  0  0  0  0
 22 20  1  0  0  0  0
 23 24  1  0  0  0  0
 23 42  1  0  0  0  0
 23 22  1  0  0  0  0
 24 25  1  6  0  0  0
 24 19  1  0  0  0  0
 26 24  1  0  0  0  0
 27 26  2  0  0  0  0
 28 26  1  0  0  0  0
 29 44  1  0  0  0  0
 29 28  1  0  0  0  0
 30  2  1  0  0  0  0
 35  9  1  0  0  0  0
 37 13  1  0  0  0  0
 38 14  1  0  0  0  0
 41 22  1  0  0  0  0
 43 23  1  0  0  0  0
 45 29  1  0  0  0  0
 46 29  1  0  0  0  0
M  END
$$$$
