46

C         -0.05010        0.00190        0.13940
C          1.34530       -0.04250        0.02390
C          2.14910       -0.01120        1.16480
C          1.56170        0.06670        2.43160
C          0.16970        0.11160        2.54950
C         -0.63570        0.07730        1.40820
C         -0.90580       -0.02460       -1.11990
H         -1.95590        0.13990       -0.84000
O         -0.51000        0.94440       -2.06000
C         -0.78970       -1.39050       -1.81850
O         -0.13970       -1.49790       -2.85360
N         -1.43440       -2.45280       -1.27430
C         -1.26570       -3.82220       -1.71850
C         -2.42420       -4.65230       -1.25100
C         -3.36250       -4.17250       -0.43050
C         -3.26780       -2.76820        0.10400
H         -3.45310       -2.72340        1.18760
O         -1.91520       -2.30790        0.02180
N         -4.20690       -1.87550       -0.52740
C         -4.57870       -0.69410        0.09500
O         -4.15070       -0.31940        1.16540
C         -5.57990        0.00520       -0.81160
C         -6.03160       -1.09210       -1.78060
C         -4.83700       -2.07800       -1.83030
H         -5.16050       -3.11920       -1.95000
C         -3.90710       -1.80480       -3.01520
O         -3.59610       -2.63590       -3.83160
O         -3.52460       -0.52160       -3.05110
C         -2.74510       -0.08800       -4.17950
H          1.80140       -0.09350       -0.96770
H          3.23690       -0.04490        1.06570
H          2.18950        0.09460        3.32580
H         -0.29440        0.17560        3.53680
H         -1.72420        0.09900        1.50030
H         -0.02860        0.44230       -2.74530
H         -0.30770       -4.24680       -1.35880
H         -1.22340       -3.79790       -2.81750
H         -2.46840       -5.68300       -1.61230
H         -4.21720       -4.77780       -0.11900
H         -6.38570        0.45240       -0.21440
H         -5.04700        0.81700       -1.32990
H         -6.90440       -1.62490       -1.37350
H         -6.30110       -0.71900       -2.77740
H         -2.25200        0.83530       -3.85980
H         -3.41250        0.08870       -5.03670
H         -1.99770       -0.84680       -4.43900
