47

C         -0.04820       -0.10590       -0.04150
C          1.35160       -0.12790       -0.09970
C          2.14130       -0.01350        1.04800
C          1.53190        0.13350        2.29780
C          0.12090        0.08400        2.39070
C         -0.63620       -0.05050        1.23210
O         -0.52480        0.29750        3.57390
C         -0.33420       -0.66400        4.60320
O          2.20770        0.36030        3.45190
C          3.61030        0.51530        3.40130
Br         2.24420       -0.29520       -1.77790
C         -0.87980        0.02050       -1.26700
C         -1.58630       -1.03660       -1.84240
N         -2.26730       -0.91010       -2.98470
C         -2.22220        0.28720       -3.56690
N         -1.60490        1.37690       -3.10480
C         -0.95370        1.26210       -1.94440
C         -0.23750        2.44060       -1.38430
C          0.86770        2.99290       -2.04480
C          1.65940        3.96950       -1.44190
C          1.36380        4.41090       -0.14650
C          0.24860        3.88390        0.52060
C         -0.57100        2.93560       -0.11290
O         -1.67530        2.49910        0.52980
O         -0.12500        4.26070        1.79210
C          0.75300        3.83200        2.83920
O          2.18360        5.32200        0.46120
C          1.60030        6.58970        0.73960
H          3.22410       -0.00690        0.94650
H         -1.72070       -0.01840        1.32650
H          0.71300       -0.69830        4.93980
H         -0.64130       -1.66890        4.26270
H         -0.97700       -0.35920        5.44040
H          3.89930        1.35520        2.74560
H          4.11010       -0.40350        3.04790
H          3.93740        0.72840        4.42720
H         -1.58310       -2.02400       -1.36580
H         -2.75020        0.39210       -4.52240
H          1.12050        2.61780       -3.03730
H          2.52770        4.39370       -1.94780
H         -1.68920        2.95700        1.38880
H          0.40240        4.31720        3.76030
H          1.78750        4.14400        2.62950
H          0.71140        2.73910        2.97120
H          0.73960        6.50170        1.42200
H          1.27050        7.08080       -0.19280
H          2.38200        7.20170        1.21040
