47
rmsd82.gzmat
C          0.00000        0.00000        0.00000
C          1.39030        0.00000        0.00000
C          2.12510        0.00000        1.17920
C          1.44670        0.01660        2.39970
C          0.03400        0.03120        2.41860
C         -0.67830        0.00330        1.22650
O         -0.52380        0.08680        3.66110
C         -1.94370        0.13510        3.72120
O          2.28110        0.06770        3.46960
C          1.74890       -0.29880        4.73700
Br         2.33960        0.00600       -1.64160
C         -0.78130        0.03400       -1.23360
C         -1.43130       -1.11390       -1.70700
N         -2.14470       -1.10330       -2.84890
C         -2.20820        0.05860       -3.53780
N         -1.61390        1.20980       -3.15710
C         -0.90830        1.21340       -2.00360
C         -0.24160        2.45570       -1.61610
C          0.62650        3.10070       -2.50160
C          1.36300        4.21380       -2.11140
C          1.23650        4.70750       -0.80750
C          0.33770        4.10680        0.08660
C         -0.41450        3.00410       -0.33740
O         -1.33120        2.43940        0.47700
O          0.08090        4.59270        1.34390
C          1.10840        4.23950        2.27350
O          1.92780        5.74510       -0.28190
C          2.83530        6.41610       -1.14990
H          3.21640       -0.01160        1.18150
H         -1.76770        0.01760        1.21730
H         -2.38200       -0.78740        3.32750
H         -2.33100        1.01720        3.20080
H         -2.12570        0.21690        4.80080
H          1.13990        0.52020        5.13550
H          2.65760       -0.43570        5.33800
H          1.17840       -1.23100        4.68620
H         -1.38010       -2.07050       -1.17220
H         -2.78460        0.06820       -4.47520
H          0.73090        2.70860       -3.51810
H          2.03310        4.68360       -2.82260
H         -1.36250        2.92800        1.35100
H          0.72630        4.63990        3.21880
H          2.05020        4.72600        1.99970
H          1.23520        3.15450        2.32770
H          2.30530        6.87550       -1.99040
H          3.62380        5.73930       -1.49280
H          3.25030        7.19050       -0.49090
