
     RDKit          3D

 47 49  0  0  0  0  0  0  0  0999 V2000
   -0.0738   -0.1028   -0.0422 C   0  0  0  0  0  0  0  0  0  0  0  0
    1.3265   -0.1464   -0.0917 C   0  0  0  0  0  0  0  0  0  0  0  0
    2.0902   -0.0469    1.0727 C   0  0  0  0  0  0  0  0  0  0  0  0
    1.4720    0.1103    2.3122 C   0  0  0  0  0  0  0  0  0  0  0  0
    0.0595    0.1138    2.3893 C   0  0  0  0  0  0  0  0  0  0  0  0
   -0.6872   -0.0190    1.2178 C   0  0  0  0  0  0  0  0  0  0  0  0
   -0.4818    0.3199    3.6196 O   0  0  0  0  0  0  0  0  0  0  0  0
   -1.8851    0.4089    3.7351 C   0  0  0  0  0  0  0  0  0  0  0  0
    2.2537    0.3391    3.4036 O   0  0  0  0  0  0  0  0  0  0  0  0
    2.1967   -0.6075    4.4632 C   0  0  0  0  0  0  0  0  0  0  0  0
    2.2335   -0.3502   -1.7568 Br  0  0  0  0  0  0  0  0  0  0  0  0
   -0.9023   -0.0037   -1.2724 C   0  0  0  0  0  0  0  0  0  0  0  0
   -1.6424   -1.0697   -1.7877 C   0  0  0  0  0  0  0  0  0  0  0  0
   -2.3316   -0.9848   -2.9285 N   0  0  0  0  0  0  0  0  0  0  0  0
   -2.2612    0.1800   -3.5715 C   0  0  0  0  0  0  0  0  0  0  0  0
   -1.6120    1.2745   -3.1702 N   0  0  0  0  0  0  0  0  0  0  0  0
   -0.9522    1.2039   -2.0102 C   0  0  0  0  0  0  0  0  0  0  0  0
   -0.2011    2.3941   -1.5295 C   0  0  0  0  0  0  0  0  0  0  0  0
    0.8808    2.8977   -2.2655 C   0  0  0  0  0  0  0  0  0  0  0  0
    1.7064    3.8973   -1.7549 C   0  0  0  0  0  0  0  0  0  0  0  0
    1.4733    4.4142   -0.4745 C   0  0  0  0  0  0  0  0  0  0  0  0
    0.3834    3.9363    0.2661 C   0  0  0  0  0  0  0  0  0  0  0  0
   -0.4732    2.9646   -0.2760 C   0  0  0  0  0  0  0  0  0  0  0  0
   -1.5599    2.5986    0.4431 O   0  0  0  0  0  0  0  0  0  0  0  0
    0.0725    4.3772    1.5353 O   0  0  0  0  0  0  0  0  0  0  0  0
    0.9903    3.9613    2.5550 C   0  0  0  0  0  0  0  0  0  0  0  0
    2.3279    5.3458    0.0436 O   0  0  0  0  0  0  0  0  0  0  0  0
    1.7701    6.6285    0.3037 C   0  0  0  0  0  0  0  0  0  0  0  0
    3.1793   -0.0604    1.0370 H   0  0  0  0  0  0  0  0  0  0  0  0
   -1.7723    0.0428    1.2465 H   0  0  0  0  0  0  0  0  0  0  0  0
   -2.1002    0.6045    4.7935 H   0  0  0  0  0  0  0  0  0  0  0  0
   -2.3814   -0.5302    3.4332 H   0  0  0  0  0  0  0  0  0  0  0  0
   -2.2898    1.2338    3.1232 H   0  0  0  0  0  0  0  0  0  0  0  0
    1.2035   -0.6313    4.9357 H   0  0  0  0  0  0  0  0  0  0  0  0
    2.9470   -0.2945    5.2020 H   0  0  0  0  0  0  0  0  0  0  0  0
    2.4523   -1.6186    4.0991 H   0  0  0  0  0  0  0  0  0  0  0  0
   -1.6586   -2.0314   -1.2612 H   0  0  0  0  0  0  0  0  0  0  0  0
   -2.7953    0.2502   -4.5269 H   0  0  0  0  0  0  0  0  0  0  0  0
    1.0847    2.4660   -3.2462 H   0  0  0  0  0  0  0  0  0  0  0  0
    2.5560    4.2811   -2.3211 H   0  0  0  0  0  0  0  0  0  0  0  0
   -1.5341    3.1489    1.2464 H   0  0  0  0  0  0  0  0  0  0  0  0
    0.6705    4.4520    3.4843 H   0  0  0  0  0  0  0  0  0  0  0  0
    2.0149    4.2748    2.3050 H   0  0  0  0  0  0  0  0  0  0  0  0
    0.9663    2.8679    2.6924 H   0  0  0  0  0  0  0  0  0  0  0  0
    0.9548    6.5774    1.0431 H   0  0  0  0  0  0  0  0  0  0  0  0
    1.3836    7.0817   -0.6262 H   0  0  0  0  0  0  0  0  0  0  0  0
    2.5839    7.2533    0.6961 H   0  0  0  0  0  0  0  0  0  0  0  0
  1  2  2  0
  1  6  1  0
  1 12  1  0
  2  3  1  0
  2 11  1  0
  3  4  2  0
  3 29  1  0
  4  5  1  0
  4  9  1  0
  5  6  2  0
  5  7  1  0
  6 30  1  0
  7  8  1  0
  8 31  1  0
  8 32  1  0
  8 33  1  0
  9 10  1  0
 10 34  1  0
 10 35  1  0
 10 36  1  0
 12 13  2  0
 12 17  1  0
 13 14  1  0
 13 37  1  0
 14 15  2  0
 15 16  1  0
 15 38  1  0
 16 17  2  0
 17 18  1  0
 18 19  2  0
 18 23  1  0
 19 20  1  0
 19 39  1  0
 20 21  2  0
 20 40  1  0
 21 22  1  0
 21 27  1  0
 22 23  2  0
 22 25  1  0
 23 24  1  0
 24 41  1  0
 25 26  1  0
 26 42  1  0
 26 43  1  0
 26 44  1  0
 27 28  1  0
 28 45  1  0
 28 46  1  0
 28 47  1  0
M  END

