rmsd178.gzmat
 OpenBabel08211713393D

 47 49  0  0  1  0  0  0  0  0999 V2000
    0.0000    0.0000    0.0000 C   0  0  0  0  0  0  0  0  0  0  0  0
    1.3903    0.0000    0.0000 C   0  0  0  0  0  0  0  0  0  0  0  0
    2.1242    0.0000    1.1790 C   0  0  0  0  0  0  0  0  0  0  0  0
    1.4461   -0.0015    2.4014 C   0  0  0  0  0  0  0  0  0  0  0  0
    0.0336    0.0013    2.4191 C   0  0  0  0  0  0  0  0  0  0  0  0
   -0.6780    0.0160    1.2264 C   0  0  0  0  0  0  0  0  0  0  0  0
   -0.5341   -0.0495    3.6584 O   0  0  0  0  0  0  0  0  0  0  0  0
   -1.9405    0.1504    3.7209 C   0  0  0  0  0  0  0  0  0  0  0  0
    2.2856   -0.0465    3.4659 O   0  0  0  0  0  0  0  0  0  0  0  0
    1.7418    0.2221    4.7521 C   0  0  0  0  0  0  0  0  0  0  0  0
    2.3370   -0.0017   -1.6430 Br  0  0  0  0  0  0  0  0  0  0  0  0
   -0.7823   -0.0544   -1.2314 C   0  0  1  0  0  0  0  0  0  0  0  0
   -1.4676    1.0767   -1.6966 C   0  0  0  0  0  0  0  0  0  0  0  0
   -2.1849    1.0522   -2.8355 N   0  0  0  0  0  0  0  0  0  0  0  0
   -2.2161   -0.1076   -3.5303 C   0  0  0  0  0  0  0  0  0  0  0  0
   -1.5901   -1.2434   -3.1559 N   0  0  0  0  0  0  0  0  0  0  0  0
   -0.8797   -1.2343   -2.0042 C   0  0  0  0  0  0  0  0  0  0  0  0
   -0.1923   -2.4706   -1.6318 C   0  0  0  0  0  0  0  0  0  0  0  0
    0.6542   -3.1119   -2.5495 C   0  0  0  0  0  0  0  0  0  0  0  0
    1.3948   -4.2224   -2.1847 C   0  0  0  0  0  0  0  0  0  0  0  0
    1.2808   -4.7491   -0.8817 C   0  0  0  0  0  0  0  0  0  0  0  0
    0.3849   -4.1775    0.0231 C   0  0  0  0  0  0  0  0  0  0  0  0
   -0.3320   -3.0302   -0.3589 C   0  0  0  0  0  0  0  0  0  0  0  0
   -1.2013   -2.4447    0.4942 O   0  0  0  0  0  0  0  0  0  0  0  0
    0.2319   -4.6303    1.3126 O   0  0  0  0  0  0  0  0  0  0  0  0
   -0.9236   -5.4623    1.4509 C   0  0  0  0  0  0  0  0  0  0  0  0
    2.0854   -5.8130   -0.6728 O   0  0  0  0  0  0  0  0  0  0  0  0
    2.2937   -6.2323    0.6725 C   0  0  0  0  0  0  0  0  0  0  0  0
    3.2160   -0.0040    1.1821 H   0  0  0  0  0  0  0  0  0  0  0  0
   -1.7670    0.0075    1.2185 H   0  0  0  0  0  0  0  0  0  0  0  0
   -2.4729   -0.6715    3.2312 H   0  0  0  0  0  0  0  0  0  0  0  0
   -2.2216    1.1188    3.2950 H   0  0  0  0  0  0  0  0  0  0  0  0
   -2.1279    0.1371    4.8024 H   0  0  0  0  0  0  0  0  0  0  0  0
    1.1916    1.1678    4.7659 H   0  0  0  0  0  0  0  0  0  0  0  0
    2.6450    0.2882    5.3728 H   0  0  0  0  0  0  0  0  0  0  0  0
    1.1097   -0.6115    5.0780 H   0  0  0  0  0  0  0  0  0  0  0  0
   -1.4431    2.0315   -1.1566 H   0  0  0  0  0  0  0  0  0  0  0  0
   -2.7929   -0.1289   -4.4672 H   0  0  0  0  0  0  0  0  0  0  0  0
    0.7353   -2.7057   -3.5630 H   0  0  0  0  0  0  0  0  0  0  0  0
    2.0762   -4.6972   -2.8869 H   0  0  0  0  0  0  0  0  0  0  0  0
   -1.0438   -2.7595    1.4295 H   0  0  0  0  0  0  0  0  0  0  0  0
   -0.9141   -5.7153    2.5166 H   0  0  0  0  0  0  0  0  0  0  0  0
   -0.8298   -6.3611    0.8346 H   0  0  0  0  0  0  0  0  0  0  0  0
   -1.8347   -4.9177    1.1840 H   0  0  0  0  0  0  0  0  0  0  0  0
    1.4213   -6.7829    1.0339 H   0  0  0  0  0  0  0  0  0  0  0  0
    2.5219   -5.3850    1.3289 H   0  0  0  0  0  0  0  0  0  0  0  0
    3.1631   -6.8950    0.5746 H   0  0  0  0  0  0  0  0  0  0  0  0
  1  2  2  0  0  0  0
  1  6  1  0  0  0  0
  2  3  1  0  0  0  0
  3 29  1  0  0  0  0
  3  4  2  0  0  0  0
  4  5  1  0  0  0  0
  4  9  1  0  0  0  0
  5  7  1  0  0  0  0
  6  5  2  0  0  0  0
  7  8  1  0  0  0  0
  8 33  1  0  0  0  0
  9 10  1  0  0  0  0
 10 34  1  0  0  0  0
 10 36  1  0  0  0  0
 10 35  1  0  0  0  0
 11  2  1  0  0  0  0
 12  1  1  6  0  0  0
 13 12  1  0  0  0  0
 13 37  1  0  0  0  0
 14 13  2  0  0  0  0
 15 16  2  0  0  0  0
 15 14  2  0  0  0  0
 16 17  2  0  0  0  0
 17 18  1  0  0  0  0
 17 12  1  0  0  0  0
 18 23  2  0  0  0  0
 19 20  2  0  0  0  0
 19 18  1  0  0  0  0
 20 21  1  0  0  0  0
 21 27  1  0  0  0  0
 21 22  2  0  0  0  0
 22 25  1  0  0  0  0
 23 22  1  0  0  0  0
 23 24  1  0  0  0  0
 24 41  1  0  0  0  0
 25 26  1  0  0  0  0
 26 42  1  0  0  0  0
 27 28  1  0  0  0  0
 28 45  1  0  0  0  0
 28 46  1  0  0  0  0
 30  6  1  0  0  0  0
 31  8  1  0  0  0  0
 32  8  1  0  0  0  0
 38 15  1  0  0  0  0
 39 19  1  0  0  0  0
 40 20  1  0  0  0  0
 43 26  1  0  0  0  0
 44 26  1  0  0  0  0
 47 28  1  0  0  0  0
M  RAD  1  12   2
M  END
$$$$
