47
rmsd178.gzmat
C          0.00000        0.00000        0.00000
C          1.39030        0.00000        0.00000
C          2.12420        0.00000        1.17900
C          1.44610       -0.00150        2.40140
C          0.03360        0.00130        2.41910
C         -0.67800        0.01600        1.22640
O         -0.53410       -0.04950        3.65840
C         -1.94050        0.15040        3.72090
O          2.28560       -0.04650        3.46590
C          1.74180        0.22210        4.75210
Br         2.33700       -0.00170       -1.64300
C         -0.78230       -0.05440       -1.23140
C         -1.46760        1.07670       -1.69660
N         -2.18490        1.05220       -2.83550
C         -2.21610       -0.10760       -3.53030
N         -1.59010       -1.24340       -3.15590
C         -0.87970       -1.23430       -2.00420
C         -0.19230       -2.47060       -1.63180
C          0.65420       -3.11190       -2.54950
C          1.39480       -4.22240       -2.18470
C          1.28080       -4.74910       -0.88170
C          0.38490       -4.17750        0.02310
C         -0.33200       -3.03020       -0.35890
O         -1.20130       -2.44470        0.49420
O          0.23190       -4.63030        1.31260
C         -0.92360       -5.46230        1.45090
O          2.08540       -5.81300       -0.67280
C          2.29370       -6.23230        0.67250
H          3.21600       -0.00400        1.18210
H         -1.76700        0.00750        1.21850
H         -2.47290       -0.67150        3.23120
H         -2.22160        1.11880        3.29500
H         -2.12790        0.13710        4.80240
H          1.19160        1.16780        4.76590
H          2.64500        0.28820        5.37280
H          1.10970       -0.61150        5.07800
H         -1.44310        2.03150       -1.15660
H         -2.79290       -0.12890       -4.46720
H          0.73530       -2.70570       -3.56300
H          2.07620       -4.69720       -2.88690
H         -1.04380       -2.75950        1.42950
H         -0.91410       -5.71530        2.51660
H         -0.82980       -6.36110        0.83460
H         -1.83470       -4.91770        1.18400
H          1.42130       -6.78290        1.03390
H          2.52190       -5.38500        1.32890
H          3.16310       -6.89500        0.57460
