47

C         -0.07730        0.07610        0.16840
C          1.31200        0.23250        0.25780
C          1.95120        0.27300        1.50080
C          1.22320        0.15490        2.68270
C         -0.17880       -0.03750        2.61570
C         -0.79690       -0.08560        1.36630
O         -0.83720       -0.12550        3.79990
C         -2.24050       -0.26760        3.78800
O          1.88120        0.27980        3.86810
C          1.88340       -0.84870        4.73260
Br         2.40320        0.32280       -1.30460
C         -0.82100        0.10680       -1.11530
C         -1.51380       -1.02590       -1.55880
N         -2.14840       -1.08680       -2.73010
C         -2.06860        0.00780       -3.48800
N         -1.47570        1.15390       -3.16540
C         -0.87600        1.23870       -1.96830
C         -0.22220        2.52190       -1.63000
C          0.60850        3.14280       -2.57250
C          1.35970        4.27680       -2.27070
C          1.29150        4.83270       -0.98220
C          0.42880        4.25280       -0.03810
C         -0.34470        3.13080       -0.36700
O         -1.22930        2.68510        0.54940
O          0.25600        4.75120        1.23260
C          1.36290        4.54810        2.11250
O          1.99690        5.91070       -0.56270
C          2.86100        6.55390       -1.47380
H          3.03190        0.39440        1.57260
H         -1.87930       -0.17380        1.29350
H         -2.55360       -1.19690        3.27990
H         -2.73140        0.58920        3.29360
H         -2.55930       -0.30780        4.83770
H          0.87130       -1.08930        5.09130
H          2.52180       -0.58680        5.58740
H          2.30980       -1.73220        4.22420
H         -1.52790       -1.92780       -0.93480
H         -2.54710       -0.03740       -4.47410
H          0.68080        2.69050       -3.56240
H          2.00740        4.71050       -3.03070
H         -1.14050        3.28770        1.31030
H          1.05900        4.92750        3.09780
H          2.24510        5.10460        1.76200
H          1.61130        3.47520        2.19320
H          2.31120        6.94660       -2.34680
H          3.65720        5.87620       -1.82940
H          3.31810        7.39190       -0.93160
