47

C         -0.07380       -0.10280       -0.04220
C          1.32650       -0.14640       -0.09170
C          2.09020       -0.04690        1.07270
C          1.47200        0.11030        2.31220
C          0.05950        0.11380        2.38930
C         -0.68720       -0.01900        1.21780
O         -0.48180        0.31990        3.61960
C         -1.88510        0.40890        3.73510
O          2.25370        0.33910        3.40360
C          2.19670       -0.60750        4.46320
Br         2.23350       -0.35020       -1.75680
C         -0.90230       -0.00370       -1.27240
C         -1.64240       -1.06970       -1.78770
N         -2.33160       -0.98480       -2.92850
C         -2.26120        0.18000       -3.57150
N         -1.61200        1.27450       -3.17020
C         -0.95220        1.20390       -2.01020
C         -0.20110        2.39410       -1.52950
C          0.88080        2.89770       -2.26550
C          1.70640        3.89730       -1.75490
C          1.47330        4.41420       -0.47450
C          0.38340        3.93630        0.26610
C         -0.47320        2.96460       -0.27600
O         -1.55990        2.59860        0.44310
O          0.07250        4.37720        1.53530
C          0.99030        3.96130        2.55500
O          2.32790        5.34580        0.04360
C          1.77010        6.62850        0.30370
H          3.17930       -0.06040        1.03700
H         -1.77230        0.04280        1.24650
H         -2.10020        0.60450        4.79350
H         -2.38140       -0.53020        3.43320
H         -2.28980        1.23380        3.12320
H          1.20350       -0.63130        4.93570
H          2.94700       -0.29450        5.20200
H          2.45230       -1.61860        4.09910
H         -1.65860       -2.03140       -1.26120
H         -2.79530        0.25020       -4.52690
H          1.08470        2.46600       -3.24620
H          2.55600        4.28110       -2.32110
H         -1.53410        3.14890        1.24640
H          0.67050        4.45200        3.48430
H          2.01490        4.27480        2.30500
H          0.96630        2.86790        2.69240
H          0.95480        6.57740        1.04310
H          1.38360        7.08170       -0.62620
H          2.58390        7.25330        0.69610
