47
rmsd179.gzmat
C          0.00000        0.00000        0.00000
C          1.39010        0.00000        0.00000
C          2.12430        0.00000        1.17910
C          1.44550        0.01370        2.40020
C          0.03310        0.02290        2.41870
C         -0.67830        0.00160        1.22600
O         -0.53180        0.05080        3.66000
C         -1.94230        0.22330        3.71220
O          2.28430        0.05810        3.46660
C          1.73920       -0.22200        4.74980
Br         2.33600        0.00750       -1.64360
C         -0.78240        0.03610       -1.23240
C         -1.42470       -1.11360       -1.71160
N         -2.14390       -1.09990       -2.84970
C         -2.22010        0.06720       -3.52860
N         -1.63160        1.21980       -3.14310
C         -0.92060        1.22010       -1.99290
C         -0.26310        2.46560       -1.59860
C          0.59970        3.12070       -2.48200
C          1.31850        4.24550       -2.09150
C          1.17710        4.74040       -0.79000
C          0.29090        4.12300        0.10560
C         -0.44390        3.00880       -0.31850
O         -1.35190        2.43080        0.49720
O          0.02540        4.60530        1.36260
C          1.07830        4.31200        2.28470
O          1.84060        5.79650       -0.26520
C          2.73780        6.48680       -1.12790
H          3.21560       -0.00580        1.18200
H         -1.76770        0.01730        1.21660
H         -2.45950       -0.63020        3.26220
H         -2.23910        1.16620        3.24160
H         -2.13060        0.25630        4.79310
H          1.16710       -1.15500        4.75120
H          1.12750        0.62020        5.09200
H          2.64250       -0.32200        5.36580
H         -1.36310       -2.07380       -1.18420
H         -2.80310        0.08090       -4.46190
H          0.71200        2.72760       -3.49750
H          1.98560        4.72430       -2.79950
H         -1.39650        2.92710        1.36580
H          0.71310        4.75960        3.21550
H          2.01090        4.79110        1.96920
H          1.21450        3.23200        2.39030
H          2.20860        6.91280       -1.98600
H          3.55790        5.83480       -1.44400
H          3.11000        7.28700       -0.47410
