47
rmsd213.gzmat
C          0.00000        0.00000        0.00000
C          1.39080        0.00000        0.00000
C          2.12400        0.00000        1.17980
C          1.44500        0.00700        2.40080
C          0.03290       -0.00970        2.41940
C         -0.67820       -0.02350        1.22620
O         -0.52950        0.00720        3.66140
C         -1.94940       -0.03770        3.72080
O          2.28240        0.08480        3.46680
C          1.75250       -0.22860        4.74860
Br         2.34130        0.00570       -1.63970
C         -0.78270        0.06150       -1.23130
C         -1.47600       -1.06330       -1.69890
N         -2.19490       -1.02990       -2.83670
C         -2.21950        0.13240       -3.52770
N         -1.58400        1.26240       -3.15170
C         -0.87260        1.24470       -2.00120
C         -0.16840        2.46770       -1.61980
C          0.67970        3.11410       -2.53220
C          1.41970        4.22250       -2.16090
C          1.34050        4.71460       -0.84160
C          0.50650        4.08770        0.08510
C         -0.28740        3.00560       -0.33510
O         -1.18940        2.44720        0.50140
O          0.36100        4.51840        1.38320
C          1.14450        3.73510        2.29010
O          2.13270        5.78780       -0.63620
C          1.95360        6.52540        0.56860
H          3.21580       -0.00080        1.18310
H         -1.76740       -0.01850        1.21760
H         -2.13480       -0.04230        4.80270
H         -2.33540       -0.95470        3.26420
H         -2.38730        0.85420        3.26160
H          1.09780        0.57810        5.09530
H          2.66000       -0.28460        5.36430
H          1.23000       -1.18970        4.74470
H         -1.45650       -2.01940       -1.16130
H         -2.79940        0.16030       -4.46280
H          0.74740        2.72550       -3.55350
H          2.07020        4.72590       -2.87210
H         -1.24950        2.96940        1.35110
H          0.91950        4.18750        3.26140
H          2.21050        3.81600        2.05590
H          0.83950        2.68300        2.26880
H          2.37630        5.97550        1.41430
H          0.89820        6.75990        0.74410
H          2.52790        7.43840        0.36630
