
     RDKit          3D

 47 49  0  0  0  0  0  0  0  0999 V2000
   -0.0482   -0.1059   -0.0415 C   0  0  0  0  0  0  0  0  0  0  0  0
    1.3516   -0.1279   -0.0997 C   0  0  0  0  0  0  0  0  0  0  0  0
    2.1413   -0.0135    1.0480 C   0  0  0  0  0  0  0  0  0  0  0  0
    1.5319    0.1335    2.2978 C   0  0  0  0  0  0  0  0  0  0  0  0
    0.1209    0.0840    2.3907 C   0  0  0  0  0  0  0  0  0  0  0  0
   -0.6362   -0.0505    1.2321 C   0  0  0  0  0  0  0  0  0  0  0  0
   -0.5248    0.2975    3.5739 O   0  0  0  0  0  0  0  0  0  0  0  0
   -0.3342   -0.6640    4.6032 C   0  0  0  0  0  0  0  0  0  0  0  0
    2.2077    0.3603    3.4519 O   0  0  0  0  0  0  0  0  0  0  0  0
    3.6103    0.5153    3.4013 C   0  0  0  0  0  0  0  0  0  0  0  0
    2.2442   -0.2952   -1.7779 Br  0  0  0  0  0  0  0  0  0  0  0  0
   -0.8798    0.0205   -1.2670 C   0  0  0  0  0  0  0  0  0  0  0  0
   -1.5863   -1.0366   -1.8424 C   0  0  0  0  0  0  0  0  0  0  0  0
   -2.2673   -0.9101   -2.9847 N   0  0  0  0  0  0  0  0  0  0  0  0
   -2.2222    0.2872   -3.5669 C   0  0  0  0  0  0  0  0  0  0  0  0
   -1.6049    1.3769   -3.1048 N   0  0  0  0  0  0  0  0  0  0  0  0
   -0.9537    1.2621   -1.9444 C   0  0  0  0  0  0  0  0  0  0  0  0
   -0.2375    2.4406   -1.3843 C   0  0  0  0  0  0  0  0  0  0  0  0
    0.8677    2.9929   -2.0448 C   0  0  0  0  0  0  0  0  0  0  0  0
    1.6594    3.9695   -1.4419 C   0  0  0  0  0  0  0  0  0  0  0  0
    1.3638    4.4109   -0.1465 C   0  0  0  0  0  0  0  0  0  0  0  0
    0.2486    3.8839    0.5206 C   0  0  0  0  0  0  0  0  0  0  0  0
   -0.5710    2.9356   -0.1129 C   0  0  0  0  0  0  0  0  0  0  0  0
   -1.6753    2.4991    0.5298 O   0  0  0  0  0  0  0  0  0  0  0  0
   -0.1250    4.2607    1.7921 O   0  0  0  0  0  0  0  0  0  0  0  0
    0.7530    3.8320    2.8392 C   0  0  0  0  0  0  0  0  0  0  0  0
    2.1836    5.3220    0.4612 O   0  0  0  0  0  0  0  0  0  0  0  0
    1.6003    6.5897    0.7396 C   0  0  0  0  0  0  0  0  0  0  0  0
    3.2241   -0.0069    0.9465 H   0  0  0  0  0  0  0  0  0  0  0  0
   -1.7207   -0.0184    1.3265 H   0  0  0  0  0  0  0  0  0  0  0  0
    0.7130   -0.6983    4.9398 H   0  0  0  0  0  0  0  0  0  0  0  0
   -0.6413   -1.6689    4.2627 H   0  0  0  0  0  0  0  0  0  0  0  0
   -0.9770   -0.3592    5.4404 H   0  0  0  0  0  0  0  0  0  0  0  0
    3.8993    1.3552    2.7456 H   0  0  0  0  0  0  0  0  0  0  0  0
    4.1101   -0.4035    3.0479 H   0  0  0  0  0  0  0  0  0  0  0  0
    3.9374    0.7284    4.4272 H   0  0  0  0  0  0  0  0  0  0  0  0
   -1.5831   -2.0240   -1.3658 H   0  0  0  0  0  0  0  0  0  0  0  0
   -2.7502    0.3921   -4.5224 H   0  0  0  0  0  0  0  0  0  0  0  0
    1.1205    2.6178   -3.0373 H   0  0  0  0  0  0  0  0  0  0  0  0
    2.5277    4.3937   -1.9478 H   0  0  0  0  0  0  0  0  0  0  0  0
   -1.6892    2.9570    1.3888 H   0  0  0  0  0  0  0  0  0  0  0  0
    0.4024    4.3172    3.7603 H   0  0  0  0  0  0  0  0  0  0  0  0
    1.7875    4.1440    2.6295 H   0  0  0  0  0  0  0  0  0  0  0  0
    0.7114    2.7391    2.9712 H   0  0  0  0  0  0  0  0  0  0  0  0
    0.7396    6.5017    1.4220 H   0  0  0  0  0  0  0  0  0  0  0  0
    1.2705    7.0808   -0.1928 H   0  0  0  0  0  0  0  0  0  0  0  0
    2.3820    7.2017    1.2104 H   0  0  0  0  0  0  0  0  0  0  0  0
  1  2  2  0
  1  6  1  0
  1 12  1  0
  2  3  1  0
  2 11  1  0
  3  4  2  0
  3 29  1  0
  4  5  1  0
  4  9  1  0
  5  6  2  0
  5  7  1  0
  6 30  1  0
  7  8  1  0
  8 31  1  0
  8 32  1  0
  8 33  1  0
  9 10  1  0
 10 34  1  0
 10 35  1  0
 10 36  1  0
 12 13  2  0
 12 17  1  0
 13 14  1  0
 13 37  1  0
 14 15  2  0
 15 16  1  0
 15 38  1  0
 16 17  2  0
 17 18  1  0
 18 19  2  0
 18 23  1  0
 19 20  1  0
 19 39  1  0
 20 21  2  0
 20 40  1  0
 21 22  1  0
 21 27  1  0
 22 23  2  0
 22 25  1  0
 23 24  1  0
 24 41  1  0
 25 26  1  0
 26 42  1  0
 26 43  1  0
 26 44  1  0
 27 28  1  0
 28 45  1  0
 28 46  1  0
 28 47  1  0
M  END

