47

C         -0.00240       -0.09090        0.22170
C          1.37900       -0.29730        0.32690
C          2.01160       -0.29650        1.57430
C          1.28550       -0.08880        2.74450
C         -0.11060        0.13800        2.66100
C         -0.72270        0.14380        1.40780
O         -0.76960        0.30850        3.83590
C         -2.16560        0.50530        3.80980
O          1.93740       -0.15820        3.93700
C          1.96530        1.01940        4.73220
Br         2.47390       -0.50160       -1.22270
C         -0.73380       -0.09110       -1.06880
C         -1.36380        1.08040       -1.50950
N         -1.98270        1.18600       -2.68520
C         -1.95200        0.09620       -3.45360
N         -1.42180       -1.08080       -3.13540
C         -0.83790       -1.20800       -1.93380
C         -0.27220       -2.53860       -1.61170
C          0.49870       -3.20660       -2.57820
C          1.12930       -4.41520       -2.30530
C          0.97750       -5.01320       -1.04740
C          0.15090       -4.40080       -0.09650
C         -0.47920       -3.17470       -0.37610
O         -1.30970       -2.65690        0.55480
O         -0.11390       -4.94390        1.14270
C         -0.84210       -6.17280        1.12260
O          1.60260       -6.19930       -0.78440
C          2.57960       -6.16420        0.25080
H          3.08700       -0.45190        1.65820
H         -1.80020        0.27230        1.32400
H         -2.68940       -0.35550        3.35760
H         -2.44040        1.41890        3.25310
H         -2.48580        0.61190        4.85440
H          2.41280        1.86100        4.17320
H          2.59670        0.79400        5.60250
H          0.95910        1.30500        5.07420
H         -1.33750        1.97530       -0.87610
H         -2.41750        0.17470       -4.44370
H          0.62330       -2.72630       -3.54930
H          1.76040       -4.91260       -3.04290
H         -1.21710       -3.22430        1.34040
H         -1.00400       -6.46280        2.16970
H         -0.27360       -6.95830        0.60200
H         -1.81660       -6.04110        0.62150
H          2.13700       -5.88700        1.22120
H          3.38130       -5.44630        0.00500
H          3.00720       -7.17390        0.31600
