rmsd151.gzmat
 OpenBabel08211713393D

 47 49  0  0  1  0  0  0  0  0999 V2000
    0.0000    0.0000    0.0000 C   0  0  0  0  0  0  0  0  0  0  0  0
    1.3910    0.0000    0.0000 C   0  0  0  0  0  0  0  0  0  0  0  0
    2.1242    0.0000    1.1793 C   0  0  0  0  0  0  0  0  0  0  0  0
    1.4460   -0.0002    2.4014 C   0  0  0  0  0  0  0  0  0  0  0  0
    0.0341   -0.0190    2.4199 C   0  0  0  0  0  0  0  0  0  0  0  0
   -0.6771   -0.0259    1.2265 C   0  0  0  0  0  0  0  0  0  0  0  0
   -0.5311   -0.0053    3.6612 O   0  0  0  0  0  0  0  0  0  0  0  0
   -1.9463   -0.1280    3.7201 C   0  0  0  0  0  0  0  0  0  0  0  0
    2.2898    0.0582    3.4626 O   0  0  0  0  0  0  0  0  0  0  0  0
    1.7450   -0.1230    4.7625 C   0  0  0  0  0  0  0  0  0  0  0  0
    2.3412    0.0063   -1.6398 Br  0  0  0  0  0  0  0  0  0  0  0  0
   -0.7820    0.0590   -1.2317 C   0  0  2  0  0  0  0  0  0  0  0  0
   -1.4773   -1.0676   -1.6927 C   0  0  0  0  0  0  0  0  0  0  0  0
   -2.1921   -1.0418   -2.8329 N   0  0  0  0  0  0  0  0  0  0  0  0
   -2.2118    0.1153   -3.5331 C   0  0  0  0  0  0  0  0  0  0  0  0
   -1.5763    1.2472   -3.1630 N   0  0  0  0  0  0  0  0  0  0  0  0
   -0.8680    1.2369   -2.0101 C   0  0  0  0  0  0  0  0  0  0  0  0
   -0.1684    2.4647   -1.6367 C   0  0  0  0  0  0  0  0  0  0  0  0
    0.6679    3.1161   -2.5571 C   0  0  0  0  0  0  0  0  0  0  0  0
    1.3903    4.2401   -2.1984 C   0  0  0  0  0  0  0  0  0  0  0  0
    1.3083    4.7417   -0.8827 C   0  0  0  0  0  0  0  0  0  0  0  0
    0.4939    4.1047    0.0542 C   0  0  0  0  0  0  0  0  0  0  0  0
   -0.2858    3.0072   -0.3538 C   0  0  0  0  0  0  0  0  0  0  0  0
   -1.1717    2.4396    0.4934 O   0  0  0  0  0  0  0  0  0  0  0  0
    0.3548    4.5355    1.3532 O   0  0  0  0  0  0  0  0  0  0  0  0
    1.1700    3.7719    2.2492 C   0  0  0  0  0  0  0  0  0  0  0  0
    2.0749    5.8359   -0.6919 O   0  0  0  0  0  0  0  0  0  0  0  0
    1.8815    6.5815    0.5059 C   0  0  0  0  0  0  0  0  0  0  0  0
    3.2158    0.0032    1.1826 H   0  0  0  0  0  0  0  0  0  0  0  0
   -1.7664   -0.0175    1.2188 H   0  0  0  0  0  0  0  0  0  0  0  0
   -2.2832   -1.0601    3.2549 H   0  0  0  0  0  0  0  0  0  0  0  0
   -2.4309    0.7439    3.2691 H   0  0  0  0  0  0  0  0  0  0  0  0
   -2.1298   -0.1517    4.8023 H   0  0  0  0  0  0  0  0  0  0  0  0
    1.1943   -1.0658    4.8381 H   0  0  0  0  0  0  0  0  0  0  0  0
    1.1135    0.7294    5.0354 H   0  0  0  0  0  0  0  0  0  0  0  0
    2.6491   -0.1522    5.3858 H   0  0  0  0  0  0  0  0  0  0  0  0
   -1.4623   -2.0194   -1.1474 H   0  0  0  0  0  0  0  0  0  0  0  0
   -2.7874    0.1369   -4.4709 H   0  0  0  0  0  0  0  0  0  0  0  0
    0.7385    2.7198   -3.5755 H   0  0  0  0  0  0  0  0  0  0  0  0
    2.0269    4.7499   -2.9175 H   0  0  0  0  0  0  0  0  0  0  0  0
   -1.2313    2.9642    1.3421 H   0  0  0  0  0  0  0  0  0  0  0  0
    0.9434    4.2153    3.2240 H   0  0  0  0  0  0  0  0  0  0  0  0
    2.2301    3.8841    2.0025 H   0  0  0  0  0  0  0  0  0  0  0  0
    0.8952    2.7116    2.2269 H   0  0  0  0  0  0  0  0  0  0  0  0
    2.3229    6.0523    1.3548 H   0  0  0  0  0  0  0  0  0  0  0  0
    0.8209    6.7888    0.6837 H   0  0  0  0  0  0  0  0  0  0  0  0
    2.4293    7.5080    0.2910 H   0  0  0  0  0  0  0  0  0  0  0  0
  1  2  2  0  0  0  0
  1  6  1  0  0  0  0
  2  3  1  0  0  0  0
  3 29  1  0  0  0  0
  3  4  2  0  0  0  0
  4  5  1  0  0  0  0
  4  9  1  0  0  0  0
  5  7  1  0  0  0  0
  6  5  2  0  0  0  0
  7  8  1  0  0  0  0
  8 33  1  0  0  0  0
  9 10  1  0  0  0  0
 10 34  1  0  0  0  0
 10 35  1  0  0  0  0
 10 36  1  0  0  0  0
 11  2  1  0  0  0  0
 12  1  1  6  0  0  0
 13 12  1  0  0  0  0
 13 37  1  0  0  0  0
 14 13  2  0  0  0  0
 15 16  2  0  0  0  0
 15 14  2  0  0  0  0
 16 17  2  0  0  0  0
 17 18  1  0  0  0  0
 17 12  1  0  0  0  0
 18 23  2  0  0  0  0
 19 20  2  0  0  0  0
 19 18  1  0  0  0  0
 20 21  1  0  0  0  0
 21 27  1  0  0  0  0
 21 22  2  0  0  0  0
 22 25  1  0  0  0  0
 23 22  1  0  0  0  0
 23 24  1  0  0  0  0
 24 41  1  0  0  0  0
 25 26  1  0  0  0  0
 26 42  1  0  0  0  0
 27 28  1  0  0  0  0
 28 46  1  0  0  0  0
 28 45  1  0  0  0  0
 30  6  1  0  0  0  0
 31  8  1  0  0  0  0
 32  8  1  0  0  0  0
 38 15  1  0  0  0  0
 39 19  1  0  0  0  0
 40 20  1  0  0  0  0
 43 26  1  0  0  0  0
 44 26  1  0  0  0  0
 47 28  1  0  0  0  0
M  RAD  1  12   2
M  END
$$$$
