
     RDKit          3D

 47 49  0  0  0  0  0  0  0  0999 V2000
   -0.0773    0.0761    0.1684 C   0  0  0  0  0  0  0  0  0  0  0  0
    1.3120    0.2325    0.2578 C   0  0  0  0  0  0  0  0  0  0  0  0
    1.9512    0.2730    1.5008 C   0  0  0  0  0  0  0  0  0  0  0  0
    1.2232    0.1549    2.6827 C   0  0  0  0  0  0  0  0  0  0  0  0
   -0.1788   -0.0375    2.6157 C   0  0  0  0  0  0  0  0  0  0  0  0
   -0.7969   -0.0856    1.3663 C   0  0  0  0  0  0  0  0  0  0  0  0
   -0.8372   -0.1255    3.7999 O   0  0  0  0  0  0  0  0  0  0  0  0
   -2.2405   -0.2676    3.7880 C   0  0  0  0  0  0  0  0  0  0  0  0
    1.8812    0.2798    3.8681 O   0  0  0  0  0  0  0  0  0  0  0  0
    1.8834   -0.8487    4.7326 C   0  0  0  0  0  0  0  0  0  0  0  0
    2.4032    0.3228   -1.3046 Br  0  0  0  0  0  0  0  0  0  0  0  0
   -0.8210    0.1068   -1.1153 C   0  0  0  0  0  0  0  0  0  0  0  0
   -1.5138   -1.0259   -1.5588 C   0  0  0  0  0  0  0  0  0  0  0  0
   -2.1484   -1.0868   -2.7301 N   0  0  0  0  0  0  0  0  0  0  0  0
   -2.0686    0.0078   -3.4880 C   0  0  0  0  0  0  0  0  0  0  0  0
   -1.4757    1.1539   -3.1654 N   0  0  0  0  0  0  0  0  0  0  0  0
   -0.8760    1.2387   -1.9683 C   0  0  0  0  0  0  0  0  0  0  0  0
   -0.2222    2.5219   -1.6300 C   0  0  0  0  0  0  0  0  0  0  0  0
    0.6085    3.1428   -2.5725 C   0  0  0  0  0  0  0  0  0  0  0  0
    1.3597    4.2768   -2.2707 C   0  0  0  0  0  0  0  0  0  0  0  0
    1.2915    4.8327   -0.9822 C   0  0  0  0  0  0  0  0  0  0  0  0
    0.4288    4.2528   -0.0381 C   0  0  0  0  0  0  0  0  0  0  0  0
   -0.3447    3.1308   -0.3670 C   0  0  0  0  0  0  0  0  0  0  0  0
   -1.2293    2.6851    0.5494 O   0  0  0  0  0  0  0  0  0  0  0  0
    0.2560    4.7512    1.2326 O   0  0  0  0  0  0  0  0  0  0  0  0
    1.3629    4.5481    2.1125 C   0  0  0  0  0  0  0  0  0  0  0  0
    1.9969    5.9107   -0.5627 O   0  0  0  0  0  0  0  0  0  0  0  0
    2.8610    6.5539   -1.4738 C   0  0  0  0  0  0  0  0  0  0  0  0
    3.0319    0.3944    1.5726 H   0  0  0  0  0  0  0  0  0  0  0  0
   -1.8793   -0.1738    1.2935 H   0  0  0  0  0  0  0  0  0  0  0  0
   -2.5536   -1.1969    3.2799 H   0  0  0  0  0  0  0  0  0  0  0  0
   -2.7314    0.5892    3.2936 H   0  0  0  0  0  0  0  0  0  0  0  0
   -2.5593   -0.3078    4.8377 H   0  0  0  0  0  0  0  0  0  0  0  0
    0.8713   -1.0893    5.0913 H   0  0  0  0  0  0  0  0  0  0  0  0
    2.5218   -0.5868    5.5874 H   0  0  0  0  0  0  0  0  0  0  0  0
    2.3098   -1.7322    4.2242 H   0  0  0  0  0  0  0  0  0  0  0  0
   -1.5279   -1.9278   -0.9348 H   0  0  0  0  0  0  0  0  0  0  0  0
   -2.5471   -0.0374   -4.4741 H   0  0  0  0  0  0  0  0  0  0  0  0
    0.6808    2.6905   -3.5624 H   0  0  0  0  0  0  0  0  0  0  0  0
    2.0074    4.7105   -3.0307 H   0  0  0  0  0  0  0  0  0  0  0  0
   -1.1405    3.2877    1.3103 H   0  0  0  0  0  0  0  0  0  0  0  0
    1.0590    4.9275    3.0978 H   0  0  0  0  0  0  0  0  0  0  0  0
    2.2451    5.1046    1.7620 H   0  0  0  0  0  0  0  0  0  0  0  0
    1.6113    3.4752    2.1932 H   0  0  0  0  0  0  0  0  0  0  0  0
    2.3112    6.9466   -2.3468 H   0  0  0  0  0  0  0  0  0  0  0  0
    3.6572    5.8762   -1.8294 H   0  0  0  0  0  0  0  0  0  0  0  0
    3.3181    7.3919   -0.9316 H   0  0  0  0  0  0  0  0  0  0  0  0
  1  2  2  0
  1  6  1  0
  1 12  1  0
  2  3  1  0
  2 11  1  0
  3  4  2  0
  3 29  1  0
  4  5  1  0
  4  9  1  0
  5  6  2  0
  5  7  1  0
  6 30  1  0
  7  8  1  0
  8 31  1  0
  8 32  1  0
  8 33  1  0
  9 10  1  0
 10 34  1  0
 10 35  1  0
 10 36  1  0
 12 13  2  0
 12 17  1  0
 13 14  1  0
 13 37  1  0
 14 15  2  0
 15 16  1  0
 15 38  1  0
 16 17  2  0
 17 18  1  0
 18 19  2  0
 18 23  1  0
 19 20  1  0
 19 39  1  0
 20 21  2  0
 20 40  1  0
 21 22  1  0
 21 27  1  0
 22 23  2  0
 22 25  1  0
 23 24  1  0
 24 41  1  0
 25 26  1  0
 26 42  1  0
 26 43  1  0
 26 44  1  0
 27 28  1  0
 28 45  1  0
 28 46  1  0
 28 47  1  0
M  END

