rmsd162.gzmat
 OpenBabel08211713413D

 34 35  0  0  1  0  0  0  0  0999 V2000
    0.0000    0.0000    0.0000 S   0  0  0  0  0  0  0  0  0  0  0  0
    1.7395    0.0000    0.0000 C   0  0  2  0  0  0  0  0  0  0  0  0
    2.5434    0.0000    1.1308 N   0  0  0  0  0  0  0  0  0  0  0  0
    3.8717    0.0979    0.7147 C   0  0  0  0  0  0  0  0  0  0  0  0
    3.9386    0.1562   -0.6282 N   0  0  0  0  0  0  0  0  0  0  0  0
    2.6373    0.0923   -1.0828 C   0  0  0  0  0  0  0  0  0  0  0  0
    2.3357    0.0830   -2.4906 N   0  0  0  0  0  0  0  0  0  0  0  0
    2.9431    0.8220   -3.2347 O   0  0  0  0  0  0  0  0  0  0  0  0
    1.4534   -0.6866   -2.8528 O   0  0  0  0  0  0  0  0  0  0  0  0
    2.0979   -0.1335    2.5175 C   0  0  0  0  0  0  0  0  0  0  0  0
    3.1372   -0.8512    3.3349 C   0  0  0  0  0  0  0  0  0  0  0  0
    3.8761   -0.1597    4.2944 C   0  0  0  0  0  0  0  0  0  0  0  0
    4.8343   -0.8363    5.0463 C   0  0  0  0  0  0  0  0  0  0  0  0
    5.0536   -2.1973    4.8388 C   0  0  0  0  0  0  0  0  0  0  0  0
    4.3102   -2.8870    3.8821 C   0  0  0  0  0  0  0  0  0  0  0  0
    3.3482   -2.2159    3.1316 C   0  0  0  0  0  0  0  0  0  0  0  0
   -0.3818   -1.7145   -0.4932 C   0  0  0  0  0  0  0  0  0  0  0  0
   -0.2780   -2.6222    0.6853 C   0  0  0  0  0  0  0  0  0  0  0  0
    0.6540   -2.7562    1.4380 O   0  0  0  0  0  0  0  0  0  0  0  0
   -1.4265   -3.3287    0.8206 O   0  0  0  0  0  0  0  0  0  0  0  0
   -1.4753   -4.2371    1.9184 C   0  0  0  0  0  0  0  0  0  0  0  0
    4.7167    0.1177    1.3876 H   0  0  0  0  0  0  0  0  0  0  0  0
    1.1344   -0.7112    2.5586 H   0  0  0  0  0  0  0  0  0  0  0  0
    1.8741    0.8827    2.9263 H   0  0  0  0  0  0  0  0  0  0  0  0
    3.7086    0.9028    4.4611 H   0  0  0  0  0  0  0  0  0  0  0  0
    5.4133   -0.3007    5.7960 H   0  0  0  0  0  0  0  0  0  0  0  0
    5.8054   -2.7220    5.4260 H   0  0  0  0  0  0  0  0  0  0  0  0
    4.4789   -3.9506    3.7194 H   0  0  0  0  0  0  0  0  0  0  0  0
    2.7595   -2.7559    2.3840 H   0  0  0  0  0  0  0  0  0  0  0  0
    0.2956   -2.0613   -1.3136 H   0  0  0  0  0  0  0  0  0  0  0  0
   -1.3999   -1.7203   -0.9460 H   0  0  0  0  0  0  0  0  0  0  0  0
   -0.6420   -4.9465    1.8676 H   0  0  0  0  0  0  0  0  0  0  0  0
   -2.4388   -4.7409    1.7782 H   0  0  0  0  0  0  0  0  0  0  0  0
   -1.4486   -3.6810    2.8611 H   0  0  0  0  0  0  0  0  0  0  0  0
  2  1  1  1  0  0  0
  2  3  1  0  0  0  0
  3 10  1  0  0  0  0
  4  3  1  0  0  0  0
  4 22  1  0  0  0  0
  5  4  2  0  0  0  0
  6  5  2  0  0  0  0
  6  2  1  0  0  0  0
  7  6  1  0  0  0  0
  8  7  2  0  0  0  0
  9  7  2  0  0  0  0
 10 23  1  0  0  0  0
 10 24  1  0  0  0  0
 10 11  1  0  0  0  0
 11 12  1  0  0  0  0
 12 25  1  0  0  0  0
 12 13  2  0  0  0  0
 13 26  1  0  0  0  0
 14 13  1  0  0  0  0
 14 27  1  0  0  0  0
 15 14  2  0  0  0  0
 16 11  2  0  0  0  0
 16 15  1  0  0  0  0
 17  1  1  0  0  0  0
 17 18  1  0  0  0  0
 18 20  1  0  0  0  0
 18 19  2  0  0  0  0
 20 21  1  0  0  0  0
 21 34  1  0  0  0  0
 28 15  1  0  0  0  0
 29 16  1  0  0  0  0
 30 17  1  0  0  0  0
 31 17  1  0  0  0  0
 32 21  1  0  0  0  0
 33 21  1  0  0  0  0
M  RAD  1   2   2
M  END
$$$$
