rmsd169.gzmat
 OpenBabel08211713413D

 34 35  0  0  1  0  0  0  0  0999 V2000
    0.0000    0.0000    0.0000 S   0  0  0  0  0  0  0  0  0  0  0  0
    1.7394    0.0000    0.0000 C   0  0  1  0  0  0  0  0  0  0  0  0
    2.5388    0.0000    1.1345 N   0  0  0  0  0  0  0  0  0  0  0  0
    3.8692   -0.0641    0.7232 C   0  0  0  0  0  0  0  0  0  0  0  0
    3.9421   -0.1077   -0.6206 N   0  0  0  0  0  0  0  0  0  0  0  0
    2.6421   -0.0669   -1.0801 C   0  0  0  0  0  0  0  0  0  0  0  0
    2.3471   -0.0615   -2.4894 N   0  0  0  0  0  0  0  0  0  0  0  0
    1.4612    0.7004   -2.8586 O   0  0  0  0  0  0  0  0  0  0  0  0
    2.9634   -0.7980   -3.2287 O   0  0  0  0  0  0  0  0  0  0  0  0
    2.0542    0.0947    2.5119 C   0  0  0  0  0  0  0  0  0  0  0  0
    3.1997    0.1669    3.4815 C   0  0  0  0  0  0  0  0  0  0  0  0
    3.6702    1.4102    3.9047 C   0  0  0  0  0  0  0  0  0  0  0  0
    4.7319    1.4782    4.8044 C   0  0  0  0  0  0  0  0  0  0  0  0
    5.3205    0.3070    5.2786 C   0  0  0  0  0  0  0  0  0  0  0  0
    4.8464   -0.9348    4.8570 C   0  0  0  0  0  0  0  0  0  0  0  0
    3.7843   -1.0071    3.9593 C   0  0  0  0  0  0  0  0  0  0  0  0
   -0.3771    1.7054   -0.5214 C   0  0  0  0  0  0  0  0  0  0  0  0
   -0.2813    2.6549    0.6250 C   0  0  0  0  0  0  0  0  0  0  0  0
    0.5813    2.7362    1.4625 O   0  0  0  0  0  0  0  0  0  0  0  0
   -1.3515    3.4874    0.6019 O   0  0  0  0  0  0  0  0  0  0  0  0
   -1.3958    4.4836    1.6194 C   0  0  0  0  0  0  0  0  0  0  0  0
    4.7151   -0.0749    1.3955 H   0  0  0  0  0  0  0  0  0  0  0  0
    1.3968   -0.7826    2.7363 H   0  0  0  0  0  0  0  0  0  0  0  0
    1.4013    1.0080    2.6075 H   0  0  0  0  0  0  0  0  0  0  0  0
    3.2112    2.3269    3.5307 H   0  0  0  0  0  0  0  0  0  0  0  0
    5.1011    2.4476    5.1360 H   0  0  0  0  0  0  0  0  0  0  0  0
    6.1516    0.3617    5.9799 H   0  0  0  0  0  0  0  0  0  0  0  0
    5.3062   -1.8488    5.2294 H   0  0  0  0  0  0  0  0  0  0  0  0
    3.4152   -1.9776    3.6304 H   0  0  0  0  0  0  0  0  0  0  0  0
   -1.3928    1.7028   -0.9811 H   0  0  0  0  0  0  0  0  0  0  0  0
    0.3007    2.0347   -1.3496 H   0  0  0  0  0  0  0  0  0  0  0  0
   -1.4423    4.0129    2.6069 H   0  0  0  0  0  0  0  0  0  0  0  0
   -2.3208    5.0258    1.3903 H   0  0  0  0  0  0  0  0  0  0  0  0
   -0.5212    5.1393    1.5476 H   0  0  0  0  0  0  0  0  0  0  0  0
  2  1  1  1  0  0  0
  2  3  1  0  0  0  0
  3 10  1  0  0  0  0
  4  3  1  0  0  0  0
  4 22  1  0  0  0  0
  5  4  2  0  0  0  0
  6  5  2  0  0  0  0
  6  2  1  0  0  0  0
  7  6  1  0  0  0  0
  8  7  2  0  0  0  0
  9  7  2  0  0  0  0
 10 24  1  0  0  0  0
 10 23  1  0  0  0  0
 10 11  1  0  0  0  0
 11 12  2  0  0  0  0
 11 16  1  0  0  0  0
 12 13  1  0  0  0  0
 13 26  1  0  0  0  0
 13 14  2  0  0  0  0
 14 27  1  0  0  0  0
 15 28  1  0  0  0  0
 15 14  1  0  0  0  0
 16 15  2  0  0  0  0
 17  1  1  0  0  0  0
 17 18  1  0  0  0  0
 18 19  2  0  0  0  0
 20 18  1  0  0  0  0
 20 21  1  0  0  0  0
 21 32  1  0  0  0  0
 25 12  1  0  0  0  0
 29 16  1  0  0  0  0
 30 17  1  0  0  0  0
 31 17  1  0  0  0  0
 33 21  1  0  0  0  0
 34 21  1  0  0  0  0
M  RAD  1   2   2
M  END
$$$$
