34
rmsd169.gzmat
S          0.00000        0.00000        0.00000
C          1.73940        0.00000        0.00000
N          2.53880        0.00000        1.13450
C          3.86920       -0.06410        0.72320
N          3.94210       -0.10770       -0.62060
C          2.64210       -0.06690       -1.08010
N          2.34710       -0.06150       -2.48940
O          1.46120        0.70040       -2.85860
O          2.96340       -0.79800       -3.22870
C          2.05420        0.09470        2.51190
C          3.19970        0.16690        3.48150
C          3.67020        1.41020        3.90470
C          4.73190        1.47820        4.80440
C          5.32050        0.30700        5.27860
C          4.84640       -0.93480        4.85700
C          3.78430       -1.00710        3.95930
C         -0.37710        1.70540       -0.52140
C         -0.28130        2.65490        0.62500
O          0.58130        2.73620        1.46250
O         -1.35150        3.48740        0.60190
C         -1.39580        4.48360        1.61940
H          4.71510       -0.07490        1.39550
H          1.39680       -0.78260        2.73630
H          1.40130        1.00800        2.60750
H          3.21120        2.32690        3.53070
H          5.10110        2.44760        5.13600
H          6.15160        0.36170        5.97990
H          5.30620       -1.84880        5.22940
H          3.41520       -1.97760        3.63040
H         -1.39280        1.70280       -0.98110
H          0.30070        2.03470       -1.34960
H         -1.44230        4.01290        2.60690
H         -2.32080        5.02580        1.39030
H         -0.52120        5.13930        1.54760
