
     RDKit          3D

 34 35  0  0  0  0  0  0  0  0999 V2000
    0.0044    0.3629    0.3093 S   0  0  0  0  0  0  0  0  0  0  0  0
    1.7021   -0.0126    0.0792 C   0  0  0  0  0  0  0  0  0  0  0  0
    2.6000   -0.0561    1.1281 N   0  0  0  0  0  0  0  0  0  0  0  0
    3.8368   -0.3054    0.5940 C   0  0  0  0  0  0  0  0  0  0  0  0
    3.7984   -0.4238   -0.7141 N   0  0  0  0  0  0  0  0  0  0  0  0
    2.4985   -0.2438   -1.0453 C   0  0  0  0  0  0  0  0  0  0  0  0
    2.0660   -0.2892   -2.4232 N   0  0  0  0  0  0  0  0  0  0  0  0
    2.9126   -0.2131   -3.2914 O   0  0  0  0  0  0  0  0  0  0  0  0
    0.8552   -0.3933   -2.6249 O   0  0  0  0  0  0  0  0  0  0  0  0
    2.2801    0.1264    2.5504 C   0  0  0  0  0  0  0  0  0  0  0  0
    3.2057   -0.6636    3.4418 C   0  0  0  0  0  0  0  0  0  0  0  0
    4.2238   -0.0251    4.1605 C   0  0  0  0  0  0  0  0  0  0  0  0
    5.0942   -0.7644    4.9674 C   0  0  0  0  0  0  0  0  0  0  0  0
    4.9519   -2.1506    5.0576 C   0  0  0  0  0  0  0  0  0  0  0  0
    3.9353   -2.7938    4.3427 C   0  0  0  0  0  0  0  0  0  0  0  0
    3.0647   -2.0570    3.5390 C   0  0  0  0  0  0  0  0  0  0  0  0
   -0.7519   -1.2185   -0.1746 C   0  0  0  0  0  0  0  0  0  0  0  0
   -0.4313   -2.3765    0.7478 C   0  0  0  0  0  0  0  0  0  0  0  0
    0.3787   -2.3730    1.6440 O   0  0  0  0  0  0  0  0  0  0  0  0
   -1.1610   -3.4458    0.4127 O   0  0  0  0  0  0  0  0  0  0  0  0
   -0.9285   -4.6407    1.1641 C   0  0  0  0  0  0  0  0  0  0  0  0
    4.7226   -0.4021    1.2188 H   0  0  0  0  0  0  0  0  0  0  0  0
    1.2398   -0.2004    2.6709 H   0  0  0  0  0  0  0  0  0  0  0  0
    2.3334    1.1996    2.7914 H   0  0  0  0  0  0  0  0  0  0  0  0
    4.3368    1.0603    4.0889 H   0  0  0  0  0  0  0  0  0  0  0  0
    5.8841   -0.2556    5.5250 H   0  0  0  0  0  0  0  0  0  0  0  0
    5.6313   -2.7309    5.6865 H   0  0  0  0  0  0  0  0  0  0  0  0
    3.8191   -3.8779    4.4157 H   0  0  0  0  0  0  0  0  0  0  0  0
    2.2654   -2.5490    2.9815 H   0  0  0  0  0  0  0  0  0  0  0  0
   -0.4282   -1.4558   -1.2000 H   0  0  0  0  0  0  0  0  0  0  0  0
   -1.8396   -1.0554   -0.2061 H   0  0  0  0  0  0  0  0  0  0  0  0
    0.1131   -4.9746    1.0461 H   0  0  0  0  0  0  0  0  0  0  0  0
   -1.6176   -5.3918    0.7609 H   0  0  0  0  0  0  0  0  0  0  0  0
   -1.1261   -4.4714    2.2329 H   0  0  0  0  0  0  0  0  0  0  0  0
  1  2  1  0
  1 17  1  0
  2  3  1  0
  2  6  2  0
  3  4  1  0
  3 10  1  0
  4  5  2  0
  4 22  1  0
  5  6  1  0
  6  7  1  0
  7  8  1  0
  7  9  2  0
 10 11  1  0
 10 23  1  0
 10 24  1  0
 11 12  2  0
 11 16  1  0
 12 13  1  0
 12 25  1  0
 13 14  2  0
 13 26  1  0
 14 15  1  0
 14 27  1  0
 15 16  2  0
 15 28  1  0
 16 29  1  0
 17 18  1  0
 17 30  1  0
 17 31  1  0
 18 19  2  0
 18 20  1  0
 20 21  1  0
 21 32  1  0
 21 33  1  0
 21 34  1  0
M  CHG  2   7   1   8  -1
M  END

