rmsd86.gzmat
 OpenBabel08211713413D

 34 35  0  0  1  0  0  0  0  0999 V2000
    0.0000    0.0000    0.0000 S   0  0  0  0  0  0  0  0  0  0  0  0
    1.7395    0.0000    0.0000 C   0  0  2  0  0  0  0  0  0  0  0  0
    2.5438    0.0000    1.1306 N   0  0  0  0  0  0  0  0  0  0  0  0
    3.8724    0.0796    0.7137 C   0  0  0  0  0  0  0  0  0  0  0  0
    3.9393    0.1299   -0.6299 N   0  0  0  0  0  0  0  0  0  0  0  0
    2.6374    0.0788   -1.0831 C   0  0  0  0  0  0  0  0  0  0  0  0
    2.3328    0.0730   -2.4905 N   0  0  0  0  0  0  0  0  0  0  0  0
    1.4644   -0.7103   -2.8558 O   0  0  0  0  0  0  0  0  0  0  0  0
    2.9204    0.8324   -3.2302 O   0  0  0  0  0  0  0  0  0  0  0  0
    2.0896   -0.1050    2.5170 C   0  0  0  0  0  0  0  0  0  0  0  0
    3.1419   -0.7639    3.3657 C   0  0  0  0  0  0  0  0  0  0  0  0
    3.9409    0.0012    4.2154 C   0  0  0  0  0  0  0  0  0  0  0  0
    4.9127   -0.6224    4.9948 C   0  0  0  0  0  0  0  0  0  0  0  0
    5.0852   -2.0041    4.9248 C   0  0  0  0  0  0  0  0  0  0  0  0
    4.2824   -2.7667    4.0775 C   0  0  0  0  0  0  0  0  0  0  0  0
    3.3077   -2.1480    3.2987 C   0  0  0  0  0  0  0  0  0  0  0  0
   -0.3795   -1.7143   -0.4938 C   0  0  0  0  0  0  0  0  0  0  0  0
   -0.2635   -2.6389    0.6707 C   0  0  0  0  0  0  0  0  0  0  0  0
    0.6382   -2.7237    1.4662 O   0  0  0  0  0  0  0  0  0  0  0  0
   -1.3595   -3.4345    0.7280 O   0  0  0  0  0  0  0  0  0  0  0  0
   -1.3776   -4.3992    1.7771 C   0  0  0  0  0  0  0  0  0  0  0  0
    4.7182    0.0890    1.3856 H   0  0  0  0  0  0  0  0  0  0  0  0
    1.1421   -0.7090    2.5639 H   0  0  0  0  0  0  0  0  0  0  0  0
    1.8313    0.9155    2.8934 H   0  0  0  0  0  0  0  0  0  0  0  0
    3.8092    1.0800    4.2739 H   0  0  0  0  0  0  0  0  0  0  0  0
    5.5391   -0.0293    5.6582 H   0  0  0  0  0  0  0  0  0  0  0  0
    5.8478   -2.4869    5.5336 H   0  0  0  0  0  0  0  0  0  0  0  0
    4.4153   -3.8462    4.0224 H   0  0  0  0  0  0  0  0  0  0  0  0
    2.6745   -2.7430    2.6337 H   0  0  0  0  0  0  0  0  0  0  0  0
    0.2924   -2.0539   -1.3225 H   0  0  0  0  0  0  0  0  0  0  0  0
   -1.4009   -1.7222   -0.9394 H   0  0  0  0  0  0  0  0  0  0  0  0
   -0.5249   -5.0799    1.6807 H   0  0  0  0  0  0  0  0  0  0  0  0
   -2.3270   -4.9218    1.6120 H   0  0  0  0  0  0  0  0  0  0  0  0
   -1.3602   -3.8984    2.7506 H   0  0  0  0  0  0  0  0  0  0  0  0
  2  1  1  1  0  0  0
  2  3  1  0  0  0  0
  3 10  1  0  0  0  0
  4  3  1  0  0  0  0
  4 22  1  0  0  0  0
  5  4  2  0  0  0  0
  6  5  2  0  0  0  0
  6  2  1  0  0  0  0
  7  6  1  0  0  0  0
  8  7  2  0  0  0  0
  9  7  2  0  0  0  0
 10 23  1  0  0  0  0
 10 24  1  0  0  0  0
 10 11  1  0  0  0  0
 11 12  1  0  0  0  0
 12 25  1  0  0  0  0
 12 13  2  0  0  0  0
 13 26  1  0  0  0  0
 14 13  1  0  0  0  0
 14 27  1  0  0  0  0
 15 14  2  0  0  0  0
 16 11  2  0  0  0  0
 16 15  1  0  0  0  0
 17  1  1  0  0  0  0
 17 18  1  0  0  0  0
 18 20  1  0  0  0  0
 18 19  2  0  0  0  0
 20 21  1  0  0  0  0
 21 34  1  0  0  0  0
 28 15  1  0  0  0  0
 29 16  1  0  0  0  0
 30 17  1  0  0  0  0
 31 17  1  0  0  0  0
 32 21  1  0  0  0  0
 33 21  1  0  0  0  0
M  RAD  1   2   2
M  END
$$$$
