34
rmsd103.gzmat
S          0.00000        0.00000        0.00000
C          1.73820        0.00000        0.00000
N          2.55790        0.00000        1.11870
C          3.88090       -0.05640        0.68340
N          3.93060       -0.09050       -0.66290
C          2.62280       -0.04990       -1.09570
N          2.29350       -0.01500       -2.49930
O          2.79730       -0.82580       -3.24610
O          1.49480        0.84440       -2.84770
C          2.14960        0.09260        2.51740
C          2.81820       -0.98210        3.32960
C          2.56990       -2.32600        3.04470
C          3.19780       -3.31980        3.79090
C          4.06630       -2.97270        4.82530
C          4.30340       -1.63040        5.11550
C          3.68090       -0.63240        4.36780
C         -0.35620        1.76870       -0.26870
C         -0.14100        2.55040        0.98360
O          0.77160        2.46640        1.76680
O         -1.15700        3.43250        1.14420
C         -1.06520        4.29780        2.27250
H          4.73440       -0.07740        1.34400
H          1.03660        0.01990        2.61720
H          2.39540        1.12310        2.89130
H          1.89120       -2.59840        2.23680
H          3.01110       -4.36880        3.56490
H          4.56000       -3.75060        5.40570
H          4.97820       -1.36000        5.92580
H          3.87090        0.41470        4.59850
H         -1.40130        1.85500       -0.64500
H          0.27600        2.18220       -1.09420
H         -0.95890        3.71960        3.19600
H         -2.01940        4.83690        2.24630
H         -0.21720        4.97910        2.14670
