34
rmsd38.gzmat
S          0.00000        0.00000        0.00000
C          1.73990        0.00000        0.00000
N          2.54380        0.00000        1.13080
C          3.87230        0.09210        0.71430
N          3.93900        0.14670       -0.62860
C          2.63730        0.08700       -1.08300
N          2.33650        0.08210       -2.49100
O          2.95140        0.81610       -3.23350
O          1.44660       -0.67700       -2.85620
C          2.09550       -0.12800        2.51750
C          3.13740       -0.83250        3.34340
C          3.87640       -0.13110        4.29540
C          4.83830       -0.79910        5.05060
C          5.05870       -2.16180        4.85580
C          4.31260       -2.86240        3.90900
C          3.35020       -2.19910        3.15260
C         -0.38180       -1.70910       -0.51080
C         -0.23250       -2.64110        0.64350
O          0.70940       -2.75530        1.38730
O         -1.34960       -3.39910        0.76640
C         -1.34310       -4.35390        1.82520
H          4.71770        0.11060        1.38670
H          1.13710       -0.71460        2.55720
H          1.86100        0.88870        2.91850
H          3.70660        0.93220        4.45460
H          5.41870       -0.25500        5.79340
H          5.81390       -2.68010        5.44450
H          4.47990       -3.92810        3.75910
H          2.76320       -2.74610        2.40880
H          0.27360       -2.03450       -1.35820
H         -1.41270       -1.71740       -0.93350
H         -0.52950       -5.07370        1.68100
H         -2.32360       -4.83430        1.72850
H         -1.23940       -3.84690        2.79010
