34
rmsd149.gzmat
S          0.00000        0.00000        0.00000
C          1.73890        0.00000        0.00000
N          2.55780        0.00000        1.11880
C          3.88090        0.07150        0.68420
N          3.93110        0.11110       -0.66120
C          2.62360        0.06110       -1.09560
N          2.29870        0.02630       -2.49920
O          2.85520        0.79110       -3.25710
O          1.45170       -0.78990       -2.83980
C          2.15240       -0.11570        2.51680
C          2.74570        1.00450        3.32620
C          2.28220        2.30910        3.14870
C          2.83410        3.34780        3.89440
C          3.83880        3.08230        4.82410
C          4.29510        1.77760        5.00460
C          3.75200        0.73700        4.25330
C         -0.35580       -1.76440       -0.29370
C         -0.15100       -2.56370        0.94930
O          0.70760       -2.43490        1.78610
O         -1.10380       -3.52340        1.02920
C         -1.02870       -4.38890        2.15980
H          4.73340        0.09870        1.34550
H          2.46380       -1.12610        2.89420
H          1.03650       -0.12130        2.61330
H          1.49350        2.51610        2.42570
H          2.48130        4.36820        3.75000
H          4.26770        3.89460        5.40870
H          5.07840        1.57170        5.73170
H          4.11510       -0.27970        4.39460
H          0.27930       -2.16670       -1.12210
H         -1.39820       -1.84660       -0.67780
H         -1.84670       -5.09660        1.98050
H         -1.18760       -3.81670        3.07960
H         -0.05880       -4.89760        2.18770
