rmsd38.gzmat
 OpenBabel08211713413D

 34 35  0  0  1  0  0  0  0  0999 V2000
    0.0000    0.0000    0.0000 S   0  0  0  0  0  0  0  0  0  0  0  0
    1.7399    0.0000    0.0000 C   0  0  2  0  0  0  0  0  0  0  0  0
    2.5438    0.0000    1.1308 N   0  0  0  0  0  0  0  0  0  0  0  0
    3.8723    0.0921    0.7143 C   0  0  0  0  0  0  0  0  0  0  0  0
    3.9390    0.1467   -0.6286 N   0  0  0  0  0  0  0  0  0  0  0  0
    2.6373    0.0870   -1.0830 C   0  0  0  0  0  0  0  0  0  0  0  0
    2.3365    0.0821   -2.4910 N   0  0  0  0  0  0  0  0  0  0  0  0
    2.9514    0.8161   -3.2335 O   0  0  0  0  0  0  0  0  0  0  0  0
    1.4466   -0.6770   -2.8562 O   0  0  0  0  0  0  0  0  0  0  0  0
    2.0955   -0.1280    2.5175 C   0  0  0  0  0  0  0  0  0  0  0  0
    3.1374   -0.8325    3.3434 C   0  0  0  0  0  0  0  0  0  0  0  0
    3.8764   -0.1311    4.2954 C   0  0  0  0  0  0  0  0  0  0  0  0
    4.8383   -0.7991    5.0506 C   0  0  0  0  0  0  0  0  0  0  0  0
    5.0587   -2.1618    4.8558 C   0  0  0  0  0  0  0  0  0  0  0  0
    4.3126   -2.8624    3.9090 C   0  0  0  0  0  0  0  0  0  0  0  0
    3.3502   -2.1991    3.1526 C   0  0  0  0  0  0  0  0  0  0  0  0
   -0.3818   -1.7091   -0.5108 C   0  0  0  0  0  0  0  0  0  0  0  0
   -0.2325   -2.6411    0.6435 C   0  0  0  0  0  0  0  0  0  0  0  0
    0.7094   -2.7553    1.3873 O   0  0  0  0  0  0  0  0  0  0  0  0
   -1.3496   -3.3991    0.7664 O   0  0  0  0  0  0  0  0  0  0  0  0
   -1.3431   -4.3539    1.8252 C   0  0  0  0  0  0  0  0  0  0  0  0
    4.7177    0.1106    1.3867 H   0  0  0  0  0  0  0  0  0  0  0  0
    1.1371   -0.7146    2.5572 H   0  0  0  0  0  0  0  0  0  0  0  0
    1.8610    0.8887    2.9185 H   0  0  0  0  0  0  0  0  0  0  0  0
    3.7066    0.9322    4.4546 H   0  0  0  0  0  0  0  0  0  0  0  0
    5.4187   -0.2550    5.7934 H   0  0  0  0  0  0  0  0  0  0  0  0
    5.8139   -2.6801    5.4445 H   0  0  0  0  0  0  0  0  0  0  0  0
    4.4799   -3.9281    3.7591 H   0  0  0  0  0  0  0  0  0  0  0  0
    2.7632   -2.7461    2.4088 H   0  0  0  0  0  0  0  0  0  0  0  0
    0.2736   -2.0345   -1.3582 H   0  0  0  0  0  0  0  0  0  0  0  0
   -1.4127   -1.7174   -0.9335 H   0  0  0  0  0  0  0  0  0  0  0  0
   -0.5295   -5.0737    1.6810 H   0  0  0  0  0  0  0  0  0  0  0  0
   -2.3236   -4.8343    1.7285 H   0  0  0  0  0  0  0  0  0  0  0  0
   -1.2394   -3.8469    2.7901 H   0  0  0  0  0  0  0  0  0  0  0  0
  2  1  1  1  0  0  0
  2  3  1  0  0  0  0
  3 10  1  0  0  0  0
  4  3  1  0  0  0  0
  4 22  1  0  0  0  0
  5  4  2  0  0  0  0
  6  5  2  0  0  0  0
  6  2  1  0  0  0  0
  7  6  1  0  0  0  0
  8  7  2  0  0  0  0
  9  7  2  0  0  0  0
 10 23  1  0  0  0  0
 10 24  1  0  0  0  0
 10 11  1  0  0  0  0
 11 12  1  0  0  0  0
 12 25  1  0  0  0  0
 12 13  2  0  0  0  0
 13 26  1  0  0  0  0
 14 13  1  0  0  0  0
 14 27  1  0  0  0  0
 15 14  2  0  0  0  0
 16 11  2  0  0  0  0
 16 15  1  0  0  0  0
 17  1  1  0  0  0  0
 17 18  1  0  0  0  0
 18 20  1  0  0  0  0
 18 19  2  0  0  0  0
 20 21  1  0  0  0  0
 21 34  1  0  0  0  0
 28 15  1  0  0  0  0
 29 16  1  0  0  0  0
 30 17  1  0  0  0  0
 31 17  1  0  0  0  0
 32 21  1  0  0  0  0
 33 21  1  0  0  0  0
M  RAD  1   2   2
M  END
$$$$
