rmsd149.gzmat
 OpenBabel08211713413D

 34 35  0  0  1  0  0  0  0  0999 V2000
    0.0000    0.0000    0.0000 S   0  0  0  0  0  0  0  0  0  0  0  0
    1.7389    0.0000    0.0000 C   0  0  2  0  0  0  0  0  0  0  0  0
    2.5578    0.0000    1.1188 N   0  0  0  0  0  0  0  0  0  0  0  0
    3.8809    0.0715    0.6842 C   0  0  0  0  0  0  0  0  0  0  0  0
    3.9311    0.1111   -0.6612 N   0  0  0  0  0  0  0  0  0  0  0  0
    2.6236    0.0611   -1.0956 C   0  0  0  0  0  0  0  0  0  0  0  0
    2.2987    0.0263   -2.4992 N   0  0  0  0  0  0  0  0  0  0  0  0
    2.8552    0.7911   -3.2571 O   0  0  0  0  0  0  0  0  0  0  0  0
    1.4517   -0.7899   -2.8398 O   0  0  0  0  0  0  0  0  0  0  0  0
    2.1524   -0.1157    2.5168 C   0  0  0  0  0  0  0  0  0  0  0  0
    2.7457    1.0045    3.3262 C   0  0  0  0  0  0  0  0  0  0  0  0
    2.2822    2.3091    3.1487 C   0  0  0  0  0  0  0  0  0  0  0  0
    2.8341    3.3478    3.8944 C   0  0  0  0  0  0  0  0  0  0  0  0
    3.8388    3.0823    4.8241 C   0  0  0  0  0  0  0  0  0  0  0  0
    4.2951    1.7776    5.0046 C   0  0  0  0  0  0  0  0  0  0  0  0
    3.7520    0.7370    4.2533 C   0  0  0  0  0  0  0  0  0  0  0  0
   -0.3558   -1.7644   -0.2937 C   0  0  0  0  0  0  0  0  0  0  0  0
   -0.1510   -2.5637    0.9493 C   0  0  0  0  0  0  0  0  0  0  0  0
    0.7076   -2.4349    1.7861 O   0  0  0  0  0  0  0  0  0  0  0  0
   -1.1038   -3.5234    1.0292 O   0  0  0  0  0  0  0  0  0  0  0  0
   -1.0287   -4.3889    2.1598 C   0  0  0  0  0  0  0  0  0  0  0  0
    4.7334    0.0987    1.3455 H   0  0  0  0  0  0  0  0  0  0  0  0
    2.4638   -1.1261    2.8942 H   0  0  0  0  0  0  0  0  0  0  0  0
    1.0365   -0.1213    2.6133 H   0  0  0  0  0  0  0  0  0  0  0  0
    1.4935    2.5161    2.4257 H   0  0  0  0  0  0  0  0  0  0  0  0
    2.4813    4.3682    3.7500 H   0  0  0  0  0  0  0  0  0  0  0  0
    4.2677    3.8946    5.4087 H   0  0  0  0  0  0  0  0  0  0  0  0
    5.0784    1.5717    5.7317 H   0  0  0  0  0  0  0  0  0  0  0  0
    4.1151   -0.2797    4.3946 H   0  0  0  0  0  0  0  0  0  0  0  0
    0.2793   -2.1667   -1.1221 H   0  0  0  0  0  0  0  0  0  0  0  0
   -1.3982   -1.8466   -0.6778 H   0  0  0  0  0  0  0  0  0  0  0  0
   -1.8467   -5.0966    1.9805 H   0  0  0  0  0  0  0  0  0  0  0  0
   -1.1876   -3.8167    3.0796 H   0  0  0  0  0  0  0  0  0  0  0  0
   -0.0588   -4.8976    2.1877 H   0  0  0  0  0  0  0  0  0  0  0  0
  2  1  1  1  0  0  0
  2  3  1  0  0  0  0
  3 10  1  0  0  0  0
  4  3  1  0  0  0  0
  4 22  1  0  0  0  0
  5  4  2  0  0  0  0
  6  5  2  0  0  0  0
  6  2  1  0  0  0  0
  7  6  1  0  0  0  0
  8  7  2  0  0  0  0
  9  7  2  0  0  0  0
 10 24  1  0  0  0  0
 10 23  1  0  0  0  0
 10 11  1  0  0  0  0
 11 16  1  0  0  0  0
 12 11  2  0  0  0  0
 12 13  1  0  0  0  0
 13 14  2  0  0  0  0
 14 15  1  0  0  0  0
 14 27  1  0  0  0  0
 15 28  1  0  0  0  0
 16 29  1  0  0  0  0
 16 15  2  0  0  0  0
 17  1  1  0  0  0  0
 17 18  1  0  0  0  0
 18 20  1  0  0  0  0
 18 19  2  0  0  0  0
 20 21  1  0  0  0  0
 21 34  1  0  0  0  0
 21 33  1  0  0  0  0
 25 12  1  0  0  0  0
 26 13  1  0  0  0  0
 30 17  1  0  0  0  0
 31 17  1  0  0  0  0
 32 21  1  0  0  0  0
M  RAD  1   2   2
M  END
$$$$
