
     RDKit          3D

 34 35  0  0  0  0  0  0  0  0999 V2000
    0.5208    0.3713    1.1987 S   0  0  0  0  0  0  0  0  0  0  0  0
    2.0175   -0.1081    0.4191 C   0  0  0  0  0  0  0  0  0  0  0  0
    3.1406   -0.4508    1.1433 N   0  0  0  0  0  0  0  0  0  0  0  0
    4.1452   -0.6985    0.2471 C   0  0  0  0  0  0  0  0  0  0  0  0
    3.7523   -0.5432   -0.9962 N   0  0  0  0  0  0  0  0  0  0  0  0
    2.4508   -0.1786   -0.9072 C   0  0  0  0  0  0  0  0  0  0  0  0
    1.6717    0.1018   -2.0919 N   0  0  0  0  0  0  0  0  0  0  0  0
    2.2655    0.2862   -3.1360 O   0  0  0  0  0  0  0  0  0  0  0  0
    0.4488    0.1441   -1.9568 O   0  0  0  0  0  0  0  0  0  0  0  0
    3.2268   -0.5416    2.5967 C   0  0  0  0  0  0  0  0  0  0  0  0
    3.1849    0.8073    3.2818 C   0  0  0  0  0  0  0  0  0  0  0  0
    3.9062    1.8973    2.7771 C   0  0  0  0  0  0  0  0  0  0  0  0
    3.8760    3.1302    3.4320 C   0  0  0  0  0  0  0  0  0  0  0  0
    3.1268    3.2849    4.6020 C   0  0  0  0  0  0  0  0  0  0  0  0
    2.4036    2.2023    5.1093 C   0  0  0  0  0  0  0  0  0  0  0  0
    2.4286    0.9723    4.4482 C   0  0  0  0  0  0  0  0  0  0  0  0
   -0.5585   -1.0016    0.6921 C   0  0  0  0  0  0  0  0  0  0  0  0
   -0.2008   -2.3369    1.3143 C   0  0  0  0  0  0  0  0  0  0  0  0
    0.7809   -2.5833    1.9727 O   0  0  0  0  0  0  0  0  0  0  0  0
   -1.1340   -3.2469    1.0082 O   0  0  0  0  0  0  0  0  0  0  0  0
   -0.9111   -4.5749    1.4897 C   0  0  0  0  0  0  0  0  0  0  0  0
    5.1429   -0.9948    0.5708 H   0  0  0  0  0  0  0  0  0  0  0  0
    4.1729   -1.0606    2.8172 H   0  0  0  0  0  0  0  0  0  0  0  0
    2.4025   -1.1828    2.9351 H   0  0  0  0  0  0  0  0  0  0  0  0
    4.4885    1.7863    1.8586 H   0  0  0  0  0  0  0  0  0  0  0  0
    4.4386    3.9740    3.0257 H   0  0  0  0  0  0  0  0  0  0  0  0
    3.1016    4.2500    5.1134 H   0  0  0  0  0  0  0  0  0  0  0  0
    1.8074    2.3186    6.0174 H   0  0  0  0  0  0  0  0  0  0  0  0
    1.8451    0.1321    4.8329 H   0  0  0  0  0  0  0  0  0  0  0  0
   -0.5392   -1.0774   -0.4059 H   0  0  0  0  0  0  0  0  0  0  0  0
   -1.5836   -0.7216    0.9780 H   0  0  0  0  0  0  0  0  0  0  0  0
    0.0305   -4.9788    1.0892 H   0  0  0  0  0  0  0  0  0  0  0  0
   -1.7622   -5.1717    1.1415 H   0  0  0  0  0  0  0  0  0  0  0  0
   -0.8581   -4.5855    2.5885 H   0  0  0  0  0  0  0  0  0  0  0  0
  1  2  1  0
  1 17  1  0
  2  3  1  0
  2  6  2  0
  3  4  1  0
  3 10  1  0
  4  5  2  0
  4 22  1  0
  5  6  1  0
  6  7  1  0
  7  8  1  0
  7  9  2  0
 10 11  1  0
 10 23  1  0
 10 24  1  0
 11 12  2  0
 11 16  1  0
 12 13  1  0
 12 25  1  0
 13 14  2  0
 13 26  1  0
 14 15  1  0
 14 27  1  0
 15 16  2  0
 15 28  1  0
 16 29  1  0
 17 18  1  0
 17 30  1  0
 17 31  1  0
 18 19  2  0
 18 20  1  0
 20 21  1  0
 21 32  1  0
 21 33  1  0
 21 34  1  0
M  CHG  2   7   1   8  -1
M  END

