64
rmsd71.gzmat
N          0.00000        0.00000        0.00000
C          1.38740        0.00000        0.00000
N          1.86150        0.00000        1.27070
C          0.76810        0.00870        2.10840
C         -0.41190        0.01790        1.32820
C         -1.78860        0.02390        1.80650
C         -2.15260        0.83030        2.89210
C         -3.48680        0.75910        3.32360
N         -4.38680       -0.03870        2.73930
C         -3.95280       -0.81050        1.68550
N         -2.66820       -0.78850        1.18490
N         -4.80620       -1.69920        1.09770
C         -6.21600       -1.69120        1.40630
C         -7.19960       -1.33800        0.30100
C         -7.07310       -2.76750        0.77180
C          0.89330       -0.01900        3.55500
C          1.77060        0.86120        4.19460
C          1.85720        0.82730        5.58110
C          1.09180       -0.06570        6.31960
C          0.22550       -0.95200        5.68610
C          0.13090       -0.92900        4.29790
Cl         1.19270       -0.10160        8.01520
Cl         2.92290        1.90730        6.34990
C          2.27470       -0.08930       -1.19360
H          1.70890        0.13770       -2.13140
C          3.42030        0.92740       -1.03010
C          4.52320        0.70890       -2.05930
N          5.05310       -0.70950       -1.91020
H          5.31880       -0.86020       -0.89940
C          3.94280       -1.68670       -2.26410
C          2.81670       -1.53380       -1.24880
C          6.24920       -0.92530       -2.78490
C         -0.86330        0.06600       -1.17340
C         -1.03900        1.51340       -1.66770
C         -1.93760        2.32320       -0.73840
H         -1.43710        1.48120        3.38050
H         -3.85570        1.36110        4.16860
H         -4.48730       -2.22670        0.29450
H         -6.42170       -1.35950        2.44100
H         -6.84180       -1.05960       -0.68500
H         -8.08550       -0.75640        0.54650
H         -7.87180       -3.22120        1.35620
H         -6.63270       -3.51550        0.11900
H          2.37280        1.55510        3.60480
H         -0.37510       -1.65860        6.26450
H         -0.53840       -1.62200        3.78450
H          3.81860        0.88440        0.01330
H          3.01820        1.96220       -1.11050
H          5.35620        1.43370       -1.90800
H          4.14830        0.85890       -3.09660
H          3.58630       -1.48950       -3.30000
H          4.34670       -2.72580       -2.25570
H          1.98800       -2.23650       -1.48950
H          3.14330       -1.84640       -0.22880
H          6.00850       -0.77910       -3.85450
H          6.64960       -1.95160       -2.66960
H          7.06520       -0.22180       -2.52750
H         -1.86350       -0.38060       -0.92220
H         -0.44010       -0.57750       -1.97580
H         -1.47940        1.49080       -2.68620
H         -0.05660        2.01010       -1.77060
H         -2.92770        1.86210       -0.62590
H         -2.09510        3.34010       -1.12070
H         -1.50670        2.41830        0.26650
