64
rmsd53.gzmat
N          0.00000        0.00000        0.00000
C          1.38640        0.00000        0.00000
N          1.85970        0.00000        1.27070
C          0.76580       -0.01310        2.10860
C         -0.41490       -0.01230        1.32970
C         -1.79640       -0.01100        1.79220
C         -2.16010        0.69150        2.94790
C         -3.50480        0.61980        3.34640
N         -4.41960       -0.07570        2.66270
C         -3.99040       -0.73650        1.53450
N         -2.69260       -0.71670        1.07100
N         -4.86330       -1.50780        0.82070
C         -6.28170       -1.46270        1.08030
C         -7.21080       -1.00230       -0.03280
C         -7.15520       -2.46250        0.34890
C          0.90940       -0.03530        3.55380
C          1.79160        0.85600        4.17170
C          1.90930        0.82840        5.55580
C          1.16740       -0.06740        6.31430
C          0.29690       -0.96470        5.70260
C          0.17190       -0.94880        4.31640
Cl         1.30490       -0.09110        8.00750
Cl         2.98470        1.91880        6.29570
C          2.27950       -0.00540       -1.19250
H          1.68460        0.04100       -2.13910
C          3.20160        1.22680       -1.10200
C          4.33060        1.17000       -2.12410
N          5.12450       -0.10840       -1.90250
H          5.41620       -0.14550       -0.88880
C          4.22520       -1.30220       -2.18550
C          3.09430       -1.31480       -1.16400
C          6.33630       -0.13780       -2.78180
C         -0.86240       -0.03840       -1.17640
C         -1.08430       -1.49220       -1.63250
C         -1.94040       -1.51540       -2.89300
H         -1.43880        1.27190        3.51130
H         -3.87060        1.13760        4.24690
H         -4.54160       -1.93670       -0.03850
H         -6.51460       -1.18960        2.12640
H         -6.80950       -0.67690       -0.98690
H         -8.08390       -0.40440        0.22020
H         -7.99050       -2.91890        0.87750
H         -6.72020       -3.18600       -0.33430
H          2.37370        1.55320        3.56620
H         -0.28270       -1.67580        6.29670
H         -0.50180       -1.64990        3.82000
H          3.59650        1.32500       -0.06210
H          2.60330        2.15460       -1.24390
H          5.00730        2.04930       -2.01630
H          3.93860        1.19070       -3.16580
H          3.83290       -1.23540       -3.22510
H          4.82490       -2.24010       -2.12560
H          2.42040       -2.18100       -1.35020
H          3.47720       -1.49610       -0.13120
H          6.06620       -0.11160       -3.85390
H          6.93250       -1.05540       -2.61150
H          6.99660        0.72880       -2.58250
H         -0.41500        0.57550       -1.98800
H         -1.84940        0.43110       -0.92740
H         -1.58750       -2.05710       -0.81370
H         -0.12110       -2.00290       -1.80010
H         -2.91760       -1.04240       -2.72780
H         -2.13430       -2.54660       -3.21730
H         -1.46000       -0.99650       -3.72890
