64
rmsd179.gzmat
N          0.00000        0.00000        0.00000
C          1.38610        0.00000        0.00000
N          1.85990        0.00000        1.27120
C          0.76630       -0.01080        2.10850
C         -0.41420       -0.00950        1.32990
C         -1.79390       -0.01350        1.79610
C         -2.15860        0.67910        2.95740
C         -3.50250        0.59720        3.35750
N         -4.41480       -0.09870        2.67080
C         -3.98270       -0.75260        1.53970
N         -2.68730       -0.72020        1.07250
N         -4.84880       -1.53320        0.82820
C         -6.26710       -1.50260        1.08980
C         -7.20190       -1.05100       -0.02210
C         -7.12610       -2.51180        0.35450
C          0.90460       -0.03780        3.55460
C          1.69330        0.92560        4.18920
C          1.80540        0.89080        5.57360
C          1.15540       -0.08790        6.31420
C          0.37580       -1.05430        5.68510
C          0.25190       -1.02740        4.29890
Cl         1.29490       -0.13020        8.00690
Cl         2.75440        2.07950        6.33470
C          2.28150       -0.01870       -1.19110
H          1.69600        0.10290       -2.13680
C          3.28110        1.14680       -1.05120
C          4.42530        1.04550       -2.05220
N          5.12690       -0.28890       -1.84970
H          5.38080       -0.37720       -0.82840
C          4.15940       -1.40900       -2.20010
C          3.00460       -1.38190       -1.20610
C          6.36410       -0.37240       -2.68870
C         -0.86270       -0.04290       -1.17580
C         -1.06450       -1.49640       -1.64230
C         -1.97140       -1.52740       -2.86680
H         -1.43910        1.25790        3.52450
H         -3.86990        1.10550        4.26270
H         -4.52410       -1.96100       -0.03030
H         -6.50140       -1.23380        2.13660
H         -6.80410       -0.71380       -0.97370
H         -8.08330       -0.46630        0.23310
H         -7.95500       -2.98320        0.87970
H         -6.67840       -3.22600       -0.33050
H          2.20800        1.68430        3.59670
H         -0.13550       -1.82600        6.26630
H         -0.35430       -1.77800        3.78870
H          3.66230        1.19120       -0.00160
H          2.74680        2.11520       -1.17450
H          5.15620        1.87410       -1.90370
H          4.06000        1.12220       -3.10090
H          3.80050       -1.27860       -3.24590
H          4.69290       -2.38750       -2.16040
H          2.27750       -2.19030       -1.44500
H          3.34980       -1.63120       -0.17430
H          6.13710       -0.27480       -3.76670
H          6.88220       -1.34040       -2.54250
H          7.08150        0.42880       -2.42370
H         -0.42450        0.58220       -1.98380
H         -1.85610        0.41110       -0.92240
H         -1.51900       -2.08530       -0.81230
H         -0.09540       -1.97640       -1.85840
H         -2.95600       -1.09100       -2.65160
H         -2.14400       -2.55890       -3.20160
H         -1.54450       -0.97760       -3.71220
