rmsd71.gzmat
 OpenBabel08211713363D

 64 68  0  0  1  0  0  0  0  0999 V2000
    0.0000    0.0000    0.0000 N   0  0  0  0  0  0  0  0  0  0  0  0
    1.3874    0.0000    0.0000 C   0  0  0  0  0  0  0  0  0  0  0  0
    1.8615    0.0000    1.2707 N   0  0  0  0  0  0  0  0  0  0  0  0
    0.7681    0.0087    2.1084 C   0  0  0  0  0  0  0  0  0  0  0  0
   -0.4119    0.0179    1.3282 C   0  0  2  0  0  0  0  0  0  0  0  0
   -1.7886    0.0239    1.8065 C   0  0  0  0  0  0  0  0  0  0  0  0
   -2.1526    0.8303    2.8921 C   0  0  0  0  0  0  0  0  0  0  0  0
   -3.4868    0.7591    3.3236 C   0  0  0  0  0  0  0  0  0  0  0  0
   -4.3868   -0.0387    2.7393 N   0  0  0  0  0  0  0  0  0  0  0  0
   -3.9528   -0.8105    1.6855 C   0  0  0  0  0  0  0  0  0  0  0  0
   -2.6682   -0.7885    1.1849 N   0  0  0  0  0  0  0  0  0  0  0  0
   -4.8062   -1.6992    1.0977 N   0  0  0  0  0  0  0  0  0  0  0  0
   -6.2160   -1.6912    1.4063 C   0  0  0  0  0  0  0  0  0  0  0  0
   -7.1996   -1.3380    0.3010 C   0  0  0  0  0  0  0  0  0  0  0  0
   -7.0731   -2.7675    0.7718 C   0  0  0  0  0  0  0  0  0  0  0  0
    0.8933   -0.0190    3.5550 C   0  0  0  0  0  0  0  0  0  0  0  0
    1.7706    0.8612    4.1946 C   0  0  0  0  0  0  0  0  0  0  0  0
    1.8572    0.8273    5.5811 C   0  0  0  0  0  0  0  0  0  0  0  0
    1.0918   -0.0657    6.3196 C   0  0  0  0  0  0  0  0  0  0  0  0
    0.2255   -0.9520    5.6861 C   0  0  0  0  0  0  0  0  0  0  0  0
    0.1309   -0.9290    4.2979 C   0  0  0  0  0  0  0  0  0  0  0  0
    1.1927   -0.1016    8.0152 Cl  0  0  0  0  0  0  0  0  0  0  0  0
    2.9229    1.9073    6.3499 Cl  0  0  0  0  0  0  0  0  0  0  0  0
    2.2747   -0.0893   -1.1936 C   0  0  0  0  0  0  0  0  0  0  0  0
    1.7089    0.1377   -2.1314 H   0  0  0  0  0  0  0  0  0  0  0  0
    3.4203    0.9274   -1.0301 C   0  0  0  0  0  0  0  0  0  0  0  0
    4.5232    0.7089   -2.0593 C   0  0  0  0  0  0  0  0  0  0  0  0
    5.0531   -0.7095   -1.9102 N   0  0  0  0  0  0  0  0  0  0  0  0
    5.3188   -0.8602   -0.8994 H   0  0  0  0  0  0  0  0  0  0  0  0
    3.9428   -1.6867   -2.2641 C   0  0  0  0  0  0  0  0  0  0  0  0
    2.8167   -1.5338   -1.2488 C   0  0  0  0  0  0  0  0  0  0  0  0
    6.2492   -0.9253   -2.7849 C   0  0  0  0  0  0  0  0  0  0  0  0
   -0.8633    0.0660   -1.1734 C   0  0  0  0  0  0  0  0  0  0  0  0
   -1.0390    1.5134   -1.6677 C   0  0  0  0  0  0  0  0  0  0  0  0
   -1.9376    2.3232   -0.7384 C   0  0  0  0  0  0  0  0  0  0  0  0
   -1.4371    1.4812    3.3805 H   0  0  0  0  0  0  0  0  0  0  0  0
   -3.8557    1.3611    4.1686 H   0  0  0  0  0  0  0  0  0  0  0  0
   -4.4873   -2.2267    0.2945 H   0  0  0  0  0  0  0  0  0  0  0  0
   -6.4217   -1.3595    2.4410 H   0  0  0  0  0  0  0  0  0  0  0  0
   -6.8418   -1.0596   -0.6850 H   0  0  0  0  0  0  0  0  0  0  0  0
   -8.0855   -0.7564    0.5465 H   0  0  0  0  0  0  0  0  0  0  0  0
   -7.8718   -3.2212    1.3562 H   0  0  0  0  0  0  0  0  0  0  0  0
   -6.6327   -3.5155    0.1190 H   0  0  0  0  0  0  0  0  0  0  0  0
    2.3728    1.5551    3.6048 H   0  0  0  0  0  0  0  0  0  0  0  0
   -0.3751   -1.6586    6.2645 H   0  0  0  0  0  0  0  0  0  0  0  0
   -0.5384   -1.6220    3.7845 H   0  0  0  0  0  0  0  0  0  0  0  0
    3.8186    0.8844    0.0133 H   0  0  0  0  0  0  0  0  0  0  0  0
    3.0182    1.9622   -1.1105 H   0  0  0  0  0  0  0  0  0  0  0  0
    5.3562    1.4337   -1.9080 H   0  0  0  0  0  0  0  0  0  0  0  0
    4.1483    0.8589   -3.0966 H   0  0  0  0  0  0  0  0  0  0  0  0
    3.5863   -1.4895   -3.3000 H   0  0  0  0  0  0  0  0  0  0  0  0
    4.3467   -2.7258   -2.2557 H   0  0  0  0  0  0  0  0  0  0  0  0
    1.9880   -2.2365   -1.4895 H   0  0  0  0  0  0  0  0  0  0  0  0
    3.1433   -1.8464   -0.2288 H   0  0  0  0  0  0  0  0  0  0  0  0
    6.0085   -0.7791   -3.8545 H   0  0  0  0  0  0  0  0  0  0  0  0
    6.6496   -1.9516   -2.6696 H   0  0  0  0  0  0  0  0  0  0  0  0
    7.0652   -0.2218   -2.5275 H   0  0  0  0  0  0  0  0  0  0  0  0
   -1.8635   -0.3806   -0.9222 H   0  0  0  0  0  0  0  0  0  0  0  0
   -0.4401   -0.5775   -1.9758 H   0  0  0  0  0  0  0  0  0  0  0  0
   -1.4794    1.4908   -2.6862 H   0  0  0  0  0  0  0  0  0  0  0  0
   -0.0566    2.0101   -1.7706 H   0  0  0  0  0  0  0  0  0  0  0  0
   -2.9277    1.8621   -0.6259 H   0  0  0  0  0  0  0  0  0  0  0  0
   -2.0951    3.3401   -1.1207 H   0  0  0  0  0  0  0  0  0  0  0  0
   -1.5067    2.4183    0.2665 H   0  0  0  0  0  0  0  0  0  0  0  0
  1  2  1  0  0  0  0
  1  5  1  0  0  0  0
  2  3  2  0  0  0  0
  3  4  2  0  0  0  0
  4 16  1  0  0  0  0
  5  6  1  1  0  0  0
  5  4  1  0  0  0  0
  6  7  1  0  0  0  0
  7  8  1  0  0  0  0
  7 36  1  0  0  0  0
  8 37  1  0  0  0  0
  9  8  2  0  0  0  0
 10  9  2  0  0  0  0
 11 10  2  0  0  0  0
 11  6  2  0  0  0  0
 12 13  1  0  0  0  0
 12 10  1  0  0  0  0
 13 39  1  0  0  0  0
 14 41  1  0  0  0  0
 14 15  1  0  0  0  0
 14 13  1  0  0  0  0
 15 42  1  0  0  0  0
 15 13  1  0  0  0  0
 16 17  2  0  0  0  0
 16 21  1  0  0  0  0
 17 18  1  0  0  0  0
 18 19  2  0  0  0  0
 18 23  1  0  0  0  0
 19 22  1  0  0  0  0
 20 45  1  0  0  0  0
 20 19  1  0  0  0  0
 21 20  2  0  0  0  0
 24 26  1  0  0  0  0
 24  2  1  0  0  0  0
 25 24  1  0  0  0  0
 26 47  1  0  0  0  0
 27 28  1  0  0  0  0
 27 49  1  0  0  0  0
 27 26  1  0  0  0  0
 28 29  1  0  0  0  0
 30 52  1  0  0  0  0
 30 28  1  0  0  0  0
 30 31  1  0  0  0  0
 31 24  1  0  0  0  0
 31 54  1  0  0  0  0
 32 56  1  0  0  0  0
 32 57  1  0  0  0  0
 32 28  1  0  0  0  0
 33 58  1  0  0  0  0
 33  1  1  0  0  0  0
 34 33  1  0  0  0  0
 34 35  1  0  0  0  0
 35 62  1  0  0  0  0
 35 64  1  0  0  0  0
 38 12  1  0  0  0  0
 40 14  1  0  0  0  0
 43 15  1  0  0  0  0
 44 17  1  0  0  0  0
 46 21  1  0  0  0  0
 48 26  1  0  0  0  0
 50 27  1  0  0  0  0
 51 30  1  0  0  0  0
 53 31  1  0  0  0  0
 55 32  1  0  0  0  0
 59 33  1  0  0  0  0
 60 34  1  0  0  0  0
 61 34  1  0  0  0  0
 63 35  1  0  0  0  0
M  RAD  2   5   2   7   2
M  END
$$$$
