64
rmsd74.gzmat
N          0.00000        0.00000        0.00000
C          1.38620        0.00000        0.00000
N          1.85840        0.00000        1.27120
C          0.76400       -0.01660        2.11050
C         -0.41370       -0.03110        1.32940
C         -1.79810       -0.09890        1.78100
C         -2.15720       -0.96770        2.81920
C         -3.50650       -0.97680        3.20790
N         -4.42490       -0.19800        2.62650
C         -3.99500        0.63620        1.61940
N         -2.69420        0.69890        1.16600
N         -4.87310        1.49730        1.02780
C         -6.28940        1.41790        1.29240
C         -7.17590        2.46200        0.64430
C         -7.22360        1.03440        0.15410
C          0.90260       -0.01850        3.55580
C          1.88150       -0.82260        4.14870
C          1.99500       -0.82910        5.53300
C          1.15250       -0.05390        6.31900
C          0.18470        0.75730        5.73350
C          0.06540        0.77750        4.34670
Cl         1.28280       -0.07530        8.01270
Cl         3.19300       -1.80980        6.23830
C          2.28310        0.01830       -1.18970
H          1.69260       -0.01740       -2.13910
C          3.10280        1.32340       -1.13880
C          4.23700        1.32300       -2.15630
N          5.13290        0.12360       -1.88710
H          5.42110        0.14620       -0.87180
C          4.33660       -1.14970       -2.12870
C          3.20270       -1.21730       -1.11190
C          6.34830        0.16570       -2.76090
C         -0.88440       -0.05060       -1.15890
C         -1.36210       -1.49180       -1.41150
C         -2.43630       -1.49930       -2.49330
H         -1.42720       -1.60680        3.30140
H         -3.87380       -1.63130        4.01360
H         -4.55220        2.07170        0.25840
H         -6.51010        1.06170        2.31550
H         -6.75070        3.23710        0.01330
H         -8.01170        2.87180        1.20970
H         -8.09120        0.41390        0.36740
H         -6.82530        0.78060       -0.82280
H          2.54040       -1.42690        3.52230
H         -0.47520        1.37400        6.34920
H         -0.68120        1.41820        3.87310
H          3.48300        1.48580       -0.10130
H          2.43270        2.19520       -1.31200
H          4.83850        2.25850       -2.08000
H          3.84900        1.27270       -3.19830
H          3.94870       -1.15600       -3.17190
H          5.01120       -2.03150       -2.03000
H          2.60330       -2.14160       -1.26870
H          3.59330       -1.32870       -0.07170
H          6.08380        0.15020       -3.83480
H          7.01260       -0.69860       -2.56690
H          6.94060        1.08400       -2.57860
H         -0.36630        0.35900       -2.05150
H         -1.76470        0.62360       -0.97160
H         -1.76750       -1.92630       -0.47290
H         -0.51270       -2.13770       -1.69700
H         -3.32930       -0.94100       -2.18060
H         -2.76480       -2.52430       -2.71550
H         -2.08200       -1.05950       -3.43180
