64
rmsd121.gzmat
N          0.00000        0.00000        0.00000
C          1.38630        0.00000        0.00000
N          1.85840        0.00000        1.27090
C          0.76420        0.01840        2.11000
C         -0.41340        0.03360        1.32850
C         -1.79720        0.10420        1.78090
C         -2.15310        0.98330        2.81120
C         -3.49880        0.98790        3.21140
N         -4.41610        0.19590        2.64700
C         -3.99280       -0.63830        1.63690
N         -2.69240       -0.70700        1.18220
N         -4.88830       -1.44320        0.99630
C         -6.25710       -1.55630        1.43720
C         -7.30410       -1.88080        0.38680
C         -6.90590       -2.92910        1.39880
C          0.89800        0.00070        3.55550
C          1.86500        0.80230        4.17000
C          1.97550        0.77430        5.55440
C          1.14210       -0.03270        6.31800
C          0.18350       -0.83860        5.71090
C          0.06630       -0.82350        4.32400
Cl         1.27240       -0.05860        8.01160
Cl         3.15870        1.75100        6.28970
C          2.27670       -0.04080       -1.19340
H          1.69890        0.16300       -2.12990
C          3.36570        1.03660       -1.02220
C          4.47110        0.89620       -2.06220
N          5.07620       -0.49500       -1.94680
H          5.36870       -0.64670       -0.94410
C          4.01420       -1.52590       -2.29760
C          2.89850       -1.45070       -1.26240
C          6.26470       -0.63540       -2.84710
C         -0.88560        0.02350       -1.15850
C         -1.38730        1.45220       -1.43040
C         -2.45820        1.42020       -2.51470
H         -1.42280        1.63040        3.28230
H         -3.86250        1.64750        4.01480
H         -4.54960       -2.08870        0.29330
H         -6.50930       -0.85770        2.25680
H         -7.02240       -1.99550       -0.65530
H         -8.28180       -1.40740        0.45070
H         -7.59540       -3.21040        2.19250
H         -6.34090       -3.80040        1.08240
H          2.51800        1.43030        3.56050
H         -0.47030       -1.47860        6.30900
H         -0.67440       -1.45770        3.83270
H          3.77350        1.00020        0.01740
H          2.90570        2.04860       -1.08310
H          5.26790        1.65850       -1.89980
H          4.08170        1.04940       -3.09350
H          3.62960       -1.33020       -3.32410
H          4.47430       -2.54110       -2.31250
H          2.11010       -2.20120       -1.49480
H          3.25740       -1.75100       -0.24960
H          5.99760       -0.47750       -3.90880
H          6.71240       -1.64490       -2.76360
H          7.05280        0.09810       -2.58710
H         -1.75800       -0.65850       -0.96010
H         -0.36340       -0.39260       -2.04520
H         -0.55110        2.11260       -1.72120
H         -1.80480        1.89020       -0.49880
H         -2.08780        0.98690       -3.44970
H         -2.81750        2.43330       -2.74280
H         -3.33410        0.83590       -2.20010
