64
rmsd210.gzmat
N          0.00000        0.00000        0.00000
C          1.38540        0.00000        0.00000
N          1.85880        0.00000        1.27160
C          0.76540       -0.01520        2.10920
C         -0.41450       -0.02210        1.32980
C         -1.79510       -0.03840        1.79450
C         -2.14460       -0.75940        2.94320
C         -3.48620       -0.70240        3.35350
N         -4.41010       -0.00110        2.68870
C         -3.99450        0.67910        1.56610
N         -2.69950        0.67380        1.09050
N         -4.88180        1.43650        0.86050
C         -6.28690        1.46060        1.18420
C         -7.11100        2.59360        0.60290
C         -7.28520        1.19170        0.06870
C          0.91340       -0.01050        3.55470
C          1.75060       -0.95200        4.16060
C          1.88380       -0.93560        5.54350
C          1.20600        0.00230        6.31120
C          0.37600        0.94500        5.71140
C          0.23100        0.93670        4.32690
Cl         1.37410        0.02470        8.00160
Cl         2.89620       -2.09420        6.26890
C          2.28460        0.07730       -1.18600
H          1.71730       -0.10490       -2.13320
C          2.89010        1.49700       -1.20720
C          4.04190        1.61390       -2.19800
N          5.09830        0.58210       -1.83460
H          5.33700        0.69680       -0.81220
C          4.51240       -0.80810       -2.03210
C          3.37670       -0.99940       -1.03380
C          6.32950        0.76980       -2.66530
C         -0.87290       -0.09200       -1.16610
C         -1.37360       -1.53120       -1.37650
C         -0.26540       -2.46840       -1.84440
H         -1.41360       -1.33940        3.49380
H         -3.84170       -1.23620        4.24850
H         -4.56520        1.91750        0.02850
H         -6.50230        1.08800        2.20290
H         -6.64610        3.35550       -0.01620
H         -7.89270        3.04550        1.21090
H         -8.19190        0.63300        0.29210
H         -6.94100        0.94350       -0.93010
H          2.28820       -1.67810        3.54780
H         -0.15750        1.68430        6.31440
H         -0.41390        1.67040        3.84000
H          3.21000        1.78260       -0.17660
H          2.09810        2.23970       -1.45250
H          4.49130        2.63360       -2.16680
H          3.69890        1.44620       -3.24350
H          4.15770       -0.92080       -3.08090
H          5.30850       -1.57270       -1.87670
H          2.92550       -2.00980       -1.15470
H          3.75510       -1.00740        0.01770
H          6.11080        0.69980       -3.74700
H          7.09360        0.00350       -2.43020
H          6.78810        1.76090       -2.47940
H         -0.33780        0.27680       -2.06680
H         -1.74730        0.59850       -1.01310
H         -2.20330       -1.51920       -2.11390
H         -1.82370       -1.91430       -0.43550
H          0.14960       -2.16440       -2.80980
H         -0.64700       -3.49340       -1.96460
H          0.55220       -2.51860       -1.11670
