rmsd27.gzmat
 OpenBabel08211713393D

 45 48  0  0  1  0  0  0  0  0999 V2000
    0.0000    0.0000    0.0000 S   0  0  0  0  0  0  0  0  0  0  0  0
    1.6721    0.0000    0.0000 C   0  0  0  0  0  0  0  0  0  0  0  0
    2.4715    0.0000    1.2124 C   0  0  0  0  0  0  0  0  0  0  0  0
    1.8629    0.0359    2.4856 C   0  0  0  0  0  0  0  0  0  0  0  0
    2.6337    0.0465    3.6309 C   0  0  0  0  0  0  0  0  0  0  0  0
    4.0366    0.0159    3.5431 C   0  0  0  0  0  0  0  0  0  0  0  0
    4.6535   -0.0241    2.3095 C   0  0  0  0  0  0  0  0  0  0  0  0
    3.8790   -0.0332    1.1307 C   0  0  0  0  0  0  0  0  0  0  0  0
    4.5006   -0.0763   -0.1594 C   0  0  0  0  0  0  0  0  0  0  0  0
    3.7340   -0.0577   -1.2823 C   0  0  0  0  0  0  0  0  0  0  0  0
    2.3467    0.0130   -1.2011 N   0  0  0  0  0  0  0  0  0  0  0  0
    1.6345    0.0358   -2.4401 C   0  0  2  0  0  0  0  0  0  0  0  0
    1.0329    1.1345   -2.9869 C   0  0  0  0  0  0  0  0  0  0  0  0
    1.1956    2.4713   -2.7475 N   0  0  0  0  0  0  0  0  0  0  0  0
    0.1407    3.3786   -3.2440 C   0  0  0  0  0  0  0  0  0  0  0  0
   -0.7793    3.8138   -2.0873 C   0  0  0  0  0  0  0  0  0  0  0  0
   -0.0011    4.4463   -1.0895 O   0  0  0  0  0  0  0  0  0  0  0  0
    0.9522    3.5671   -0.5207 C   0  0  0  0  0  0  0  0  0  0  0  0
    1.9158    3.0519   -1.6079 C   0  0  0  0  0  0  0  0  0  0  0  0
    1.5522   -1.2486   -3.1471 C   0  0  0  0  0  0  0  0  0  0  0  0
    1.9239   -1.2967   -4.4972 C   0  0  0  0  0  0  0  0  0  0  0  0
    1.8422   -2.4909   -5.2087 C   0  0  0  0  0  0  0  0  0  0  0  0
    1.3962   -3.6292   -4.5497 C   0  0  0  0  0  0  0  0  0  0  0  0
    1.2748   -5.2612   -5.5168 Br  0  0  0  0  0  0  0  0  0  0  0  0
    1.0342   -3.6120   -3.2084 C   0  0  0  0  0  0  0  0  0  0  0  0
    1.1141   -2.4113   -2.5063 C   0  0  0  0  0  0  0  0  0  0  0  0
    0.7702    0.0550    2.5695 H   0  0  0  0  0  0  0  0  0  0  0  0
    2.1593    0.0770    4.6101 H   0  0  0  0  0  0  0  0  0  0  0  0
    4.6306    0.0238    4.4566 H   0  0  0  0  0  0  0  0  0  0  0  0
    5.7384   -0.0495    2.2333 H   0  0  0  0  0  0  0  0  0  0  0  0
    5.5845   -0.1299   -0.2217 H   0  0  0  0  0  0  0  0  0  0  0  0
    4.1527   -0.0955   -2.2960 H   0  0  0  0  0  0  0  0  0  0  0  0
    0.3799    0.9316   -3.8666 H   0  0  0  0  0  0  0  0  0  0  0  0
   -0.4446    2.9071   -4.0594 H   0  0  0  0  0  0  0  0  0  0  0  0
    0.6454    4.2724   -3.6811 H   0  0  0  0  0  0  0  0  0  0  0  0
   -1.4876    4.6044   -2.3914 H   0  0  0  0  0  0  0  0  0  0  0  0
   -1.3349    2.9616   -1.6545 H   0  0  0  0  0  0  0  0  0  0  0  0
    1.4707    4.2059    0.2166 H   0  0  0  0  0  0  0  0  0  0  0  0
    0.4296    2.7502    0.0076 H   0  0  0  0  0  0  0  0  0  0  0  0
    2.5131    3.9085   -2.0089 H   0  0  0  0  0  0  0  0  0  0  0  0
    2.6487    2.3433   -1.1787 H   0  0  0  0  0  0  0  0  0  0  0  0
    2.2854   -0.3977   -4.9932 H   0  0  0  0  0  0  0  0  0  0  0  0
    2.1283   -2.5160   -6.2591 H   0  0  0  0  0  0  0  0  0  0  0  0
    0.6837   -4.5114   -2.7012 H   0  0  0  0  0  0  0  0  0  0  0  0
    0.8157   -2.3799   -1.4566 H   0  0  0  0  0  0  0  0  0  0  0  0
  1  2  2  0  0  0  0
  2  3  1  0  0  0  0
  3  4  1  0  0  0  0
  4 27  1  0  0  0  0
  4  5  2  0  0  0  0
  5 28  1  0  0  0  0
  6  5  1  0  0  0  0
  6 29  1  0  0  0  0
  7  6  2  0  0  0  0
  8  3  2  0  0  0  0
  8  7  1  0  0  0  0
  9  8  1  0  0  0  0
 10 11  1  0  0  0  0
 10  9  2  0  0  0  0
 11  2  1  0  0  0  0
 12 13  1  1  0  0  0
 12 11  1  0  0  0  0
 13 14  1  0  0  0  0
 14 19  1  0  0  0  0
 15 14  1  0  0  0  0
 15 16  1  0  0  0  0
 16 37  1  0  0  0  0
 16 17  1  0  0  0  0
 17 18  1  0  0  0  0
 18 39  1  0  0  0  0
 18 38  1  0  0  0  0
 19 41  1  0  0  0  0
 19 18  1  0  0  0  0
 20 26  1  0  0  0  0
 20 12  1  0  0  0  0
 21 20  2  0  0  0  0
 22 23  2  0  0  0  0
 22 21  1  0  0  0  0
 23 25  1  0  0  0  0
 24 23  1  0  0  0  0
 25 44  1  0  0  0  0
 25 26  2  0  0  0  0
 26 45  1  0  0  0  0
 30  7  1  0  0  0  0
 31  9  1  0  0  0  0
 32 10  1  0  0  0  0
 33 13  1  0  0  0  0
 34 15  1  0  0  0  0
 35 15  1  0  0  0  0
 36 16  1  0  0  0  0
 40 19  1  0  0  0  0
 42 21  1  0  0  0  0
 43 22  1  0  0  0  0
M  RAD  2  12   2  13   2
M  END
$$$$
