45
rmsd45.gzmat
S          0.00000        0.00000        0.00000
C          1.67160        0.00000        0.00000
C          2.47320        0.00000        1.21070
C          1.86760        0.05720        2.48430
C          2.64110        0.05380        3.62800
C          4.04260       -0.01230        3.53750
C          4.65630       -0.06810        2.30290
C          3.87950       -0.05950        1.12620
C          4.49950       -0.11340       -0.16450
C          3.73170       -0.08880       -1.28630
N          2.34680        0.00170       -1.20220
C          1.62120        0.01610       -2.43410
C          0.98550        1.11610       -2.94120
N          1.16850        2.45050       -2.70480
C          0.03220        3.35000       -2.98640
C         -0.65960        3.75630       -1.67080
O          0.28360        4.39180       -0.82910
C          1.33840        3.52510       -0.45510
C          2.08180        3.01860       -1.70640
C          1.53560       -1.26580       -3.13860
C          1.70080       -1.28750       -4.52970
C          1.62610       -2.48840       -5.23090
C          1.39690       -3.66120       -4.52360
Br         1.30060       -5.30460       -5.47360
C          1.23720       -3.67040       -3.14330
C          1.30670       -2.46410       -2.45130
H          0.77570        0.10320        2.56920
H          2.17000        0.09990        4.60830
H          4.63800       -0.02020        4.45000
H          5.74000       -0.12030        2.22360
H          5.58270       -0.17870       -0.22660
H          4.14740       -0.13760       -2.30070
H          0.26590        0.92350       -3.76870
H         -0.69030        2.87920       -3.68380
H          0.43720        4.25610       -3.49550
H         -1.42350        4.53800       -1.82520
H         -1.11190        2.89030       -1.15270
H          1.98070        4.17340        0.16790
H          0.94040        2.70520        0.16720
H          2.59700        3.87940       -2.20240
H          2.88220        2.30630       -1.42980
H          1.90030       -0.36380       -5.06960
H          1.75170       -2.49150       -6.31250
H          1.05340       -4.59650       -2.59800
H          1.16590       -2.45640       -1.36950
