rmsd5.gzmat
 OpenBabel08211713393D

 45 48  0  0  1  0  0  0  0  0999 V2000
    0.0000    0.0000    0.0000 S   0  0  0  0  0  0  0  0  0  0  0  0
    1.6722    0.0000    0.0000 C   0  0  0  0  0  0  0  0  0  0  0  0
    2.4717    0.0000    1.2125 C   0  0  0  0  0  0  0  0  0  0  0  0
    1.8626   -0.0454    2.4852 C   0  0  0  0  0  0  0  0  0  0  0  0
    2.6331   -0.0343    3.6308 C   0  0  0  0  0  0  0  0  0  0  0  0
    4.0351    0.0251    3.5435 C   0  0  0  0  0  0  0  0  0  0  0  0
    4.6526    0.0646    2.3104 C   0  0  0  0  0  0  0  0  0  0  0  0
    3.8786    0.0517    1.1311 C   0  0  0  0  0  0  0  0  0  0  0  0
    4.5009    0.0950   -0.1587 C   0  0  0  0  0  0  0  0  0  0  0  0
    3.7347    0.0742   -1.2817 C   0  0  0  0  0  0  0  0  0  0  0  0
    2.3483   -0.0019   -1.2009 N   0  0  0  0  0  0  0  0  0  0  0  0
    1.6306    0.0112   -2.4372 C   0  0  1  0  0  0  0  0  0  0  0  0
    0.9864   -1.0656   -2.9804 C   0  0  0  0  0  0  0  0  0  0  0  0
    1.1429   -2.4074   -2.7708 N   0  0  0  0  0  0  0  0  0  0  0  0
    2.0108   -3.0106   -1.7532 C   0  0  0  0  0  0  0  0  0  0  0  0
    1.2101   -3.5354   -0.5461 C   0  0  0  0  0  0  0  0  0  0  0  0
    0.1771   -4.3974   -0.9870 O   0  0  0  0  0  0  0  0  0  0  0  0
   -0.7299   -3.7458   -1.8551 C   0  0  0  0  0  0  0  0  0  0  0  0
    0.0148   -3.2906   -3.1257 C   0  0  0  0  0  0  0  0  0  0  0  0
    1.5781    1.3065   -3.1239 C   0  0  0  0  0  0  0  0  0  0  0  0
    1.2483    2.4830   -2.4424 C   0  0  0  0  0  0  0  0  0  0  0  0
    1.2100    3.7002   -3.1184 C   0  0  0  0  0  0  0  0  0  0  0  0
    1.5066    3.7217   -4.4755 C   0  0  0  0  0  0  0  0  0  0  0  0
    1.4522    5.3796   -5.4039 Br  0  0  0  0  0  0  0  0  0  0  0  0
    1.8415    2.5702   -5.1759 C   0  0  0  0  0  0  0  0  0  0  0  0
    1.8789    1.3579   -4.4914 C   0  0  0  0  0  0  0  0  0  0  0  0
    0.7704   -0.0880    2.5682 H   0  0  0  0  0  0  0  0  0  0  0  0
    2.1604   -0.0698    4.6111 H   0  0  0  0  0  0  0  0  0  0  0  0
    4.6276    0.0388    4.4577 H   0  0  0  0  0  0  0  0  0  0  0  0
    5.7370    0.1085    2.2356 H   0  0  0  0  0  0  0  0  0  0  0  0
    5.5847    0.1526   -0.2199 H   0  0  0  0  0  0  0  0  0  0  0  0
    4.1523    0.1163   -2.2957 H   0  0  0  0  0  0  0  0  0  0  0  0
    0.2914   -0.8386   -3.8201 H   0  0  0  0  0  0  0  0  0  0  0  0
    2.8072   -2.3149   -1.4285 H   0  0  0  0  0  0  0  0  0  0  0  0
    2.5330   -3.8674   -2.2487 H   0  0  0  0  0  0  0  0  0  0  0  0
    1.8220   -4.1916    0.0987 H   0  0  0  0  0  0  0  0  0  0  0  0
    0.7797   -2.7238    0.0659 H   0  0  0  0  0  0  0  0  0  0  0  0
   -1.4760   -4.5308   -2.0699 H   0  0  0  0  0  0  0  0  0  0  0  0
   -1.2161   -2.9007   -1.3338 H   0  0  0  0  0  0  0  0  0  0  0  0
    0.4357   -4.1778   -3.6549 H   0  0  0  0  0  0  0  0  0  0  0  0
   -0.6809   -2.7903   -3.8300 H   0  0  0  0  0  0  0  0  0  0  0  0
    1.0065    2.4514   -1.3784 H   0  0  0  0  0  0  0  0  0  0  0  0
    0.9448    4.6095   -2.5783 H   0  0  0  0  0  0  0  0  0  0  0  0
    2.0761    2.5990   -6.2388 H   0  0  0  0  0  0  0  0  0  0  0  0
    2.1544    0.4485   -5.0222 H   0  0  0  0  0  0  0  0  0  0  0  0
  1  2  2  0  0  0  0
  2  3  1  0  0  0  0
  3  4  1  0  0  0  0
  4 27  1  0  0  0  0
  4  5  2  0  0  0  0
  5 28  1  0  0  0  0
  6  5  1  0  0  0  0
  6 29  1  0  0  0  0
  7  6  2  0  0  0  0
  8  3  2  0  0  0  0
  8  7  1  0  0  0  0
  9  8  1  0  0  0  0
 10 11  1  0  0  0  0
 10  9  2  0  0  0  0
 11  2  1  0  0  0  0
 12 13  1  1  0  0  0
 12 11  1  0  0  0  0
 13 14  1  0  0  0  0
 14 15  1  0  0  0  0
 15 34  1  0  0  0  0
 15 16  1  0  0  0  0
 16 37  1  0  0  0  0
 16 36  1  0  0  0  0
 17 16  1  0  0  0  0
 18 39  1  0  0  0  0
 18 17  1  0  0  0  0
 19 14  1  0  0  0  0
 19 18  1  0  0  0  0
 20 21  2  0  0  0  0
 20 12  1  0  0  0  0
 21 42  1  0  0  0  0
 22 43  1  0  0  0  0
 22 21  1  0  0  0  0
 23 22  2  0  0  0  0
 24 23  1  0  0  0  0
 25 26  2  0  0  0  0
 25 23  1  0  0  0  0
 26 20  1  0  0  0  0
 30  7  1  0  0  0  0
 31  9  1  0  0  0  0
 32 10  1  0  0  0  0
 33 13  1  0  0  0  0
 35 15  1  0  0  0  0
 38 18  1  0  0  0  0
 40 19  1  0  0  0  0
 41 19  1  0  0  0  0
 44 25  1  0  0  0  0
 45 26  1  0  0  0  0
M  RAD  2  12   2  13   2
M  END
$$$$
