45
rmsd21.gzmat
S          0.00000        0.00000        0.00000
C          1.67210        0.00000        0.00000
C          2.47170        0.00000        1.21210
C          1.86280        0.02150        2.48550
C          2.63410        0.02440        3.63070
C          4.03700        0.00380        3.54200
C          4.65400       -0.02080        2.30810
C          3.87920       -0.02580        1.12960
C          4.50100       -0.06460       -0.16060
C          3.73400       -0.05970       -1.28320
N          2.34740        0.00710       -1.20140
C          1.62460        0.00300       -2.43500
C          0.97820        1.08740       -2.96020
N          1.14610        2.42780       -2.74390
C         -0.00390        3.31060       -3.02130
C         -0.67790        3.73710       -1.70260
O          0.27250        4.38630       -0.88000
C          1.33500        3.52760       -0.50890
C          2.06660        3.01730       -1.76480
C          1.55870       -1.28750       -3.12840
C          1.83230       -1.32880       -4.50170
C          1.77820       -2.53500       -5.19600
C          1.45860       -3.69210       -4.49770
Br         1.39260       -5.34380       -5.43600
C          1.18660       -3.68000       -3.13530
C          1.23800       -2.46830       -2.45040
H          0.77010        0.03400        2.56940
H          2.16170        0.04040        4.61120
H          4.63020        0.00620        4.45590
H          5.73870       -0.03880        2.23160
H          5.58550       -0.10700       -0.22310
H          4.15090       -0.10540       -2.29730
H          0.26280        0.87490       -3.78640
H         -0.73520        2.81900       -3.69530
H          0.38250        4.20880       -3.55790
H         -1.44480        4.51550       -1.85950
H         -1.12280        2.87830       -1.16620
H          1.97870        4.18300        0.10460
H          0.94720        2.70770        0.11980
H          2.56420        3.87880       -2.27710
H          2.87760        2.31580       -1.49300
H          2.09850       -0.41550       -5.03040
H          1.98590       -2.55340       -6.26490
H          0.93030       -4.59300       -2.59730
H          1.01110       -2.44400       -1.38300
