rmsd6.gzmat
 OpenBabel08211713393D

 45 48  0  0  1  0  0  0  0  0999 V2000
    0.0000    0.0000    0.0000 S   0  0  0  0  0  0  0  0  0  0  0  0
    1.6727    0.0000    0.0000 C   0  0  0  0  0  0  0  0  0  0  0  0
    2.4717    0.0000    1.2131 C   0  0  0  0  0  0  0  0  0  0  0  0
    1.8637   -0.0371    2.4868 C   0  0  0  0  0  0  0  0  0  0  0  0
    2.6354   -0.0483    3.6316 C   0  0  0  0  0  0  0  0  0  0  0  0
    4.0383   -0.0239    3.5431 C   0  0  0  0  0  0  0  0  0  0  0  0
    4.6545    0.0134    2.3093 C   0  0  0  0  0  0  0  0  0  0  0  0
    3.8790    0.0309    1.1317 C   0  0  0  0  0  0  0  0  0  0  0  0
    4.5018    0.0812   -0.1576 C   0  0  0  0  0  0  0  0  0  0  0  0
    3.7358    0.0628   -1.2806 C   0  0  0  0  0  0  0  0  0  0  0  0
    2.3491   -0.0147   -1.1999 N   0  0  0  0  0  0  0  0  0  0  0  0
    1.6396   -0.0626   -2.4403 C   0  0  2  0  0  0  0  0  0  0  0  0
    1.0485   -1.1753   -2.9664 C   0  0  0  0  0  0  0  0  0  0  0  0
    1.2377   -2.5079   -2.7113 N   0  0  0  0  0  0  0  0  0  0  0  0
    2.0584   -3.0509   -1.6222 C   0  0  0  0  0  0  0  0  0  0  0  0
    1.2045   -3.5345   -0.4342 C   0  0  0  0  0  0  0  0  0  0  0  0
    0.2002   -4.4247   -0.8849 O   0  0  0  0  0  0  0  0  0  0  0  0
   -0.6660   -3.8200   -1.8260 C   0  0  0  0  0  0  0  0  0  0  0  0
    0.1411   -3.4265   -3.0779 C   0  0  0  0  0  0  0  0  0  0  0  0
    1.5661    1.2087   -3.1730 C   0  0  0  0  0  0  0  0  0  0  0  0
    1.0326    2.3612   -2.5896 C   0  0  0  0  0  0  0  0  0  0  0  0
    0.9924    3.5562   -3.3052 C   0  0  0  0  0  0  0  0  0  0  0  0
    1.4903    3.5768   -4.6018 C   0  0  0  0  0  0  0  0  0  0  0  0
    1.4458    5.2067   -5.5791 Br  0  0  0  0  0  0  0  0  0  0  0  0
    2.0193    2.4443   -5.2083 C   0  0  0  0  0  0  0  0  0  0  0  0
    2.0562    1.2549   -4.4847 C   0  0  0  0  0  0  0  0  0  0  0  0
    0.7710   -0.0570    2.5710 H   0  0  0  0  0  0  0  0  0  0  0  0
    2.1625   -0.0760    4.6118 H   0  0  0  0  0  0  0  0  0  0  0  0
    4.6325   -0.0338    4.4565 H   0  0  0  0  0  0  0  0  0  0  0  0
    5.7394    0.0305    2.2310 H   0  0  0  0  0  0  0  0  0  0  0  0
    5.5857    0.1398   -0.2183 H   0  0  0  0  0  0  0  0  0  0  0  0
    4.1536    0.1039   -2.2946 H   0  0  0  0  0  0  0  0  0  0  0  0
    0.3787   -0.9976   -3.8377 H   0  0  0  0  0  0  0  0  0  0  0  0
    2.8268   -2.3283   -1.2893 H   0  0  0  0  0  0  0  0  0  0  0  0
    2.6194   -3.9193   -2.0497 H   0  0  0  0  0  0  0  0  0  0  0  0
    1.7906   -4.1562    0.2662 H   0  0  0  0  0  0  0  0  0  0  0  0
    0.7375   -2.7033    0.1219 H   0  0  0  0  0  0  0  0  0  0  0  0
   -1.3999   -4.6171   -2.0370 H   0  0  0  0  0  0  0  0  0  0  0  0
   -1.1773   -2.9519   -1.3705 H   0  0  0  0  0  0  0  0  0  0  0  0
    0.6014   -4.3360   -3.5316 H   0  0  0  0  0  0  0  0  0  0  0  0
   -0.5174   -2.9778   -3.8491 H   0  0  0  0  0  0  0  0  0  0  0  0
    0.6336    2.3267   -1.5735 H   0  0  0  0  0  0  0  0  0  0  0  0
    0.5702    4.4488   -2.8426 H   0  0  0  0  0  0  0  0  0  0  0  0
    2.4027    2.4704   -6.2270 H   0  0  0  0  0  0  0  0  0  0  0  0
    2.4742    0.3591   -4.9406 H   0  0  0  0  0  0  0  0  0  0  0  0
  2  1  2  0  0  0  0
  2  3  1  0  0  0  0
  3  4  1  0  0  0  0
  4 27  1  0  0  0  0
  4  5  2  0  0  0  0
  5 28  1  0  0  0  0
  6  5  1  0  0  0  0
  6 29  1  0  0  0  0
  7  6  2  0  0  0  0
  8  3  2  0  0  0  0
  8  7  1  0  0  0  0
  9  8  1  0  0  0  0
 10 11  1  0  0  0  0
 10  9  2  0  0  0  0
 11  2  1  0  0  0  0
 12 13  1  6  0  0  0
 12 11  1  0  0  0  0
 13 14  1  0  0  0  0
 14 15  1  0  0  0  0
 15 34  1  0  0  0  0
 15 16  1  0  0  0  0
 16 37  1  0  0  0  0
 16 36  1  0  0  0  0
 17 16  1  0  0  0  0
 18 39  1  0  0  0  0
 18 17  1  0  0  0  0
 19 14  1  0  0  0  0
 19 18  1  0  0  0  0
 20 21  1  0  0  0  0
 20 12  1  0  0  0  0
 21 42  1  0  0  0  0
 22 43  1  0  0  0  0
 22 21  2  0  0  0  0
 23 22  1  0  0  0  0
 24 23  1  0  0  0  0
 25 23  2  0  0  0  0
 25 26  1  0  0  0  0
 26 20  2  0  0  0  0
 30  7  1  0  0  0  0
 31  9  1  0  0  0  0
 32 10  1  0  0  0  0
 33 13  1  0  0  0  0
 35 15  1  0  0  0  0
 38 18  1  0  0  0  0
 40 19  1  0  0  0  0
 41 19  1  0  0  0  0
 44 25  1  0  0  0  0
 45 26  1  0  0  0  0
M  RAD  2  12   2  13   2
M  END
$$$$
