rmsd30.gzmat
 OpenBabel08211713393D

 45 48  0  0  1  0  0  0  0  0999 V2000
    0.0000    0.0000    0.0000 S   0  0  0  0  0  0  0  0  0  0  0  0
    1.6736    0.0000    0.0000 C   0  0  0  0  0  0  0  0  0  0  0  0
    2.4710    0.0000    1.2135 C   0  0  0  0  0  0  0  0  0  0  0  0
    1.8599   -0.0184    2.4859 C   0  0  0  0  0  0  0  0  0  0  0  0
    2.6290   -0.0254    3.6324 C   0  0  0  0  0  0  0  0  0  0  0  0
    4.0322   -0.0106    3.5464 C   0  0  0  0  0  0  0  0  0  0  0  0
    4.6516    0.0053    2.3138 C   0  0  0  0  0  0  0  0  0  0  0  0
    3.8790    0.0047    1.1338 C   0  0  0  0  0  0  0  0  0  0  0  0
    4.5042   -0.0041   -0.1553 C   0  0  0  0  0  0  0  0  0  0  0  0
    3.7385   -0.0179   -1.2787 C   0  0  0  0  0  0  0  0  0  0  0  0
    2.3498    0.0109   -1.2000 N   0  0  0  0  0  0  0  0  0  0  0  0
    1.6367   -0.0657   -2.4369 C   0  0  2  0  0  0  0  0  0  0  0  0
    0.9687    0.9634   -3.0348 C   0  0  0  0  0  0  0  0  0  0  0  0
    1.0792    2.3196   -2.8845 N   0  0  0  0  0  0  0  0  0  0  0  0
   -0.0827    3.1403   -3.2791 C   0  0  0  0  0  0  0  0  0  0  0  0
   -0.8611    3.5985   -2.0306 C   0  0  0  0  0  0  0  0  0  0  0  0
    0.0072    4.3300   -1.1863 O   0  0  0  0  0  0  0  0  0  0  0  0
    1.0744    3.5360   -0.7016 C   0  0  0  0  0  0  0  0  0  0  0  0
    1.9086    2.9911   -1.8769 C   0  0  0  0  0  0  0  0  0  0  0  0
    1.6377   -1.3933   -3.0673 C   0  0  0  0  0  0  0  0  0  0  0  0
    2.1680   -1.5235   -4.3565 C   0  0  0  0  0  0  0  0  0  0  0  0
    2.2111   -2.7701   -4.9761 C   0  0  0  0  0  0  0  0  0  0  0  0
    1.7163   -3.8723   -4.2902 C   0  0  0  0  0  0  0  0  0  0  0  0
    1.7808   -5.5782   -5.1264 Br  0  0  0  0  0  0  0  0  0  0  0  0
    1.1759   -3.7680   -3.0147 C   0  0  0  0  0  0  0  0  0  0  0  0
    1.1393   -2.5170   -2.4022 C   0  0  0  0  0  0  0  0  0  0  0  0
    0.7668   -0.0303    2.5675 H   0  0  0  0  0  0  0  0  0  0  0  0
    2.1538   -0.0447    4.6116 H   0  0  0  0  0  0  0  0  0  0  0  0
    4.6247   -0.0143    4.4608 H   0  0  0  0  0  0  0  0  0  0  0  0
    5.7367    0.0144    2.2387 H   0  0  0  0  0  0  0  0  0  0  0  0
    5.5895   -0.0131   -0.2165 H   0  0  0  0  0  0  0  0  0  0  0  0
    4.1593   -0.0506   -2.2916 H   0  0  0  0  0  0  0  0  0  0  0  0
    0.2970    0.6786   -3.8758 H   0  0  0  0  0  0  0  0  0  0  0  0
   -0.7449    2.5880   -3.9763 H   0  0  0  0  0  0  0  0  0  0  0  0
    0.3043    4.0295   -3.8305 H   0  0  0  0  0  0  0  0  0  0  0  0
   -1.6493    4.3319   -2.2751 H   0  0  0  0  0  0  0  0  0  0  0  0
   -1.3002    2.7463   -1.4796 H   0  0  0  0  0  0  0  0  0  0  0  0
    1.6502    4.2487   -0.0847 H   0  0  0  0  0  0  0  0  0  0  0  0
    0.6755    2.7352   -0.0551 H   0  0  0  0  0  0  0  0  0  0  0  0
    2.4114    3.8438   -2.3983 H   0  0  0  0  0  0  0  0  0  0  0  0
    2.7211    2.3344   -1.5126 H   0  0  0  0  0  0  0  0  0  0  0  0
    2.5551   -0.6484   -4.8752 H   0  0  0  0  0  0  0  0  0  0  0  0
    2.6304   -2.8641   -5.9765 H   0  0  0  0  0  0  0  0  0  0  0  0
    0.7806   -4.6371   -2.4885 H   0  0  0  0  0  0  0  0  0  0  0  0
    0.7085   -2.4178   -1.4033 H   0  0  0  0  0  0  0  0  0  0  0  0
  1  2  2  0  0  0  0
  2  3  1  0  0  0  0
  3  4  1  0  0  0  0
  4 27  1  0  0  0  0
  4  5  2  0  0  0  0
  5 28  1  0  0  0  0
  6  5  1  0  0  0  0
  6 29  1  0  0  0  0
  7  6  2  0  0  0  0
  8  3  2  0  0  0  0
  8  7  1  0  0  0  0
  9  8  1  0  0  0  0
 10 11  1  0  0  0  0
 10  9  2  0  0  0  0
 11  2  1  0  0  0  0
 12 13  1  1  0  0  0
 12 11  1  0  0  0  0
 13 14  1  0  0  0  0
 14 19  1  0  0  0  0
 15 14  1  0  0  0  0
 15 16  1  0  0  0  0
 16 37  1  0  0  0  0
 16 17  1  0  0  0  0
 17 18  1  0  0  0  0
 18 38  1  0  0  0  0
 18 39  1  0  0  0  0
 19 41  1  0  0  0  0
 19 18  1  0  0  0  0
 20 12  1  0  0  0  0
 20 26  2  0  0  0  0
 21 20  1  0  0  0  0
 22 21  2  0  0  0  0
 22 23  1  0  0  0  0
 23 25  2  0  0  0  0
 24 23  1  0  0  0  0
 25 44  1  0  0  0  0
 25 26  1  0  0  0  0
 26 45  1  0  0  0  0
 30  7  1  0  0  0  0
 31  9  1  0  0  0  0
 32 10  1  0  0  0  0
 33 13  1  0  0  0  0
 34 15  1  0  0  0  0
 35 15  1  0  0  0  0
 36 16  1  0  0  0  0
 40 19  1  0  0  0  0
 42 21  1  0  0  0  0
 43 22  1  0  0  0  0
M  RAD  2  12   2  13   2
M  END
$$$$
