rmsd21.gzmat
 OpenBabel08211713393D

 45 48  0  0  1  0  0  0  0  0999 V2000
    0.0000    0.0000    0.0000 S   0  0  0  0  0  0  0  0  0  0  0  0
    1.6721    0.0000    0.0000 C   0  0  0  0  0  0  0  0  0  0  0  0
    2.4717    0.0000    1.2121 C   0  0  0  0  0  0  0  0  0  0  0  0
    1.8628    0.0215    2.4855 C   0  0  0  0  0  0  0  0  0  0  0  0
    2.6341    0.0244    3.6307 C   0  0  0  0  0  0  0  0  0  0  0  0
    4.0370    0.0038    3.5420 C   0  0  0  0  0  0  0  0  0  0  0  0
    4.6540   -0.0208    2.3081 C   0  0  0  0  0  0  0  0  0  0  0  0
    3.8792   -0.0258    1.1296 C   0  0  0  0  0  0  0  0  0  0  0  0
    4.5010   -0.0646   -0.1606 C   0  0  0  0  0  0  0  0  0  0  0  0
    3.7340   -0.0597   -1.2832 C   0  0  0  0  0  0  0  0  0  0  0  0
    2.3474    0.0071   -1.2014 N   0  0  0  0  0  0  0  0  0  0  0  0
    1.6246    0.0030   -2.4350 C   0  0  2  0  0  0  0  0  0  0  0  0
    0.9782    1.0874   -2.9602 C   0  0  0  0  0  0  0  0  0  0  0  0
    1.1461    2.4278   -2.7439 N   0  0  0  0  0  0  0  0  0  0  0  0
   -0.0039    3.3106   -3.0213 C   0  0  0  0  0  0  0  0  0  0  0  0
   -0.6779    3.7371   -1.7026 C   0  0  0  0  0  0  0  0  0  0  0  0
    0.2725    4.3863   -0.8800 O   0  0  0  0  0  0  0  0  0  0  0  0
    1.3350    3.5276   -0.5089 C   0  0  0  0  0  0  0  0  0  0  0  0
    2.0666    3.0173   -1.7648 C   0  0  0  0  0  0  0  0  0  0  0  0
    1.5587   -1.2875   -3.1284 C   0  0  0  0  0  0  0  0  0  0  0  0
    1.8323   -1.3288   -4.5017 C   0  0  0  0  0  0  0  0  0  0  0  0
    1.7782   -2.5350   -5.1960 C   0  0  0  0  0  0  0  0  0  0  0  0
    1.4586   -3.6921   -4.4977 C   0  0  0  0  0  0  0  0  0  0  0  0
    1.3926   -5.3438   -5.4360 Br  0  0  0  0  0  0  0  0  0  0  0  0
    1.1866   -3.6800   -3.1353 C   0  0  0  0  0  0  0  0  0  0  0  0
    1.2380   -2.4683   -2.4504 C   0  0  0  0  0  0  0  0  0  0  0  0
    0.7701    0.0340    2.5694 H   0  0  0  0  0  0  0  0  0  0  0  0
    2.1617    0.0404    4.6112 H   0  0  0  0  0  0  0  0  0  0  0  0
    4.6302    0.0062    4.4559 H   0  0  0  0  0  0  0  0  0  0  0  0
    5.7387   -0.0388    2.2316 H   0  0  0  0  0  0  0  0  0  0  0  0
    5.5855   -0.1070   -0.2231 H   0  0  0  0  0  0  0  0  0  0  0  0
    4.1509   -0.1054   -2.2973 H   0  0  0  0  0  0  0  0  0  0  0  0
    0.2628    0.8749   -3.7864 H   0  0  0  0  0  0  0  0  0  0  0  0
   -0.7352    2.8190   -3.6953 H   0  0  0  0  0  0  0  0  0  0  0  0
    0.3825    4.2088   -3.5579 H   0  0  0  0  0  0  0  0  0  0  0  0
   -1.4448    4.5155   -1.8595 H   0  0  0  0  0  0  0  0  0  0  0  0
   -1.1228    2.8783   -1.1662 H   0  0  0  0  0  0  0  0  0  0  0  0
    1.9787    4.1830    0.1046 H   0  0  0  0  0  0  0  0  0  0  0  0
    0.9472    2.7077    0.1198 H   0  0  0  0  0  0  0  0  0  0  0  0
    2.5642    3.8788   -2.2771 H   0  0  0  0  0  0  0  0  0  0  0  0
    2.8776    2.3158   -1.4930 H   0  0  0  0  0  0  0  0  0  0  0  0
    2.0985   -0.4155   -5.0304 H   0  0  0  0  0  0  0  0  0  0  0  0
    1.9859   -2.5534   -6.2649 H   0  0  0  0  0  0  0  0  0  0  0  0
    0.9303   -4.5930   -2.5973 H   0  0  0  0  0  0  0  0  0  0  0  0
    1.0111   -2.4440   -1.3830 H   0  0  0  0  0  0  0  0  0  0  0  0
  1  2  2  0  0  0  0
  2  3  1  0  0  0  0
  3  4  1  0  0  0  0
  4 27  1  0  0  0  0
  4  5  2  0  0  0  0
  5 28  1  0  0  0  0
  6  5  1  0  0  0  0
  6 29  1  0  0  0  0
  7  6  2  0  0  0  0
  8  3  2  0  0  0  0
  8  7  1  0  0  0  0
  9  8  1  0  0  0  0
 10 11  1  0  0  0  0
 10  9  2  0  0  0  0
 11  2  1  0  0  0  0
 12 13  1  1  0  0  0
 12 11  1  0  0  0  0
 13 14  1  0  0  0  0
 14 19  1  0  0  0  0
 15 14  1  0  0  0  0
 15 16  1  0  0  0  0
 16 37  1  0  0  0  0
 16 17  1  0  0  0  0
 17 18  1  0  0  0  0
 18 38  1  0  0  0  0
 18 39  1  0  0  0  0
 19 41  1  0  0  0  0
 19 18  1  0  0  0  0
 20 26  2  0  0  0  0
 20 12  1  0  0  0  0
 21 20  1  0  0  0  0
 22 21  2  0  0  0  0
 22 23  1  0  0  0  0
 23 25  2  0  0  0  0
 24 23  1  0  0  0  0
 25 44  1  0  0  0  0
 25 26  1  0  0  0  0
 26 45  1  0  0  0  0
 30  7  1  0  0  0  0
 31  9  1  0  0  0  0
 32 10  1  0  0  0  0
 33 13  1  0  0  0  0
 34 15  1  0  0  0  0
 35 15  1  0  0  0  0
 36 16  1  0  0  0  0
 40 19  1  0  0  0  0
 42 21  1  0  0  0  0
 43 22  1  0  0  0  0
M  RAD  2  12   2  13   2
M  END
$$$$
