45
rmsd1.gzmat
S          0.00000        0.00000        0.00000
C          1.67250        0.00000        0.00000
C          2.47220        0.00000        1.21230
C          1.86430       -0.04730        2.48560
C          2.63480       -0.03350        3.63110
C          4.03640        0.03130        3.54310
C          4.65280        0.07250        2.30940
C          3.87890        0.05430        1.13060
C          4.50060        0.09610       -0.15960
C          3.73410        0.07290       -1.28250
N          2.34760       -0.00440       -1.20140
C          1.62840        0.01840       -2.43700
C          0.97750       -1.04940       -2.98900
N          1.12100       -2.39460       -2.78960
C          1.97110       -3.01170       -1.76510
C          1.15190       -3.53120       -0.56810
O          0.11100       -4.37660       -1.02300
C         -0.77990       -3.70390       -1.89210
C         -0.01780       -3.25960       -3.15590
C          1.58340        1.31890       -3.11450
C          1.89540        1.38000       -4.47870
C          1.87700        2.59950       -5.15110
C          1.54700        3.74710       -4.44170
Br         1.52990        5.41660       -5.35020
C          1.22990        3.71360       -3.08960
C          1.25020        2.48970       -2.42560
H          0.77240       -0.09420        2.56920
H          2.16130       -0.07030        4.61060
H          4.62970        0.05030        4.45690
H          5.73690        0.12280        2.23400
H          5.58440        0.15460       -0.22170
H          4.15260        0.11280       -2.29600
H          0.28750       -0.81250       -3.83050
H          2.77180       -2.32570       -1.43050
H          2.48860       -3.87260       -2.25790
H          1.74880       -4.19730        0.08000
H          0.72590       -2.71660        0.04290
H         -1.54090       -4.47220       -2.11340
H         -1.25200       -2.85170       -1.36890
H          0.39280       -4.15300       -3.68290
H         -0.69850       -2.74760       -3.86660
H          2.16390        0.47230       -5.01610
H          2.12280        2.63700       -6.21110
H          0.96360        4.61910       -2.54360
H          0.99100        2.44720       -1.36610
