45
rmsd10.gzmat
S          0.00000        0.00000        0.00000
C          1.67160        0.00000        0.00000
C          2.47250        0.00000        1.21140
C          1.86670       -0.08120        2.48370
C          2.63930       -0.09260        3.62780
C          4.04010       -0.01490        3.53940
C          4.65380        0.07100        2.30640
C          3.87790        0.07730        1.12890
C          4.49710        0.15930       -0.16080
C          3.73120        0.11990       -1.28360
N          2.34830       -0.00250       -1.20130
C          1.62530       -0.05770       -2.43370
C          0.99950       -1.17800       -2.90840
N          1.20010       -2.50300       -2.63520
C          2.14650       -3.02800       -1.64460
C          1.44200       -3.50000       -0.35850
O          0.40040       -4.40310       -0.68000
C         -0.57750       -3.81590       -1.51720
C          0.06940       -3.42470       -2.86060
C          1.53240        1.20110       -3.17760
C          1.27260        2.41520       -2.53130
C          1.19790        3.59870       -3.26110
C          1.38650        3.55060       -4.63690
Br         1.28600        5.16200       -5.63980
C          1.64690        2.36100       -5.30420
C          1.72280        1.18260       -4.56590
H          0.77530       -0.13580        2.56690
H          2.16780       -0.16010        4.60670
H          4.63510       -0.02220        4.45230
H          5.73700        0.13480        2.22930
H          5.57800        0.25700       -0.22140
H          4.14640        0.18020       -2.29760
H          0.27380       -1.01700       -3.73700
H          2.94640       -2.29850       -1.41590
H          2.65670       -3.90090       -2.12460
H          2.11090       -4.10920        0.27560
H          1.03860       -2.66430        0.23850
H         -1.32220       -4.62260       -1.63390
H         -1.04290       -2.95010       -1.01050
H          0.47200       -4.33450       -3.36550
H         -0.68200       -2.97950       -3.54420
H          1.11220        2.43770       -1.45190
H          0.98860        4.53750       -2.74770
H          1.79490        2.33460       -6.38250
H          1.94210        0.24520       -5.07330
