52
rmsd250.gzmat
Cl         0.00000        0.00000        0.00000
C          1.70920        0.00000        0.00000
C          2.36740        0.00000        1.21620
C          3.76160        0.00910        1.17460
C          4.45420        0.01070       -0.05590
C          5.88850        0.04280        0.11680
C          6.27420        0.06820        1.42070
S          7.92200        0.20870        1.93140
O          8.15130       -0.51790        3.15630
O          8.77340        0.01370        0.77520
N          8.07200        1.87740        2.41520
C          8.57340        2.90490        1.51900
H          8.13070        3.88570        1.85670
C         10.12160        3.02780        1.43710
C         10.41660        3.44210       -0.02310
N          9.20350        3.05460       -0.76200
C          8.14680        2.70760        0.04770
O          7.06850        2.35390       -0.37170
C          9.12000        3.11020       -2.21190
H          8.17510        2.58120       -2.53390
C          9.08540        4.55400       -2.72250
C         10.35270        2.40620       -2.82110
O         11.32360        3.05230       -3.16250
N         10.26390        1.05270       -3.11340
C         11.44660        0.43110       -3.74090
C         12.36790       -0.18380       -2.67200
O         11.64090       -1.09030       -1.86700
C         10.54750       -0.48660       -1.20020
C          9.56150        0.11620       -2.21950
S          4.89240        0.03230        2.50660
C          3.74850        0.00980       -1.26640
C          2.36350        0.00530       -1.23890
H          1.82350       -0.00160        2.16060
H          6.55300        0.06370       -0.74710
H          8.35770        2.02650        3.38140
H         10.60540        2.06040        1.66770
H         10.51530        3.75740        2.15690
H         10.59940        4.53320       -0.11960
H         11.30820        2.92250       -0.43500
H         10.02350        5.08340       -2.50430
H          8.26070        5.11570       -2.27010
H          8.95770        4.58050       -3.81220
H         11.99820        1.18280       -4.35090
H         11.08080       -0.35700       -4.43730
H         13.15350       -0.82050       -3.11570
H         12.83330        0.59110       -2.03870
H         10.09930       -1.32820       -0.63740
H         10.91090        0.26710       -0.48240
H          9.11900       -0.68780       -2.84970
H          8.72280        0.61030       -1.68220
H          4.29040        0.02130       -2.21270
H          1.79000        0.01060       -2.16710
