rmsd80.gzmat
 OpenBabel08211713433D

 52 55  0  0  1  0  0  0  0  0999 V2000
    0.0000    0.0000    0.0000 Cl  0  0  0  0  0  0  0  0  0  0  0  0
    1.7089    0.0000    0.0000 C   0  0  0  0  0  0  0  0  0  0  0  0
    2.3674    0.0000    1.2154 C   0  0  0  0  0  0  0  0  0  0  0  0
    3.7620   -0.0213    1.1731 C   0  0  0  0  0  0  0  0  0  0  0  0
    4.4530   -0.0365   -0.0588 C   0  0  0  0  0  0  0  0  0  0  0  0
    5.8850   -0.1092    0.1125 C   0  0  0  0  0  0  0  0  0  0  0  0
    6.2688   -0.1489    1.4164 C   0  0  0  0  0  0  0  0  0  0  0  0
    7.9152   -0.3337    1.9321 S   0  0  0  0  0  0  0  0  0  0  0  0
    8.7776    0.4042    1.0411 O   0  0  0  0  0  0  0  0  0  0  0  0
    8.0121   -0.2058    3.3648 O   0  0  0  0  0  0  0  0  0  0  0  0
    8.2041   -2.0222    1.6127 N   0  0  0  0  0  0  0  0  0  0  0  0
    8.8949   -2.4337    0.4017 C   0  0  1  0  0  0  0  0  0  0  0  0
    9.3666   -1.5672   -0.1363 H   0  0  0  0  0  0  0  0  0  0  0  0
    9.9245   -3.5639    0.6432 C   0  0  0  0  0  0  0  0  0  0  0  0
    9.2603   -4.8686    0.1444 C   0  0  0  0  0  0  0  0  0  0  0  0
    8.1393   -4.4233   -0.7072 N   0  0  0  0  0  0  0  0  0  0  0  0
    7.8296   -3.0855   -0.5164 C   0  0  0  0  0  0  0  0  0  0  0  0
    6.8879   -2.5371   -1.0406 O   0  0  0  0  0  0  0  0  0  0  0  0
    7.1362   -5.3711   -1.1750 C   0  0  1  0  0  0  0  0  0  0  0  0
    6.5323   -4.8498   -1.9724 H   0  0  0  0  0  0  0  0  0  0  0  0
    7.7628   -6.6377   -1.7575 C   0  0  0  0  0  0  0  0  0  0  0  0
    6.2560   -5.7846    0.0269 C   0  0  0  0  0  0  0  0  0  0  0  0
    6.7573   -6.3636    0.9728 O   0  0  0  0  0  0  0  0  0  0  0  0
    4.8857   -5.5988   -0.0290 N   0  0  0  0  0  0  0  0  0  0  0  0
    4.1188   -5.8780    1.2009 C   0  0  0  0  0  0  0  0  0  0  0  0
    3.9008   -4.5774    1.9944 C   0  0  0  0  0  0  0  0  0  0  0  0
    3.2549   -3.6189    1.1767 O   0  0  0  0  0  0  0  0  0  0  0  0
    4.0082   -3.2895    0.0260 C   0  0  0  0  0  0  0  0  0  0  0  0
    4.2562   -4.5423   -0.8344 C   0  0  0  0  0  0  0  0  0  0  0  0
    4.8914   -0.0708    2.5044 S   0  0  0  0  0  0  0  0  0  0  0  0
    3.7462   -0.0208   -1.2692 C   0  0  0  0  0  0  0  0  0  0  0  0
    2.3621   -0.0068   -1.2404 C   0  0  0  0  0  0  0  0  0  0  0  0
    1.8243   -0.0005    2.1606 H   0  0  0  0  0  0  0  0  0  0  0  0
    6.5458   -0.1518   -0.7537 H   0  0  0  0  0  0  0  0  0  0  0  0
    8.3086   -2.6492    2.4023 H   0  0  0  0  0  0  0  0  0  0  0  0
   10.2183   -3.6432    1.7024 H   0  0  0  0  0  0  0  0  0  0  0  0
   10.8553   -3.3605    0.0865 H   0  0  0  0  0  0  0  0  0  0  0  0
    9.9604   -5.4827   -0.4568 H   0  0  0  0  0  0  0  0  0  0  0  0
    8.8982   -5.5014    0.9867 H   0  0  0  0  0  0  0  0  0  0  0  0
    8.2628   -7.2383   -0.9837 H   0  0  0  0  0  0  0  0  0  0  0  0
    8.5045   -6.3945   -2.5285 H   0  0  0  0  0  0  0  0  0  0  0  0
    6.9976   -7.2783   -2.2147 H   0  0  0  0  0  0  0  0  0  0  0  0
    4.6463   -6.6379    1.8213 H   0  0  0  0  0  0  0  0  0  0  0  0
    3.1410   -6.3169    0.8985 H   0  0  0  0  0  0  0  0  0  0  0  0
    3.1886   -4.7097    2.8275 H   0  0  0  0  0  0  0  0  0  0  0  0
    4.8500   -4.1646    2.3777 H   0  0  0  0  0  0  0  0  0  0  0  0
    3.3609   -2.5569   -0.4896 H   0  0  0  0  0  0  0  0  0  0  0  0
    4.9552   -2.8001    0.3206 H   0  0  0  0  0  0  0  0  0  0  0  0
    3.2882   -4.9425   -1.2188 H   0  0  0  0  0  0  0  0  0  0  0  0
    4.8745   -4.2754   -1.7187 H   0  0  0  0  0  0  0  0  0  0  0  0
    4.2889   -0.0296   -2.2147 H   0  0  0  0  0  0  0  0  0  0  0  0
    1.7871   -0.0024   -2.1669 H   0  0  0  0  0  0  0  0  0  0  0  0
  1  2  1  0  0  0  0
  2  3  2  0  0  0  0
  3 33  1  0  0  0  0
  4  3  1  0  0  0  0
  4 30  1  0  0  0  0
  5  6  1  0  0  0  0
  5  4  2  0  0  0  0
  6  7  2  0  0  0  0
  7  8  1  0  0  0  0
  7 30  1  0  0  0  0
  8 10  2  0  0  0  0
  9  8  2  0  0  0  0
 11  8  1  0  0  0  0
 11 35  1  0  0  0  0
 12 13  1  6  0  0  0
 12 14  1  0  0  0  0
 12 11  1  0  0  0  0
 14 36  1  0  0  0  0
 15 14  1  0  0  0  0
 15 39  1  0  0  0  0
 16 17  1  0  0  0  0
 16 15  1  0  0  0  0
 17 12  1  0  0  0  0
 18 17  2  0  0  0  0
 19 20  1  6  0  0  0
 19 16  1  0  0  0  0
 19 22  1  0  0  0  0
 21 19  1  0  0  0  0
 21 40  1  0  0  0  0
 22 23  2  0  0  0  0
 24 22  1  0  0  0  0
 24 25  1  0  0  0  0
 25 43  1  0  0  0  0
 25 26  1  0  0  0  0
 26 46  1  0  0  0  0
 26 45  1  0  0  0  0
 27 26  1  0  0  0  0
 28 48  1  0  0  0  0
 28 27  1  0  0  0  0
 29 24  1  0  0  0  0
 29 28  1  0  0  0  0
 31 32  2  0  0  0  0
 31  5  1  0  0  0  0
 32  2  1  0  0  0  0
 34  6  1  0  0  0  0
 37 14  1  0  0  0  0
 38 15  1  0  0  0  0
 41 21  1  0  0  0  0
 42 21  1  0  0  0  0
 44 25  1  0  0  0  0
 47 28  1  0  0  0  0
 49 29  1  0  0  0  0
 50 29  1  0  0  0  0
 51 31  1  0  0  0  0
 52 32  1  0  0  0  0
M  END
$$$$
