rmsd138.gzmat
 OpenBabel08211713433D

 52 55  0  0  1  0  0  0  0  0999 V2000
    0.0000    0.0000    0.0000 Cl  0  0  0  0  0  0  0  0  0  0  0  0
    1.7090    0.0000    0.0000 C   0  0  0  0  0  0  0  0  0  0  0  0
    2.3665    0.0000    1.2160 C   0  0  0  0  0  0  0  0  0  0  0  0
    3.7609   -0.0263    1.1757 C   0  0  0  0  0  0  0  0  0  0  0  0
    4.4536   -0.0482   -0.0553 C   0  0  0  0  0  0  0  0  0  0  0  0
    5.8852   -0.1291    0.1185 C   0  0  0  0  0  0  0  0  0  0  0  0
    6.2665   -0.1661    1.4232 C   0  0  0  0  0  0  0  0  0  0  0  0
    7.9104   -0.3626    1.9410 S   0  0  0  0  0  0  0  0  0  0  0  0
    8.7838    0.3089    1.0086 O   0  0  0  0  0  0  0  0  0  0  0  0
    8.0207   -0.1626    3.3648 O   0  0  0  0  0  0  0  0  0  0  0  0
    8.1599   -2.0723    1.7109 N   0  0  0  0  0  0  0  0  0  0  0  0
    8.8308   -2.5595    0.5167 C   0  0  1  0  0  0  0  0  0  0  0  0
    9.3503   -1.7370   -0.0464 H   0  0  0  0  0  0  0  0  0  0  0  0
    9.7975   -3.7347    0.7994 C   0  0  0  0  0  0  0  0  0  0  0  0
    9.0867   -5.0147    0.2994 C   0  0  0  0  0  0  0  0  0  0  0  0
    7.9857   -4.5327   -0.5579 N   0  0  0  0  0  0  0  0  0  0  0  0
    7.7342   -3.1800   -0.3858 C   0  0  0  0  0  0  0  0  0  0  0  0
    6.8133   -2.6008   -0.9142 O   0  0  0  0  0  0  0  0  0  0  0  0
    6.9391   -5.4399   -1.0112 C   0  0  1  0  0  0  0  0  0  0  0  0
    6.3564   -4.8986   -1.8116 H   0  0  0  0  0  0  0  0  0  0  0  0
    7.5041   -6.7404   -1.5828 C   0  0  0  0  0  0  0  0  0  0  0  0
    6.0450   -5.8026    0.1966 C   0  0  0  0  0  0  0  0  0  0  0  0
    6.5322   -6.3555    1.1651 O   0  0  0  0  0  0  0  0  0  0  0  0
    4.6750   -5.6073    0.1228 N   0  0  0  0  0  0  0  0  0  0  0  0
    3.9023   -5.8308    1.3612 C   0  0  0  0  0  0  0  0  0  0  0  0
    3.7305   -4.5035    2.1216 C   0  0  0  0  0  0  0  0  0  0  0  0
    3.1130   -3.5456    1.2811 O   0  0  0  0  0  0  0  0  0  0  0  0
    3.8682   -3.2736    0.1165 C   0  0  0  0  0  0  0  0  0  0  0  0
    4.0682   -4.5575   -0.7091 C   0  0  0  0  0  0  0  0  0  0  0  0
    4.8884   -0.0753    2.5089 S   0  0  0  0  0  0  0  0  0  0  0  0
    3.7482   -0.0322   -1.2664 C   0  0  0  0  0  0  0  0  0  0  0  0
    2.3639   -0.0103   -1.2393 C   0  0  0  0  0  0  0  0  0  0  0  0
    1.8218    0.0021    2.1605 H   0  0  0  0  0  0  0  0  0  0  0  0
    6.5473   -0.1805   -0.7464 H   0  0  0  0  0  0  0  0  0  0  0  0
    8.2635   -2.6564    2.5331 H   0  0  0  0  0  0  0  0  0  0  0  0
   10.0559   -3.8154    1.8681 H   0  0  0  0  0  0  0  0  0  0  0  0
   10.7537   -3.5837    0.2698 H   0  0  0  0  0  0  0  0  0  0  0  0
    9.7662   -5.6554   -0.2978 H   0  0  0  0  0  0  0  0  0  0  0  0
    8.6991   -5.6311    1.1429 H   0  0  0  0  0  0  0  0  0  0  0  0
    7.9744   -7.3581   -0.8040 H   0  0  0  0  0  0  0  0  0  0  0  0
    8.2568   -6.5399   -2.3557 H   0  0  0  0  0  0  0  0  0  0  0  0
    6.7085   -7.3462   -2.0357 H   0  0  0  0  0  0  0  0  0  0  0  0
    4.4063   -6.5931    1.9979 H   0  0  0  0  0  0  0  0  0  0  0  0
    2.9097   -6.2449    1.0726 H   0  0  0  0  0  0  0  0  0  0  0  0
    3.0176   -4.5903    2.9603 H   0  0  0  0  0  0  0  0  0  0  0  0
    4.6941   -4.1119    2.4920 H   0  0  0  0  0  0  0  0  0  0  0  0
    3.2418   -2.5340   -0.4148 H   0  0  0  0  0  0  0  0  0  0  0  0
    4.8343   -2.8096    0.3904 H   0  0  0  0  0  0  0  0  0  0  0  0
    3.0841   -4.9398   -1.0704 H   0  0  0  0  0  0  0  0  0  0  0  0
    4.6836   -4.3380   -1.6077 H   0  0  0  0  0  0  0  0  0  0  0  0
    4.2911   -0.0473   -2.2120 H   0  0  0  0  0  0  0  0  0  0  0  0
    1.7907   -0.0041   -2.1669 H   0  0  0  0  0  0  0  0  0  0  0  0
  1  2  1  0  0  0  0
  2  3  2  0  0  0  0
  3 33  1  0  0  0  0
  4  3  1  0  0  0  0
  4 30  1  0  0  0  0
  5  6  1  0  0  0  0
  5  4  2  0  0  0  0
  6  7  2  0  0  0  0
  7  8  1  0  0  0  0
  7 30  1  0  0  0  0
  8 10  2  0  0  0  0
  9  8  2  0  0  0  0
 11  8  1  0  0  0  0
 11 35  1  0  0  0  0
 12 13  1  6  0  0  0
 12 14  1  0  0  0  0
 12 11  1  0  0  0  0
 14 36  1  0  0  0  0
 15 14  1  0  0  0  0
 15 39  1  0  0  0  0
 16 17  1  0  0  0  0
 16 15  1  0  0  0  0
 17 12  1  0  0  0  0
 18 17  2  0  0  0  0
 19 20  1  6  0  0  0
 19 16  1  0  0  0  0
 19 22  1  0  0  0  0
 21 19  1  0  0  0  0
 21 40  1  0  0  0  0
 22 23  2  0  0  0  0
 24 22  1  0  0  0  0
 24 25  1  0  0  0  0
 25 43  1  0  0  0  0
 25 26  1  0  0  0  0
 26 46  1  0  0  0  0
 26 45  1  0  0  0  0
 27 26  1  0  0  0  0
 28 48  1  0  0  0  0
 28 27  1  0  0  0  0
 29 28  1  0  0  0  0
 29 24  1  0  0  0  0
 31 32  2  0  0  0  0
 31  5  1  0  0  0  0
 32  2  1  0  0  0  0
 34  6  1  0  0  0  0
 37 14  1  0  0  0  0
 38 15  1  0  0  0  0
 41 21  1  0  0  0  0
 42 21  1  0  0  0  0
 44 25  1  0  0  0  0
 47 28  1  0  0  0  0
 49 29  1  0  0  0  0
 50 29  1  0  0  0  0
 51 31  1  0  0  0  0
 52 32  1  0  0  0  0
M  END
$$$$
