52
rmsd80.gzmat
Cl         0.00000        0.00000        0.00000
C          1.70890        0.00000        0.00000
C          2.36740        0.00000        1.21540
C          3.76200       -0.02130        1.17310
C          4.45300       -0.03650       -0.05880
C          5.88500       -0.10920        0.11250
C          6.26880       -0.14890        1.41640
S          7.91520       -0.33370        1.93210
O          8.77760        0.40420        1.04110
O          8.01210       -0.20580        3.36480
N          8.20410       -2.02220        1.61270
C          8.89490       -2.43370        0.40170
H          9.36660       -1.56720       -0.13630
C          9.92450       -3.56390        0.64320
C          9.26030       -4.86860        0.14440
N          8.13930       -4.42330       -0.70720
C          7.82960       -3.08550       -0.51640
O          6.88790       -2.53710       -1.04060
C          7.13620       -5.37110       -1.17500
H          6.53230       -4.84980       -1.97240
C          7.76280       -6.63770       -1.75750
C          6.25600       -5.78460        0.02690
O          6.75730       -6.36360        0.97280
N          4.88570       -5.59880       -0.02900
C          4.11880       -5.87800        1.20090
C          3.90080       -4.57740        1.99440
O          3.25490       -3.61890        1.17670
C          4.00820       -3.28950        0.02600
C          4.25620       -4.54230       -0.83440
S          4.89140       -0.07080        2.50440
C          3.74620       -0.02080       -1.26920
C          2.36210       -0.00680       -1.24040
H          1.82430       -0.00050        2.16060
H          6.54580       -0.15180       -0.75370
H          8.30860       -2.64920        2.40230
H         10.21830       -3.64320        1.70240
H         10.85530       -3.36050        0.08650
H          9.96040       -5.48270       -0.45680
H          8.89820       -5.50140        0.98670
H          8.26280       -7.23830       -0.98370
H          8.50450       -6.39450       -2.52850
H          6.99760       -7.27830       -2.21470
H          4.64630       -6.63790        1.82130
H          3.14100       -6.31690        0.89850
H          3.18860       -4.70970        2.82750
H          4.85000       -4.16460        2.37770
H          3.36090       -2.55690       -0.48960
H          4.95520       -2.80010        0.32060
H          3.28820       -4.94250       -1.21880
H          4.87450       -4.27540       -1.71870
H          4.28890       -0.02960       -2.21470
H          1.78710       -0.00240       -2.16690
