
     RDKit          3D

 52 55  0  0  0  0  0  0  0  0999 V2000
    0.3163   -0.5419    2.1429 Cl  0  0  0  0  0  0  0  0  0  0  0  0
    1.9895   -0.5712    1.6457 C   0  0  0  0  0  0  0  0  0  0  0  0
    2.9637   -0.0851    2.5102 C   0  0  0  0  0  0  0  0  0  0  0  0
    4.2938   -0.1423    2.0818 C   0  0  0  0  0  0  0  0  0  0  0  0
    4.6539   -0.6739    0.8130 C   0  0  0  0  0  0  0  0  0  0  0  0
    6.0757   -0.6711    0.6130 C   0  0  0  0  0  0  0  0  0  0  0  0
    6.7398   -0.1608    1.6877 C   0  0  0  0  0  0  0  0  0  0  0  0
    8.4954   -0.0572    1.8795 S   0  0  0  0  0  0  0  0  0  0  0  0
    9.0762   -0.0343    0.5385 O   0  0  0  0  0  0  0  0  0  0  0  0
    8.7286    0.9727    2.8867 O   0  0  0  0  0  0  0  0  0  0  0  0
    9.0086   -1.4810    2.5739 N   0  0  0  0  0  0  0  0  0  0  0  0
    9.3130   -2.6782    1.8023 C   0  0  1  0  0  0  0  0  0  0  0  0
    9.4389   -2.3562    0.7616 H   0  0  0  0  0  0  0  0  0  0  0  0
   10.5280   -3.4345    2.3543 C   0  0  0  0  0  0  0  0  0  0  0  0
    9.9237   -4.4446    3.3419 C   0  0  0  0  0  0  0  0  0  0  0  0
    8.5915   -4.6816    2.7846 N   0  0  0  0  0  0  0  0  0  0  0  0
    8.1734   -3.7047    1.9273 C   0  0  0  0  0  0  0  0  0  0  0  0
    7.0663   -3.6234    1.4178 O   0  0  0  0  0  0  0  0  0  0  0  0
    7.6443   -5.6498    3.3346 C   0  0  1  0  0  0  0  0  0  0  0  0
    6.8880   -5.7897    2.5566 H   0  0  0  0  0  0  0  0  0  0  0  0
    8.2953   -6.9914    3.6539 C   0  0  0  0  0  0  0  0  0  0  0  0
    7.0574   -5.0211    4.6146 C   0  0  0  0  0  0  0  0  0  0  0  0
    7.7964   -4.8979    5.5872 O   0  0  0  0  0  0  0  0  0  0  0  0
    5.7684   -4.5767    4.6149 N   0  0  0  0  0  0  0  0  0  0  0  0
    5.2595   -3.8876    5.8009 C   0  0  0  0  0  0  0  0  0  0  0  0
    4.8144   -2.4789    5.4190 C   0  0  0  0  0  0  0  0  0  0  0  0
    3.8601   -2.5071    4.3781 O   0  0  0  0  0  0  0  0  0  0  0  0
    4.3698   -3.1443    3.2224 C   0  0  0  0  0  0  0  0  0  0  0  0
    4.8122   -4.5765    3.5091 C   0  0  0  0  0  0  0  0  0  0  0  0
    5.6975    0.3595    2.9995 S   0  0  0  0  0  0  0  0  0  0  0  0
    3.6348   -1.1499   -0.0358 C   0  0  0  0  0  0  0  0  0  0  0  0
    2.3121   -1.1000    0.3779 C   0  0  0  0  0  0  0  0  0  0  0  0
    2.6926    0.2938    3.4946 H   0  0  0  0  0  0  0  0  0  0  0  0
    6.5812   -1.0506   -0.2735 H   0  0  0  0  0  0  0  0  0  0  0  0
    8.7749   -1.5649    3.5603 H   0  0  0  0  0  0  0  0  0  0  0  0
   11.2582   -2.7582    2.8170 H   0  0  0  0  0  0  0  0  0  0  0  0
   11.0240   -3.9703    1.5310 H   0  0  0  0  0  0  0  0  0  0  0  0
   10.4995   -5.3794    3.3902 H   0  0  0  0  0  0  0  0  0  0  0  0
    9.8425   -4.0553    4.3706 H   0  0  0  0  0  0  0  0  0  0  0  0
    8.9933   -6.8955    4.4967 H   0  0  0  0  0  0  0  0  0  0  0  0
    8.8276   -7.3812    2.7734 H   0  0  0  0  0  0  0  0  0  0  0  0
    7.5215   -7.7187    3.9415 H   0  0  0  0  0  0  0  0  0  0  0  0
    6.0560   -3.8699    6.5541 H   0  0  0  0  0  0  0  0  0  0  0  0
    4.3971   -4.4503    6.2000 H   0  0  0  0  0  0  0  0  0  0  0  0
    4.3437   -1.9773    6.2779 H   0  0  0  0  0  0  0  0  0  0  0  0
    5.6980   -1.8847    5.1095 H   0  0  0  0  0  0  0  0  0  0  0  0
    3.5728   -3.1293    2.4659 H   0  0  0  0  0  0  0  0  0  0  0  0
    5.2378   -2.5939    2.8218 H   0  0  0  0  0  0  0  0  0  0  0  0
    3.9403   -5.1933    3.7922 H   0  0  0  0  0  0  0  0  0  0  0  0
    5.2591   -4.9822    2.5981 H   0  0  0  0  0  0  0  0  0  0  0  0
    3.8908   -1.5660   -1.0124 H   0  0  0  0  0  0  0  0  0  0  0  0
    1.5103   -1.4691   -0.2623 H   0  0  0  0  0  0  0  0  0  0  0  0
  1  2  1  0
  2  3  2  0
  2 32  1  0
  3  4  1  0
  3 33  1  0
  4  5  2  0
  4 30  1  0
  5  6  1  0
  5 31  1  0
  6  7  2  0
  6 34  1  0
  7  8  1  0
  7 30  1  0
  8  9  2  0
  8 10  2  0
  8 11  1  0
 11 12  1  0
 11 35  1  0
 12 13  1  6
 12 14  1  0
 12 17  1  0
 14 15  1  0
 14 36  1  0
 14 37  1  0
 15 16  1  0
 15 38  1  0
 15 39  1  0
 16 17  1  0
 16 19  1  0
 17 18  2  0
 19 20  1  6
 19 21  1  0
 19 22  1  0
 21 40  1  0
 21 41  1  0
 21 42  1  0
 22 23  2  0
 22 24  1  0
 24 25  1  0
 24 29  1  0
 25 26  1  0
 25 43  1  0
 25 44  1  0
 26 27  1  0
 26 45  1  0
 26 46  1  0
 27 28  1  0
 28 29  1  0
 28 47  1  0
 28 48  1  0
 29 49  1  0
 29 50  1  0
 31 32  2  0
 31 51  1  0
 32 52  1  0
M  END

