
     RDKit          3D

 52 55  0  0  0  0  0  0  0  0999 V2000
   -0.1927   -0.1944    0.6838 Cl  0  0  0  0  0  0  0  0  0  0  0  0
    1.5360   -0.1848    0.4448 C   0  0  0  0  0  0  0  0  0  0  0  0
    2.3749   -0.1681    1.5540 C   0  0  0  0  0  0  0  0  0  0  0  0
    3.7565   -0.1687    1.3234 C   0  0  0  0  0  0  0  0  0  0  0  0
    4.2957   -0.1793    0.0057 C   0  0  0  0  0  0  0  0  0  0  0  0
    5.7311   -0.1930    0.0108 C   0  0  0  0  0  0  0  0  0  0  0  0
    6.2271   -0.2046    1.2811 C   0  0  0  0  0  0  0  0  0  0  0  0
    7.9312   -0.2900    1.7349 S   0  0  0  0  0  0  0  0  0  0  0  0
    8.6911    0.4997    0.7681 O   0  0  0  0  0  0  0  0  0  0  0  0
    7.9899   -0.0575    3.1781 O   0  0  0  0  0  0  0  0  0  0  0  0
    8.3547   -1.9161    1.5300 N   0  0  0  0  0  0  0  0  0  0  0  0
    9.1894   -2.3036    0.3865 C   0  0  1  0  0  0  0  0  0  0  0  0
    9.7536   -1.4314    0.0274 H   0  0  0  0  0  0  0  0  0  0  0  0
   10.0766   -3.5114    0.7102 C   0  0  0  0  0  0  0  0  0  0  0  0
    9.2387   -4.7313    0.2957 C   0  0  0  0  0  0  0  0  0  0  0  0
    8.3789   -4.1902   -0.7496 N   0  0  0  0  0  0  0  0  0  0  0  0
    8.2835   -2.8313   -0.7405 C   0  0  0  0  0  0  0  0  0  0  0  0
    7.5646   -2.1620   -1.4650 O   0  0  0  0  0  0  0  0  0  0  0  0
    7.6027   -5.0313   -1.6550 C   0  0  1  0  0  0  0  0  0  0  0  0
    6.9447   -4.3403   -2.1978 H   0  0  0  0  0  0  0  0  0  0  0  0
    8.4883   -5.7681   -2.6547 C   0  0  0  0  0  0  0  0  0  0  0  0
    6.7846   -6.0268   -0.8069 C   0  0  0  0  0  0  0  0  0  0  0  0
    7.1840   -7.1739   -0.6611 O   0  0  0  0  0  0  0  0  0  0  0  0
    5.6592   -5.5555   -0.1939 N   0  0  0  0  0  0  0  0  0  0  0  0
    4.9259   -6.4289    0.7182 C   0  0  0  0  0  0  0  0  0  0  0  0
    4.8730   -5.7864    2.1017 C   0  0  0  0  0  0  0  0  0  0  0  0
    4.3212   -4.4891    2.0454 O   0  0  0  0  0  0  0  0  0  0  0  0
    5.0534   -3.6366    1.1889 C   0  0  0  0  0  0  0  0  0  0  0  0
    5.1304   -4.1945   -0.2311 C   0  0  0  0  0  0  0  0  0  0  0  0
    5.0119   -0.1786    2.5434 S   0  0  0  0  0  0  0  0  0  0  0  0
    3.4092   -0.1952   -1.0907 C   0  0  0  0  0  0  0  0  0  0  0  0
    2.0402   -0.1992   -0.8731 C   0  0  0  0  0  0  0  0  0  0  0  0
    1.9598   -0.1634    2.5621 H   0  0  0  0  0  0  0  0  0  0  0  0
    6.3637   -0.2478   -0.8741 H   0  0  0  0  0  0  0  0  0  0  0  0
    8.6464   -2.2769    2.4365 H   0  0  0  0  0  0  0  0  0  0  0  0
   10.3961   -3.5428    1.7620 H   0  0  0  0  0  0  0  0  0  0  0  0
   10.9839   -3.4581    0.0911 H   0  0  0  0  0  0  0  0  0  0  0  0
    9.8508   -5.5607   -0.0855 H   0  0  0  0  0  0  0  0  0  0  0  0
    8.6328   -5.1284    1.1300 H   0  0  0  0  0  0  0  0  0  0  0  0
    9.1330   -6.4990   -2.1487 H   0  0  0  0  0  0  0  0  0  0  0  0
    9.1052   -5.0468   -3.2103 H   0  0  0  0  0  0  0  0  0  0  0  0
    7.8661   -6.3259   -3.3696 H   0  0  0  0  0  0  0  0  0  0  0  0
    5.4317   -7.4017    0.7413 H   0  0  0  0  0  0  0  0  0  0  0  0
    3.8976   -6.5663    0.3386 H   0  0  0  0  0  0  0  0  0  0  0  0
    4.2406   -6.3789    2.7798 H   0  0  0  0  0  0  0  0  0  0  0  0
    5.8994   -5.7515    2.5245 H   0  0  0  0  0  0  0  0  0  0  0  0
    4.5386   -2.6692    1.1848 H   0  0  0  0  0  0  0  0  0  0  0  0
    6.0801   -3.4778    1.5750 H   0  0  0  0  0  0  0  0  0  0  0  0
    4.1126   -4.2215   -0.6611 H   0  0  0  0  0  0  0  0  0  0  0  0
    5.7414   -3.5327   -0.8539 H   0  0  0  0  0  0  0  0  0  0  0  0
    3.8061   -0.2068   -2.1081 H   0  0  0  0  0  0  0  0  0  0  0  0
    1.3397   -0.2136   -1.7087 H   0  0  0  0  0  0  0  0  0  0  0  0
  1  2  1  0
  2  3  2  0
  2 32  1  0
  3  4  1  0
  3 33  1  0
  4  5  2  0
  4 30  1  0
  5  6  1  0
  5 31  1  0
  6  7  2  0
  6 34  1  0
  7  8  1  0
  7 30  1  0
  8  9  2  0
  8 10  2  0
  8 11  1  0
 11 12  1  0
 11 35  1  0
 12 13  1  6
 12 14  1  0
 12 17  1  0
 14 15  1  0
 14 36  1  0
 14 37  1  0
 15 16  1  0
 15 38  1  0
 15 39  1  0
 16 17  1  0
 16 19  1  0
 17 18  2  0
 19 20  1  6
 19 21  1  0
 19 22  1  0
 21 40  1  0
 21 41  1  0
 21 42  1  0
 22 23  2  0
 22 24  1  0
 24 25  1  0
 24 29  1  0
 25 26  1  0
 25 43  1  0
 25 44  1  0
 26 27  1  0
 26 45  1  0
 26 46  1  0
 27 28  1  0
 28 29  1  0
 28 47  1  0
 28 48  1  0
 29 49  1  0
 29 50  1  0
 31 32  2  0
 31 51  1  0
 32 52  1  0
M  END

