52
rmsd119.gzmat
Cl         0.00000        0.00000        0.00000
C          1.70770        0.00000        0.00000
C          2.36680        0.00000        1.21480
C          3.76170       -0.01020        1.17470
C          4.45610       -0.01880       -0.05560
C          5.88840       -0.04450        0.12240
C          6.26860       -0.05700        1.42720
S          7.93300       -0.12990        1.94730
O          8.16860       -1.36010        2.65570
O          8.75280        0.27720        0.83170
N          8.03140        1.12010        3.16180
C          8.67080        2.38770        2.79120
H          9.63730        2.24390        2.23720
C          7.71390        3.31050        1.99660
C          7.76850        4.69030        2.69530
N          8.50980        4.47140        3.95390
C          8.94400        3.16860        4.09130
O          9.47000        2.72390        5.08710
C          8.29830        5.33350        5.11090
H          9.05070        5.04800        5.90090
C          8.47650        6.81030        4.75780
C          6.84850        5.12220        5.60780
O          5.92090        5.62620        5.00260
N          6.62110        4.44560        6.79410
C          5.21630        4.15830        7.14400
C          4.83230        2.74610        6.66630
O          5.71870        1.79110        7.22070
C          7.06520        2.01590        6.84680
C          7.52680        3.41060        7.31250
S          4.88940       -0.02910        2.50590
C          3.74810       -0.01270       -1.26620
C          2.36410       -0.00430       -1.23910
H          1.82310        0.00310        2.16000
H          6.55740       -0.05210       -0.73540
H          8.33830        0.79350        4.08700
H          6.68030        2.91790        2.00570
H          8.01310        3.38090        0.93850
H          8.31200        5.44120        2.08460
H          6.74980        5.09370        2.88940
H          7.69470        7.16360        4.06980
H          9.45060        6.99070        4.28630
H          8.41500        7.43770        5.65660
H          4.54050        4.92510        6.70070
H          5.12080        4.23470        8.25110
H          3.84990        2.42770        7.05630
H          4.83870        2.66720        5.56500
H          7.60940        1.20790        7.36850
H          7.17270        1.88760        5.75560
H          7.50480        3.46970        8.42670
H          8.58120        3.58780        7.00340
H          4.28780       -0.02030       -2.21320
H          1.79110       -0.00750       -2.16810
