52

Cl        -0.19270       -0.19440        0.68380
C          1.53600       -0.18480        0.44480
C          2.37490       -0.16810        1.55400
C          3.75650       -0.16870        1.32340
C          4.29570       -0.17930        0.00570
C          5.73110       -0.19300        0.01080
C          6.22710       -0.20460        1.28110
S          7.93120       -0.29000        1.73490
O          8.69110        0.49970        0.76810
O          7.98990       -0.05750        3.17810
N          8.35470       -1.91610        1.53000
C          9.18940       -2.30360        0.38650
H          9.75360       -1.43140        0.02740
C         10.07660       -3.51140        0.71020
C          9.23870       -4.73130        0.29570
N          8.37890       -4.19020       -0.74960
C          8.28350       -2.83130       -0.74050
O          7.56460       -2.16200       -1.46500
C          7.60270       -5.03130       -1.65500
H          6.94470       -4.34030       -2.19780
C          8.48830       -5.76810       -2.65470
C          6.78460       -6.02680       -0.80690
O          7.18400       -7.17390       -0.66110
N          5.65920       -5.55550       -0.19390
C          4.92590       -6.42890        0.71820
C          4.87300       -5.78640        2.10170
O          4.32120       -4.48910        2.04540
C          5.05340       -3.63660        1.18890
C          5.13040       -4.19450       -0.23110
S          5.01190       -0.17860        2.54340
C          3.40920       -0.19520       -1.09070
C          2.04020       -0.19920       -0.87310
H          1.95980       -0.16340        2.56210
H          6.36370       -0.24780       -0.87410
H          8.64640       -2.27690        2.43650
H         10.39610       -3.54280        1.76200
H         10.98390       -3.45810        0.09110
H          9.85080       -5.56070       -0.08550
H          8.63280       -5.12840        1.13000
H          9.13300       -6.49900       -2.14870
H          9.10520       -5.04680       -3.21030
H          7.86610       -6.32590       -3.36960
H          5.43170       -7.40170        0.74130
H          3.89760       -6.56630        0.33860
H          4.24060       -6.37890        2.77980
H          5.89940       -5.75150        2.52450
H          4.53860       -2.66920        1.18480
H          6.08010       -3.47780        1.57500
H          4.11260       -4.22150       -0.66110
H          5.74140       -3.53270       -0.85390
H          3.80610       -0.20680       -2.10810
H          1.33970       -0.21360       -1.70870
