52

Cl        -0.04190       -0.19080       -0.22860
C          1.69680       -0.04520       -0.17080
C          2.36610       -0.36170        1.00590
C          3.76010       -0.24880        1.00610
C          4.48150        0.17250       -0.14470
C          5.89980        0.16840        0.07880
C          6.21510       -0.23950        1.34000
S          7.84510       -0.46260        1.99030
O          8.74150        0.38960        1.21160
O          7.71050       -0.39300        3.44170
N          8.30590       -2.02850        1.66230
C          8.91610       -2.43160        0.40290
H          9.27270       -1.51360       -0.07980
C         10.01780       -3.48120        0.59730
C          9.28520       -4.82450        0.45780
N          8.17210       -4.49290       -0.43240
C          7.89090       -3.15790       -0.48540
O          6.94810       -2.64640       -1.06960
C          7.21850       -5.47860       -0.93840
H          6.70640       -4.98610       -1.77040
C          7.89810       -6.74710       -1.44300
C          6.26100       -5.81060        0.22390
O          6.70870       -6.44190        1.17680
N          4.97590       -5.35640        0.18680
C          4.11080       -5.59080        1.34300
C          3.63470       -4.25320        1.90210
O          2.98860       -3.48350        0.90950
C          3.84190       -3.23090       -0.19030
C          4.34140       -4.52220       -0.83220
S          4.82760       -0.63060        2.33990
C          3.76400        0.49030       -1.31500
C          2.38150        0.38130       -1.32840
H          1.81760       -0.71390        1.87830
H          6.64890        0.43200       -0.66600
H          7.84050       -2.72400        2.24040
H         10.53200       -3.36470        1.56000
H         10.76100       -3.37740       -0.20760
H          9.92080       -5.60460        0.01580
H          8.90330       -5.21570        1.41570
H          8.34260       -7.30920       -0.61040
H          8.67540       -6.50070       -2.18160
H          7.15410       -7.39770       -1.92650
H          4.68080       -6.16020        2.08670
H          3.23800       -6.18700        1.02260
H          2.90930       -4.41110        2.71420
H          4.50110       -3.69570        2.31190
H          3.26940       -2.63440       -0.91430
H          4.72200       -2.64410        0.12270
H          3.49460       -5.07930       -1.27190
H          5.04690       -4.25720       -1.62360
H          4.29950        0.81180       -2.21070
H          1.80940        0.61700       -2.22630
