52

Cl         0.94380        1.59010        3.58490
C          2.38640        1.23360        2.66670
C          3.48750        0.69430        3.32130
C          4.64910        0.49420        2.56860
C          4.71350        0.81170        1.18370
C          6.02990        0.59630        0.64770
C          6.90020        0.14490        1.59590
S          8.66330        0.04840        1.41210
O          9.12490       -1.10020        2.18360
O          8.94070        0.23250       -0.01260
N          9.18540        1.39250        2.23050
C          9.46710        2.67240        1.61540
H         10.44680        2.67070        1.09780
C          8.38430        3.23640        0.68940
C          8.50500        4.75200        0.89250
N          8.95430        4.85550        2.28110
C          9.51940        3.71190        2.74750
O          9.95330        3.50590        3.86920
C          8.68830        6.02450        3.11520
H          9.14890        5.80620        4.08630
C          9.29430        7.29770        2.53770
C          7.14950        6.14210        3.22800
O          6.54310        6.87200        2.45350
N          6.50930        5.34290        4.13190
C          5.04950        5.26980        4.11400
C          4.61410        3.83180        3.83880
O          5.18500        2.93240        4.77000
C          6.59760        2.98820        4.76020
C          7.10880        4.39380        5.06540
S          6.18000       -0.09920        3.17280
C          3.56340        1.32830        0.55300
C          2.40850        1.54150        1.29060
H          3.45670        0.49290        4.39100
H          6.33330        0.80690       -0.37740
H          9.65680        1.20040        3.11320
H          7.39980        2.90440        1.04820
H          8.49940        2.91850       -0.35340
H          9.24430        5.20610        0.20910
H          7.55290        5.28350        0.75730
H          8.82060        7.55860        1.58190
H         10.37680        7.16750        2.39300
H          9.12920        8.13980        3.22560
H          4.68050        5.95650        3.34270
H          4.65950        5.59040        5.09620
H          3.52250        3.73150        3.92410
H          4.90670        3.54660        2.80740
H          6.95720        2.27610        5.51670
H          6.98890        2.66010        3.77800
H          6.81190        4.67390        6.09220
H          8.20150        4.39380        5.00740
H          3.58880        1.57440       -0.51080
H          1.51510        1.95840        0.82480
