52

Cl        -0.17360       -1.73770        0.66910
C          1.38420       -0.96290        0.52380
C          2.38310       -1.26970        1.44150
C          3.62020       -0.62910        1.29370
C          3.85920        0.30470        0.24590
C          5.19240        0.83440        0.28740
C          5.90470        0.31320        1.32830
S          7.59850        0.63610        1.71690
O          7.83760        0.01090        3.01680
O          8.42760        0.31740        0.54940
N          7.67420        2.29740        1.89540
C          8.56590        3.11390        1.09700
H          8.29690        4.15890        1.33350
C         10.08290        2.91130        1.24630
C         10.64210        3.37770       -0.10740
N          9.53440        3.13590       -1.02550
C          8.32920        2.98150       -0.41790
O          7.26020        2.82110       -0.98010
C          9.64280        3.26550       -2.47350
H          8.74110        2.77920       -2.87390
C          9.65620        4.72700       -2.91440
C         10.90070        2.52980       -2.97700
O         11.84730        3.16850       -3.41550
N         10.91080        1.16680       -2.89210
C         12.07130        0.43390       -3.39180
C         12.53610       -0.57490       -2.34710
O         11.48460       -1.42870       -1.95480
C         10.40440       -0.70070       -1.40580
C          9.83610        0.30090       -2.41060
S          5.02450       -0.83840        2.31580
C          2.81770        0.58720       -0.66200
C          1.59020       -0.04160       -0.52490
H          2.19720       -1.98550        2.24260
H          5.61250        1.57350       -0.39810
H          7.52970        2.57340        2.86270
H         10.28260        1.84040        1.38540
H         10.51180        3.46300        2.09400
H         10.91750        4.44790       -0.09660
H         11.53330        2.81110       -0.41560
H         10.55000        5.24340       -2.53870
H          8.75070        5.23180       -2.54670
H          9.67980        4.79440       -4.01110
H         12.85570        1.16100       -3.63420
H         11.78920       -0.10360       -4.31600
H         13.33720       -1.20880       -2.75630
H         12.93860       -0.03000       -1.46710
H          9.63170       -1.41990       -1.10560
H         10.72570       -0.15610       -0.49740
H          9.40780       -0.25200       -3.26750
H          9.03470        0.87280       -1.93550
H          2.98390        1.30090       -1.47180
H          0.77420        0.16390       -1.21840
