rmsd119.gzmat
 OpenBabel08211713433D

 52 55  0  0  1  0  0  0  0  0999 V2000
    0.0000    0.0000    0.0000 Cl  0  0  0  0  0  0  0  0  0  0  0  0
    1.7077    0.0000    0.0000 C   0  0  0  0  0  0  0  0  0  0  0  0
    2.3668    0.0000    1.2148 C   0  0  0  0  0  0  0  0  0  0  0  0
    3.7617   -0.0102    1.1747 C   0  0  0  0  0  0  0  0  0  0  0  0
    4.4561   -0.0188   -0.0556 C   0  0  0  0  0  0  0  0  0  0  0  0
    5.8884   -0.0445    0.1224 C   0  0  0  0  0  0  0  0  0  0  0  0
    6.2686   -0.0570    1.4272 C   0  0  0  0  0  0  0  0  0  0  0  0
    7.9330   -0.1299    1.9473 S   0  0  0  0  0  0  0  0  0  0  0  0
    8.1686   -1.3601    2.6557 O   0  0  0  0  0  0  0  0  0  0  0  0
    8.7528    0.2772    0.8317 O   0  0  0  0  0  0  0  0  0  0  0  0
    8.0314    1.1201    3.1618 N   0  0  0  0  0  0  0  0  0  0  0  0
    8.6708    2.3877    2.7912 C   0  0  1  0  0  0  0  0  0  0  0  0
    9.6373    2.2439    2.2372 H   0  0  0  0  0  0  0  0  0  0  0  0
    7.7139    3.3105    1.9966 C   0  0  0  0  0  0  0  0  0  0  0  0
    7.7685    4.6903    2.6953 C   0  0  0  0  0  0  0  0  0  0  0  0
    8.5098    4.4714    3.9539 N   0  0  0  0  0  0  0  0  0  0  0  0
    8.9440    3.1686    4.0913 C   0  0  0  0  0  0  0  0  0  0  0  0
    9.4700    2.7239    5.0871 O   0  0  0  0  0  0  0  0  0  0  0  0
    8.2983    5.3335    5.1109 C   0  0  1  0  0  0  0  0  0  0  0  0
    9.0507    5.0480    5.9009 H   0  0  0  0  0  0  0  0  0  0  0  0
    8.4765    6.8103    4.7578 C   0  0  0  0  0  0  0  0  0  0  0  0
    6.8485    5.1222    5.6078 C   0  0  0  0  0  0  0  0  0  0  0  0
    5.9209    5.6262    5.0026 O   0  0  0  0  0  0  0  0  0  0  0  0
    6.6211    4.4456    6.7941 N   0  0  0  0  0  0  0  0  0  0  0  0
    5.2163    4.1583    7.1440 C   0  0  0  0  0  0  0  0  0  0  0  0
    4.8323    2.7461    6.6663 C   0  0  0  0  0  0  0  0  0  0  0  0
    5.7187    1.7911    7.2207 O   0  0  0  0  0  0  0  0  0  0  0  0
    7.0652    2.0159    6.8468 C   0  0  0  0  0  0  0  0  0  0  0  0
    7.5268    3.4106    7.3125 C   0  0  0  0  0  0  0  0  0  0  0  0
    4.8894   -0.0291    2.5059 S   0  0  0  0  0  0  0  0  0  0  0  0
    3.7481   -0.0127   -1.2662 C   0  0  0  0  0  0  0  0  0  0  0  0
    2.3641   -0.0043   -1.2391 C   0  0  0  0  0  0  0  0  0  0  0  0
    1.8231    0.0031    2.1600 H   0  0  0  0  0  0  0  0  0  0  0  0
    6.5574   -0.0521   -0.7354 H   0  0  0  0  0  0  0  0  0  0  0  0
    8.3383    0.7935    4.0870 H   0  0  0  0  0  0  0  0  0  0  0  0
    6.6803    2.9179    2.0057 H   0  0  0  0  0  0  0  0  0  0  0  0
    8.0131    3.3809    0.9385 H   0  0  0  0  0  0  0  0  0  0  0  0
    8.3120    5.4412    2.0846 H   0  0  0  0  0  0  0  0  0  0  0  0
    6.7498    5.0937    2.8894 H   0  0  0  0  0  0  0  0  0  0  0  0
    7.6947    7.1636    4.0698 H   0  0  0  0  0  0  0  0  0  0  0  0
    9.4506    6.9907    4.2863 H   0  0  0  0  0  0  0  0  0  0  0  0
    8.4150    7.4377    5.6566 H   0  0  0  0  0  0  0  0  0  0  0  0
    4.5405    4.9251    6.7007 H   0  0  0  0  0  0  0  0  0  0  0  0
    5.1208    4.2347    8.2511 H   0  0  0  0  0  0  0  0  0  0  0  0
    3.8499    2.4277    7.0563 H   0  0  0  0  0  0  0  0  0  0  0  0
    4.8387    2.6672    5.5650 H   0  0  0  0  0  0  0  0  0  0  0  0
    7.6094    1.2079    7.3685 H   0  0  0  0  0  0  0  0  0  0  0  0
    7.1727    1.8876    5.7556 H   0  0  0  0  0  0  0  0  0  0  0  0
    7.5048    3.4697    8.4267 H   0  0  0  0  0  0  0  0  0  0  0  0
    8.5812    3.5878    7.0034 H   0  0  0  0  0  0  0  0  0  0  0  0
    4.2878   -0.0203   -2.2132 H   0  0  0  0  0  0  0  0  0  0  0  0
    1.7911   -0.0075   -2.1681 H   0  0  0  0  0  0  0  0  0  0  0  0
  1  2  1  0  0  0  0
  2  3  2  0  0  0  0
  3 33  1  0  0  0  0
  4  3  1  0  0  0  0
  4 30  1  0  0  0  0
  5  6  1  0  0  0  0
  5  4  2  0  0  0  0
  6  7  2  0  0  0  0
  7  8  1  0  0  0  0
  7 30  1  0  0  0  0
  8  9  2  0  0  0  0
  8 11  1  0  0  0  0
 10  8  2  0  0  0  0
 11 35  1  0  0  0  0
 12 13  1  6  0  0  0
 12 11  1  0  0  0  0
 12 17  1  0  0  0  0
 14 36  1  0  0  0  0
 14 15  1  0  0  0  0
 14 12  1  0  0  0  0
 15 39  1  0  0  0  0
 15 16  1  0  0  0  0
 16 17  1  0  0  0  0
 16 19  1  0  0  0  0
 17 18  2  0  0  0  0
 19 22  1  0  0  0  0
 19 20  1  1  0  0  0
 21 19  1  0  0  0  0
 21 42  1  0  0  0  0
 22 24  1  0  0  0  0
 23 22  2  0  0  0  0
 24 25  1  0  0  0  0
 24 29  1  0  0  0  0
 25 44  1  0  0  0  0
 26 45  1  0  0  0  0
 26 25  1  0  0  0  0
 26 27  1  0  0  0  0
 28 27  1  0  0  0  0
 28 29  1  0  0  0  0
 28 47  1  0  0  0  0
 29 49  1  0  0  0  0
 31 32  2  0  0  0  0
 31  5  1  0  0  0  0
 32  2  1  0  0  0  0
 34  6  1  0  0  0  0
 37 14  1  0  0  0  0
 38 15  1  0  0  0  0
 40 21  1  0  0  0  0
 41 21  1  0  0  0  0
 43 25  1  0  0  0  0
 46 26  1  0  0  0  0
 48 28  1  0  0  0  0
 50 29  1  0  0  0  0
 51 31  1  0  0  0  0
 52 32  1  0  0  0  0
M  END
$$$$
