
     RDKit          3D

 52 55  0  0  0  0  0  0  0  0999 V2000
   -0.0419   -0.1908   -0.2286 Cl  0  0  0  0  0  0  0  0  0  0  0  0
    1.6968   -0.0452   -0.1708 C   0  0  0  0  0  0  0  0  0  0  0  0
    2.3661   -0.3617    1.0059 C   0  0  0  0  0  0  0  0  0  0  0  0
    3.7601   -0.2488    1.0061 C   0  0  0  0  0  0  0  0  0  0  0  0
    4.4815    0.1725   -0.1447 C   0  0  0  0  0  0  0  0  0  0  0  0
    5.8998    0.1684    0.0788 C   0  0  0  0  0  0  0  0  0  0  0  0
    6.2151   -0.2395    1.3400 C   0  0  0  0  0  0  0  0  0  0  0  0
    7.8451   -0.4626    1.9903 S   0  0  0  0  0  0  0  0  0  0  0  0
    8.7415    0.3896    1.2116 O   0  0  0  0  0  0  0  0  0  0  0  0
    7.7105   -0.3930    3.4417 O   0  0  0  0  0  0  0  0  0  0  0  0
    8.3059   -2.0285    1.6623 N   0  0  0  0  0  0  0  0  0  0  0  0
    8.9161   -2.4316    0.4029 C   0  0  1  0  0  0  0  0  0  0  0  0
    9.2727   -1.5136   -0.0798 H   0  0  0  0  0  0  0  0  0  0  0  0
   10.0178   -3.4812    0.5973 C   0  0  0  0  0  0  0  0  0  0  0  0
    9.2852   -4.8245    0.4578 C   0  0  0  0  0  0  0  0  0  0  0  0
    8.1721   -4.4929   -0.4324 N   0  0  0  0  0  0  0  0  0  0  0  0
    7.8909   -3.1579   -0.4854 C   0  0  0  0  0  0  0  0  0  0  0  0
    6.9481   -2.6464   -1.0696 O   0  0  0  0  0  0  0  0  0  0  0  0
    7.2185   -5.4786   -0.9384 C   0  0  1  0  0  0  0  0  0  0  0  0
    6.7064   -4.9861   -1.7704 H   0  0  0  0  0  0  0  0  0  0  0  0
    7.8981   -6.7471   -1.4430 C   0  0  0  0  0  0  0  0  0  0  0  0
    6.2610   -5.8106    0.2239 C   0  0  0  0  0  0  0  0  0  0  0  0
    6.7087   -6.4419    1.1768 O   0  0  0  0  0  0  0  0  0  0  0  0
    4.9759   -5.3564    0.1868 N   0  0  0  0  0  0  0  0  0  0  0  0
    4.1108   -5.5908    1.3430 C   0  0  0  0  0  0  0  0  0  0  0  0
    3.6347   -4.2532    1.9021 C   0  0  0  0  0  0  0  0  0  0  0  0
    2.9886   -3.4835    0.9095 O   0  0  0  0  0  0  0  0  0  0  0  0
    3.8419   -3.2309   -0.1903 C   0  0  0  0  0  0  0  0  0  0  0  0
    4.3414   -4.5222   -0.8322 C   0  0  0  0  0  0  0  0  0  0  0  0
    4.8276   -0.6306    2.3399 S   0  0  0  0  0  0  0  0  0  0  0  0
    3.7640    0.4903   -1.3150 C   0  0  0  0  0  0  0  0  0  0  0  0
    2.3815    0.3813   -1.3284 C   0  0  0  0  0  0  0  0  0  0  0  0
    1.8176   -0.7139    1.8783 H   0  0  0  0  0  0  0  0  0  0  0  0
    6.6489    0.4320   -0.6660 H   0  0  0  0  0  0  0  0  0  0  0  0
    7.8405   -2.7240    2.2404 H   0  0  0  0  0  0  0  0  0  0  0  0
   10.5320   -3.3647    1.5600 H   0  0  0  0  0  0  0  0  0  0  0  0
   10.7610   -3.3774   -0.2076 H   0  0  0  0  0  0  0  0  0  0  0  0
    9.9208   -5.6046    0.0158 H   0  0  0  0  0  0  0  0  0  0  0  0
    8.9033   -5.2157    1.4157 H   0  0  0  0  0  0  0  0  0  0  0  0
    8.3426   -7.3092   -0.6104 H   0  0  0  0  0  0  0  0  0  0  0  0
    8.6754   -6.5007   -2.1816 H   0  0  0  0  0  0  0  0  0  0  0  0
    7.1541   -7.3977   -1.9265 H   0  0  0  0  0  0  0  0  0  0  0  0
    4.6808   -6.1602    2.0867 H   0  0  0  0  0  0  0  0  0  0  0  0
    3.2380   -6.1870    1.0226 H   0  0  0  0  0  0  0  0  0  0  0  0
    2.9093   -4.4111    2.7142 H   0  0  0  0  0  0  0  0  0  0  0  0
    4.5011   -3.6957    2.3119 H   0  0  0  0  0  0  0  0  0  0  0  0
    3.2694   -2.6344   -0.9143 H   0  0  0  0  0  0  0  0  0  0  0  0
    4.7220   -2.6441    0.1227 H   0  0  0  0  0  0  0  0  0  0  0  0
    3.4946   -5.0793   -1.2719 H   0  0  0  0  0  0  0  0  0  0  0  0
    5.0469   -4.2572   -1.6236 H   0  0  0  0  0  0  0  0  0  0  0  0
    4.2995    0.8118   -2.2107 H   0  0  0  0  0  0  0  0  0  0  0  0
    1.8094    0.6170   -2.2263 H   0  0  0  0  0  0  0  0  0  0  0  0
  1  2  1  0
  2  3  2  0
  2 32  1  0
  3  4  1  0
  3 33  1  0
  4  5  2  0
  4 30  1  0
  5  6  1  0
  5 31  1  0
  6  7  2  0
  6 34  1  0
  7  8  1  0
  7 30  1  0
  8  9  2  0
  8 10  2  0
  8 11  1  0
 11 12  1  0
 11 35  1  0
 12 13  1  6
 12 14  1  0
 12 17  1  0
 14 15  1  0
 14 36  1  0
 14 37  1  0
 15 16  1  0
 15 38  1  0
 15 39  1  0
 16 17  1  0
 16 19  1  0
 17 18  2  0
 19 20  1  6
 19 21  1  0
 19 22  1  0
 21 40  1  0
 21 41  1  0
 21 42  1  0
 22 23  2  0
 22 24  1  0
 24 25  1  0
 24 29  1  0
 25 26  1  0
 25 43  1  0
 25 44  1  0
 26 27  1  0
 26 45  1  0
 26 46  1  0
 27 28  1  0
 28 29  1  0
 28 47  1  0
 28 48  1  0
 29 49  1  0
 29 50  1  0
 31 32  2  0
 31 51  1  0
 32 52  1  0
M  END

