52
rmsd138.gzmat
Cl         0.00000        0.00000        0.00000
C          1.70900        0.00000        0.00000
C          2.36650        0.00000        1.21600
C          3.76090       -0.02630        1.17570
C          4.45360       -0.04820       -0.05530
C          5.88520       -0.12910        0.11850
C          6.26650       -0.16610        1.42320
S          7.91040       -0.36260        1.94100
O          8.78380        0.30890        1.00860
O          8.02070       -0.16260        3.36480
N          8.15990       -2.07230        1.71090
C          8.83080       -2.55950        0.51670
H          9.35030       -1.73700       -0.04640
C          9.79750       -3.73470        0.79940
C          9.08670       -5.01470        0.29940
N          7.98570       -4.53270       -0.55790
C          7.73420       -3.18000       -0.38580
O          6.81330       -2.60080       -0.91420
C          6.93910       -5.43990       -1.01120
H          6.35640       -4.89860       -1.81160
C          7.50410       -6.74040       -1.58280
C          6.04500       -5.80260        0.19660
O          6.53220       -6.35550        1.16510
N          4.67500       -5.60730        0.12280
C          3.90230       -5.83080        1.36120
C          3.73050       -4.50350        2.12160
O          3.11300       -3.54560        1.28110
C          3.86820       -3.27360        0.11650
C          4.06820       -4.55750       -0.70910
S          4.88840       -0.07530        2.50890
C          3.74820       -0.03220       -1.26640
C          2.36390       -0.01030       -1.23930
H          1.82180        0.00210        2.16050
H          6.54730       -0.18050       -0.74640
H          8.26350       -2.65640        2.53310
H         10.05590       -3.81540        1.86810
H         10.75370       -3.58370        0.26980
H          9.76620       -5.65540       -0.29780
H          8.69910       -5.63110        1.14290
H          7.97440       -7.35810       -0.80400
H          8.25680       -6.53990       -2.35570
H          6.70850       -7.34620       -2.03570
H          4.40630       -6.59310        1.99790
H          2.90970       -6.24490        1.07260
H          3.01760       -4.59030        2.96030
H          4.69410       -4.11190        2.49200
H          3.24180       -2.53400       -0.41480
H          4.83430       -2.80960        0.39040
H          3.08410       -4.93980       -1.07040
H          4.68360       -4.33800       -1.60770
H          4.29110       -0.04730       -2.21200
H          1.79070       -0.00410       -2.16690
