52

Cl        -0.01090       -0.11480        0.51410
C          1.71400       -0.03660        0.25140
C          2.56480        0.03490        1.34890
C          3.94140        0.10550        1.09760
C          4.46170        0.09290       -0.22580
C          5.89110        0.21250       -0.23790
C          6.40510        0.31500        1.02310
S          8.11570        0.56530        1.40620
O          8.35560       -0.07780        2.69580
O          8.85830        0.26010        0.18650
N          8.33770        2.19240        1.65420
C          8.06880        2.87610        2.91390
H          7.82160        2.10930        3.65740
C          9.22220        3.79220        3.33400
C          8.92780        5.10650        2.59370
N          7.46740        5.09550        2.48300
C          6.90990        3.86320        2.69060
O          5.72550        3.59070        2.60020
C          6.70600        6.14680        1.80550
H          5.66050        5.97480        2.08020
C          7.12520        7.54680        2.23370
C          6.96210        5.92740        0.29870
O          8.04760        6.27060       -0.15990
N          6.03850        5.25440       -0.44890
C          6.38490        4.87470       -1.81770
C          6.18200        3.37230       -1.98580
O          4.85970        2.99550       -1.66970
C          4.52320        3.33820       -0.33680
C          4.69080        4.83240       -0.06870
S          5.20770        0.23970        2.29610
C          3.56460        0.02430       -1.30950
C          2.20060       -0.04010       -1.07340
H          2.16320        0.04610        2.36230
H          6.51050        0.22980       -1.13340
H          8.45150        2.73120        0.79950
H         10.20140        3.36430        3.08420
H          9.17700        3.95480        4.42180
H          9.27030        5.98990        3.15130
H          9.38790        5.15100        1.59230
H          8.14250        7.77210        1.88640
H          7.07600        7.64370        3.32840
H          6.44830        8.29070        1.78790
H          7.42440        5.17010       -2.00330
H          5.72970        5.41430       -2.52480
H          6.36760        3.07070       -3.02760
H          6.90040        2.83120       -1.33480
H          3.47890        3.03370       -0.18060
H          5.15320        2.78440        0.37840
H          3.95850        5.40730       -0.66440
H          4.50770        5.00750        0.99460
H          3.94650        0.04500       -2.33120
H          1.49040       -0.08690       -1.89930
