27
rmsd187.gzmat
N          0.00000        0.00000        0.00000
C          1.45870        0.00000        0.00000
H          1.84130        0.00000        1.06860
C          1.96330       -1.25940       -0.69840
O          1.33130       -2.08120       -1.30260
O          3.30840       -1.35980       -0.55330
C          2.00020        1.24750       -0.73100
C          1.57370        1.29460       -2.16590
C          0.38640        1.93650       -2.52350
C         -0.01710        1.96260       -3.85630
C          0.76260        1.34960       -4.83530
C          1.95040        0.71220       -4.48010
C          2.35850        0.68780       -3.14890
C         -0.64670       -0.41200        1.17370
O         -0.05870       -0.53500        2.23220
N         -2.01290       -0.63290        1.06410
H         -0.44260       -0.09740       -0.90540
H          3.69190       -2.17700       -0.95870
H          3.10950        1.25920       -0.64630
H          1.65520        2.15590       -0.18970
H         -0.22220        2.41940       -1.76130
H         -0.94260        2.46300       -4.13380
H          0.44530        1.36920       -5.87580
H          2.55880        0.22910       -5.24290
H          3.28790        0.19090       -2.87500
H         -2.53550       -0.41410        0.24750
H         -2.53150       -0.80160        1.90450
