27
rmsd94.gzmat
N          0.00000        0.00000        0.00000
C          1.46560        0.00000        0.00000
H          1.82270        0.00000        1.07480
C          1.90460       -1.28280       -0.68840
O          1.27980       -1.98810       -1.43200
O          3.18900       -1.56080       -0.35620
C          2.09100        1.21300       -0.72800
C          1.48860        1.43170       -2.07960
C          0.39470        2.28860       -2.22150
C         -0.19460        2.46720       -3.47030
C          0.30870        1.79480       -4.58260
C          1.40970        0.95130       -4.44540
C          2.00140        0.77110       -3.19730
C         -0.62190        0.97110        0.79420
O         -0.01790        1.62650        1.62230
N         -1.99160        1.13480        0.58160
H         -0.44160       -0.33200       -0.85280
H          3.53620       -2.38750       -0.77610
H          3.19170        1.07880       -0.79180
H          1.94940        2.11350       -0.08450
H          0.00000        2.81770       -1.35420
H         -1.04840        3.13390       -3.57630
H         -0.15470        1.93030       -5.55740
H          1.80690        0.42940       -5.31410
H          2.85980        0.11060       -3.09610
H         -2.53140        0.44080        0.10790
H         -2.49360        1.68650        1.25490
