27

N          0.01750        0.03950        0.08410
C          1.45620       -0.01100        0.03060
H          1.85920       -0.03220        1.05630
C          1.84580       -1.30210       -0.66510
O          1.07570       -2.04360       -1.22410
O          3.17160       -1.51690       -0.62400
C          2.09360        1.21550       -0.68560
C          1.63350        1.35200       -2.11340
C          2.35990        0.76790       -3.16260
C          1.90060        0.83780       -4.47980
C          0.70040        1.49230       -4.76900
C         -0.03260        2.07880       -3.73330
C          0.43070        2.00940       -2.41730
C         -0.62190        0.98000        0.85200
O         -0.02500        1.72910        1.61090
N         -1.99060        1.03970        0.66800
H         -0.46970       -0.48210       -0.63640
H          3.34060       -2.33640       -1.11980
H          3.18720        1.11260       -0.63440
H          1.80560        2.09290       -0.09060
H          3.29800        0.25270       -2.93950
H          2.48280        0.38080       -5.28380
H          0.33960        1.54940       -5.79890
H         -0.96910        2.59810       -3.95190
H         -0.14440        2.47690       -1.61450
H         -2.48570        0.23150        0.30930
H         -2.48110        1.58010        1.37050
