27
rmsd93.gzmat
N          0.00000        0.00000        0.00000
C          1.46530        0.00000        0.00000
H          1.82280        0.00000        1.07460
C          1.90370       -1.28190       -0.69140
O          1.27860       -1.98270       -1.43900
O          3.18720       -1.56230       -0.35750
C          2.09020        1.21190       -0.73020
C          1.51400        1.40090       -2.09780
C          0.39860        2.22300       -2.27600
C         -0.16700        2.36640       -3.54030
C          0.38140        1.69500       -4.63180
C          1.50490        0.88850       -4.45840
C          2.07350        0.74340       -3.19530
C         -0.62380        0.95940        0.80640
O         -0.02090        1.60430        1.64360
N         -1.99350        1.12420        0.59570
H         -0.44210       -0.33010       -0.85280
H          3.53530       -2.38830       -0.77790
H          3.19370        1.08950       -0.76880
H          1.92490        2.11960       -0.10300
H         -0.03190        2.75160       -1.42560
H         -1.03860        3.00390       -3.67500
H         -0.06520        1.80130       -5.61800
H          1.93730        0.36630       -5.31010
H          2.94980        0.11130       -3.06640
H         -2.53250        0.44150        0.10610
H         -2.49670        1.66300        1.27810
