rmsd187.gzmat
 OpenBabel08211713423D

 27 27  0  0  1  0  0  0  0  0999 V2000
    0.0000    0.0000    0.0000 N   0  0  0  0  0  0  0  0  0  0  0  0
    1.4587    0.0000    0.0000 C   0  0  1  0  0  0  0  0  0  0  0  0
    1.8413    0.0000    1.0686 H   0  0  0  0  0  0  0  0  0  0  0  0
    1.9633   -1.2594   -0.6984 C   0  0  0  0  0  0  0  0  0  0  0  0
    1.3313   -2.0812   -1.3026 O   0  0  0  0  0  0  0  0  0  0  0  0
    3.3084   -1.3598   -0.5533 O   0  0  0  0  0  0  0  0  0  0  0  0
    2.0002    1.2475   -0.7310 C   0  0  0  0  0  0  0  0  0  0  0  0
    1.5737    1.2946   -2.1659 C   0  0  0  0  0  0  0  0  0  0  0  0
    0.3864    1.9365   -2.5235 C   0  0  0  0  0  0  0  0  0  0  0  0
   -0.0171    1.9626   -3.8563 C   0  0  0  0  0  0  0  0  0  0  0  0
    0.7626    1.3496   -4.8353 C   0  0  0  0  0  0  0  0  0  0  0  0
    1.9504    0.7122   -4.4801 C   0  0  0  0  0  0  0  0  0  0  0  0
    2.3585    0.6878   -3.1489 C   0  0  0  0  0  0  0  0  0  0  0  0
   -0.6467   -0.4120    1.1737 C   0  0  0  0  0  0  0  0  0  0  0  0
   -0.0587   -0.5350    2.2322 O   0  0  0  0  0  0  0  0  0  0  0  0
   -2.0129   -0.6329    1.0641 N   0  0  0  0  0  0  0  0  0  0  0  0
   -0.4426   -0.0974   -0.9054 H   0  0  0  0  0  0  0  0  0  0  0  0
    3.6919   -2.1770   -0.9587 H   0  0  0  0  0  0  0  0  0  0  0  0
    3.1095    1.2592   -0.6463 H   0  0  0  0  0  0  0  0  0  0  0  0
    1.6552    2.1559   -0.1897 H   0  0  0  0  0  0  0  0  0  0  0  0
   -0.2222    2.4194   -1.7613 H   0  0  0  0  0  0  0  0  0  0  0  0
   -0.9426    2.4630   -4.1338 H   0  0  0  0  0  0  0  0  0  0  0  0
    0.4453    1.3692   -5.8758 H   0  0  0  0  0  0  0  0  0  0  0  0
    2.5588    0.2291   -5.2429 H   0  0  0  0  0  0  0  0  0  0  0  0
    3.2879    0.1909   -2.8750 H   0  0  0  0  0  0  0  0  0  0  0  0
   -2.5355   -0.4141    0.2475 H   0  0  0  0  0  0  0  0  0  0  0  0
   -2.5315   -0.8016    1.9045 H   0  0  0  0  0  0  0  0  0  0  0  0
  1  2  1  0  0  0  0
  1 14  1  0  0  0  0
  2  3  1  1  0  0  0
  4  6  1  0  0  0  0
  4  2  1  0  0  0  0
  5  4  2  0  0  0  0
  7 19  1  0  0  0  0
  7 20  1  0  0  0  0
  7  2  1  0  0  0  0
  8  7  1  0  0  0  0
  9  8  1  0  0  0  0
  9 21  1  0  0  0  0
 10  9  2  0  0  0  0
 11 12  2  0  0  0  0
 11 10  1  0  0  0  0
 12 13  1  0  0  0  0
 13 25  1  0  0  0  0
 13  8  2  0  0  0  0
 14 15  2  0  0  0  0
 16 14  1  0  0  0  0
 16 27  1  0  0  0  0
 17  1  1  0  0  0  0
 18  6  1  0  0  0  0
 22 10  1  0  0  0  0
 23 11  1  0  0  0  0
 24 12  1  0  0  0  0
 26 16  1  0  0  0  0
M  END
$$$$
