rmsd206.gzmat
 OpenBabel08211713423D

 27 27  0  0  1  0  0  0  0  0999 V2000
    0.0000    0.0000    0.0000 N   0  0  0  0  0  0  0  0  0  0  0  0
    1.4625    0.0000    0.0000 C   0  0  1  0  0  0  0  0  0  0  0  0
    1.8249    0.0000    1.0750 H   0  0  0  0  0  0  0  0  0  0  0  0
    1.8992   -1.2900   -0.6784 C   0  0  0  0  0  0  0  0  0  0  0  0
    1.2729   -2.0088   -1.4065 O   0  0  0  0  0  0  0  0  0  0  0  0
    3.1855   -1.5618   -0.3440 O   0  0  0  0  0  0  0  0  0  0  0  0
    2.0875    1.2104   -0.7304 C   0  0  0  0  0  0  0  0  0  0  0  0
    1.5449    1.3964   -2.1124 C   0  0  0  0  0  0  0  0  0  0  0  0
    0.4075    2.1818   -2.3133 C   0  0  0  0  0  0  0  0  0  0  0  0
   -0.1054    2.3532   -3.5967 C   0  0  0  0  0  0  0  0  0  0  0  0
    0.5171    1.7452   -4.6854 C   0  0  0  0  0  0  0  0  0  0  0  0
    1.6547    0.9644   -4.4875 C   0  0  0  0  0  0  0  0  0  0  0  0
    2.1700    0.7912   -3.2050 C   0  0  0  0  0  0  0  0  0  0  0  0
   -0.6341    0.8239    0.9348 C   0  0  0  0  0  0  0  0  0  0  0  0
   -0.0341    1.3711    1.8405 O   0  0  0  0  0  0  0  0  0  0  0  0
   -2.0129    0.9726    0.7664 N   0  0  0  0  0  0  0  0  0  0  0  0
   -0.4483   -0.2419   -0.8772 H   0  0  0  0  0  0  0  0  0  0  0  0
    3.5312   -2.3991   -0.7427 H   0  0  0  0  0  0  0  0  0  0  0  0
    3.1929    1.0952   -0.7444 H   0  0  0  0  0  0  0  0  0  0  0  0
    1.9037    2.1218   -0.1148 H   0  0  0  0  0  0  0  0  0  0  0  0
   -0.0784    2.6656   -1.4669 H   0  0  0  0  0  0  0  0  0  0  0  0
   -0.9929    2.9647   -3.7489 H   0  0  0  0  0  0  0  0  0  0  0  0
    0.1166    1.8800   -5.6879 H   0  0  0  0  0  0  0  0  0  0  0  0
    2.1402    0.4870   -5.3372 H   0  0  0  0  0  0  0  0  0  0  0  0
    3.0590    0.1812   -3.0576 H   0  0  0  0  0  0  0  0  0  0  0  0
   -2.5397    0.3236    0.2198 H   0  0  0  0  0  0  0  0  0  0  0  0
   -2.5160    1.3985    1.5249 H   0  0  0  0  0  0  0  0  0  0  0  0
  1 14  1  0  0  0  0
  2  1  1  0  0  0  0
  2  3  1  1  0  0  0
  4  6  1  0  0  0  0
  4  2  1  0  0  0  0
  5  4  2  0  0  0  0
  7 20  1  0  0  0  0
  7  2  1  0  0  0  0
  8  7  1  0  0  0  0
  9  8  1  0  0  0  0
  9 21  1  0  0  0  0
 10  9  2  0  0  0  0
 11 12  2  0  0  0  0
 11 10  1  0  0  0  0
 12 13  1  0  0  0  0
 13 25  1  0  0  0  0
 13  8  2  0  0  0  0
 14 15  2  0  0  0  0
 16 14  1  0  0  0  0
 16 27  1  0  0  0  0
 17  1  1  0  0  0  0
 18  6  1  0  0  0  0
 19  7  1  0  0  0  0
 22 10  1  0  0  0  0
 23 11  1  0  0  0  0
 24 12  1  0  0  0  0
 26 16  1  0  0  0  0
M  END
$$$$
