27
rmsd244.gzmat
N          0.00000        0.00000        0.00000
C          1.45940        0.00000        0.00000
H          1.84090        0.00000        1.06910
C          1.96520       -1.25900       -0.69790
O          1.33110       -2.08500       -1.29380
O          3.31130       -1.35570       -0.56260
C          1.99680        1.25080       -0.72800
C          1.60710        1.28270       -2.17400
C          0.42050        1.90330       -2.56890
C          0.05630        1.91820       -3.91350
C          0.87550        1.31670       -4.86680
C          2.06400        0.70240       -4.47460
C          2.43100        0.68630       -3.13150
C         -0.64420       -0.43940        1.16650
O         -0.05230       -0.59540        2.21830
N         -2.01360       -0.64380        1.05790
H         -0.44100       -0.09360       -0.90700
H          3.69320       -2.17260       -0.96990
H          3.10350        1.28200       -0.61640
H          1.62300        2.15610       -0.20080
H         -0.21740        2.38130       -1.82780
H         -0.86850        2.40290       -4.22070
H          0.59040        1.32870       -5.91680
H          2.70500        0.23350       -5.21960
H          3.35840        0.20350       -2.82590
H         -2.53950       -0.37820        0.25670
H         -2.52960       -0.82090        1.89850
