rmsd135.gzmat
 OpenBabel08211713423D

 27 27  0  0  1  0  0  0  0  0999 V2000
    0.0000    0.0000    0.0000 N   0  0  0  0  0  0  0  0  0  0  0  0
    1.4647    0.0000    0.0000 C   0  0  1  0  0  0  0  0  0  0  0  0
    1.8246    0.0000    1.0743 H   0  0  0  0  0  0  0  0  0  0  0  0
    1.9026   -1.2832   -0.6895 C   0  0  0  0  0  0  0  0  0  0  0  0
    1.2732   -1.9934   -1.4242 O   0  0  0  0  0  0  0  0  0  0  0  0
    3.1905   -1.5556   -0.3651 O   0  0  0  0  0  0  0  0  0  0  0  0
    2.0845    1.2140   -0.7300 C   0  0  0  0  0  0  0  0  0  0  0  0
    1.5953    1.3380   -2.1383 C   0  0  0  0  0  0  0  0  0  0  0  0
    0.4005    2.0101   -2.4061 C   0  0  0  0  0  0  0  0  0  0  0  0
   -0.0750    2.0938   -3.7121 C   0  0  0  0  0  0  0  0  0  0  0  0
    0.6476    1.5201   -4.7571 C   0  0  0  0  0  0  0  0  0  0  0  0
    1.8497    0.8655   -4.4937 C   0  0  0  0  0  0  0  0  0  0  0  0
    2.3241    0.7741   -3.1874 C   0  0  0  0  0  0  0  0  0  0  0  0
   -0.6258    0.9205    0.8470 C   0  0  0  0  0  0  0  0  0  0  0  0
   -0.0246    1.5307    1.7106 O   0  0  0  0  0  0  0  0  0  0  0  0
   -1.9963    1.0943    0.6394 N   0  0  0  0  0  0  0  0  0  0  0  0
   -0.4436   -0.3061   -0.8607 H   0  0  0  0  0  0  0  0  0  0  0  0
    3.5376   -2.3836   -0.7819 H   0  0  0  0  0  0  0  0  0  0  0  0
    3.1921    1.1369   -0.6916 H   0  0  0  0  0  0  0  0  0  0  0  0
    1.8423    2.1335   -0.1470 H   0  0  0  0  0  0  0  0  0  0  0  0
   -0.1593    2.4728   -1.5942 H   0  0  0  0  0  0  0  0  0  0  0  0
   -1.0115    2.6094   -3.9168 H   0  0  0  0  0  0  0  0  0  0  0  0
    0.2746    1.5840   -5.7770 H   0  0  0  0  0  0  0  0  0  0  0  0
    2.4180    0.4220   -5.3096 H   0  0  0  0  0  0  0  0  0  0  0  0
    3.2618    0.2595   -2.9873 H   0  0  0  0  0  0  0  0  0  0  0  0
   -2.5354    0.4160    0.1425 H   0  0  0  0  0  0  0  0  0  0  0  0
   -2.4977    1.6068    1.3434 H   0  0  0  0  0  0  0  0  0  0  0  0
  1 14  1  0  0  0  0
  2  1  1  0  0  0  0
  2  3  1  1  0  0  0
  4  6  1  0  0  0  0
  4  2  1  0  0  0  0
  5  4  2  0  0  0  0
  7 19  1  0  0  0  0
  7 20  1  0  0  0  0
  7  2  1  0  0  0  0
  8  7  1  0  0  0  0
  9  8  1  0  0  0  0
  9 21  1  0  0  0  0
 10  9  2  0  0  0  0
 11 12  2  0  0  0  0
 11 10  1  0  0  0  0
 12 13  1  0  0  0  0
 13 25  1  0  0  0  0
 13  8  2  0  0  0  0
 14 15  2  0  0  0  0
 16 14  1  0  0  0  0
 16 27  1  0  0  0  0
 17  1  1  0  0  0  0
 18  6  1  0  0  0  0
 22 10  1  0  0  0  0
 23 11  1  0  0  0  0
 24 12  1  0  0  0  0
 26 16  1  0  0  0  0
M  END
$$$$
