27
rmsd135.gzmat
N          0.00000        0.00000        0.00000
C          1.46470        0.00000        0.00000
H          1.82460        0.00000        1.07430
C          1.90260       -1.28320       -0.68950
O          1.27320       -1.99340       -1.42420
O          3.19050       -1.55560       -0.36510
C          2.08450        1.21400       -0.73000
C          1.59530        1.33800       -2.13830
C          0.40050        2.01010       -2.40610
C         -0.07500        2.09380       -3.71210
C          0.64760        1.52010       -4.75710
C          1.84970        0.86550       -4.49370
C          2.32410        0.77410       -3.18740
C         -0.62580        0.92050        0.84700
O         -0.02460        1.53070        1.71060
N         -1.99630        1.09430        0.63940
H         -0.44360       -0.30610       -0.86070
H          3.53760       -2.38360       -0.78190
H          3.19210        1.13690       -0.69160
H          1.84230        2.13350       -0.14700
H         -0.15930        2.47280       -1.59420
H         -1.01150        2.60940       -3.91680
H          0.27460        1.58400       -5.77700
H          2.41800        0.42200       -5.30960
H          3.26180        0.25950       -2.98730
H         -2.53540        0.41600        0.14250
H         -2.49770        1.60680        1.34340
