27
rmsd81.gzmat
N          0.00000        0.00000        0.00000
C          1.46500        0.00000        0.00000
H          1.82290        0.00000        1.07480
C          1.90630       -1.28220       -0.68840
O          1.25770       -2.03190       -1.36520
O          3.22200       -1.50100       -0.44420
C          2.08590        1.21550       -0.72460
C          1.67910        1.28860       -2.16200
C          0.51620        1.96840       -2.52940
C          0.13070        2.01750       -3.86700
C          0.90660        1.39330       -4.84210
C          2.07200        0.72050       -4.47790
C          2.45990        0.66920       -3.14140
C         -0.62750        0.94530        0.81600
O         -0.02280        1.60210        1.64250
N         -2.00380        1.08810        0.62410
H         -0.44820       -0.35370       -0.83860
H          3.56980       -2.32730       -0.86450
H          3.19210        1.17440       -0.62260
H          1.78400        2.13970       -0.17750
H         -0.08880        2.46520       -1.77210
H         -0.77620        2.54800       -4.15080
H          0.60570        1.43330       -5.88670
H          2.67920        0.23350       -5.23890
H          3.37120        0.14400       -2.86080
H         -2.54220        0.37220        0.18260
H         -2.49880        1.63970        1.30330
