rmsd225.gzmat
 OpenBabel08211713423D

 27 27  0  0  1  0  0  0  0  0999 V2000
    0.0000    0.0000    0.0000 N   0  0  0  0  0  0  0  0  0  0  0  0
    1.4591    0.0000    0.0000 C   0  0  1  0  0  0  0  0  0  0  0  0
    1.8412    0.0000    1.0689 H   0  0  0  0  0  0  0  0  0  0  0  0
    1.9619   -1.2619   -0.6949 C   0  0  0  0  0  0  0  0  0  0  0  0
    1.3235   -2.0965   -1.2739 O   0  0  0  0  0  0  0  0  0  0  0  0
    3.3103   -1.3513   -0.5779 O   0  0  0  0  0  0  0  0  0  0  0  0
    1.9988    1.2499   -0.7281 C   0  0  0  0  0  0  0  0  0  0  0  0
    1.5762    1.3031   -2.1639 C   0  0  0  0  0  0  0  0  0  0  0  0
    0.3970    1.9576   -2.5249 C   0  0  0  0  0  0  0  0  0  0  0  0
    0.0009    1.9937   -3.8599 C   0  0  0  0  0  0  0  0  0  0  0  0
    0.7815    1.3811   -4.8382 C   0  0  0  0  0  0  0  0  0  0  0  0
    1.9617    0.7316   -4.4795 C   0  0  0  0  0  0  0  0  0  0  0  0
    2.3602    0.6932   -3.1459 C   0  0  0  0  0  0  0  0  0  0  0  0
   -0.6470   -0.4126    1.1735 C   0  0  0  0  0  0  0  0  0  0  0  0
   -0.0591   -0.5378    2.2317 O   0  0  0  0  0  0  0  0  0  0  0  0
   -2.0139   -0.6314    1.0635 N   0  0  0  0  0  0  0  0  0  0  0  0
   -0.4425   -0.0998   -0.9053 H   0  0  0  0  0  0  0  0  0  0  0  0
    3.6902   -2.1694   -0.9850 H   0  0  0  0  0  0  0  0  0  0  0  0
    3.1082    1.2647   -0.6421 H   0  0  0  0  0  0  0  0  0  0  0  0
    1.6509    2.1554   -0.1835 H   0  0  0  0  0  0  0  0  0  0  0  0
   -0.2108    2.4445   -1.7643 H   0  0  0  0  0  0  0  0  0  0  0  0
   -0.9187    2.5038   -4.1396 H   0  0  0  0  0  0  0  0  0  0  0  0
    0.4714    1.4111   -5.8807 H   0  0  0  0  0  0  0  0  0  0  0  0
    2.5714    0.2500   -5.2423 H   0  0  0  0  0  0  0  0  0  0  0  0
    3.2823    0.1842   -2.8676 H   0  0  0  0  0  0  0  0  0  0  0  0
   -2.5379   -0.3915    0.2532 H   0  0  0  0  0  0  0  0  0  0  0  0
   -2.5320   -0.7971    1.9052 H   0  0  0  0  0  0  0  0  0  0  0  0
  1  2  1  0  0  0  0
  1 14  1  0  0  0  0
  2  3  1  1  0  0  0
  4  6  1  0  0  0  0
  4  2  1  0  0  0  0
  5  4  2  0  0  0  0
  7 19  1  0  0  0  0
  7 20  1  0  0  0  0
  7  2  1  0  0  0  0
  8  7  1  0  0  0  0
  9  8  1  0  0  0  0
  9 21  1  0  0  0  0
 10  9  2  0  0  0  0
 11 12  2  0  0  0  0
 11 10  1  0  0  0  0
 12 13  1  0  0  0  0
 13 25  1  0  0  0  0
 13  8  2  0  0  0  0
 14 15  2  0  0  0  0
 16 14  1  0  0  0  0
 16 27  1  0  0  0  0
 17  1  1  0  0  0  0
 18  6  1  0  0  0  0
 22 10  1  0  0  0  0
 23 11  1  0  0  0  0
 24 12  1  0  0  0  0
 26 16  1  0  0  0  0
M  END
$$$$
