58
rmsd228.gzmat
Cl         0.00000        0.00000        0.00000
C          1.71030        0.00000        0.00000
C          2.37900        0.00000        1.21680
C          3.76970        0.03820        1.22070
C          4.46260        0.08770        0.00260
N          5.86440        0.21550       -0.07650
C          6.71130        0.12790        1.01520
O          6.45860       -0.23110        2.14020
O          7.94790        0.53710        0.59660
C          8.98470        0.60490        1.59010
H          9.00150       -0.36630        2.13910
C          8.69070        1.75800        2.54970
C          9.93190        2.05470        3.39230
C         11.08600        2.45870        2.47150
C         11.45870        1.30740        1.52920
H         11.92610        0.49090        2.11970
C         12.41470        1.80440        0.42420
C         11.51380        2.34360       -0.70650
H         11.38510        3.44740       -0.58330
C         10.13540        1.66490       -0.51460
H          9.79110        1.09850       -1.40540
O          9.24220        2.76330       -0.26270
C          8.00240        2.64800       -0.81020
O          7.69560        1.89730       -1.71110
N          7.16070        3.57480       -0.20510
C          5.76280        3.53380       -0.43250
C          5.24730        3.23800       -1.70230
C          3.87030        3.14430       -1.87440
C          3.04280        3.34840       -0.77690
Cl         1.35960        3.13160       -0.97100
C          3.53250        3.69020        0.47740
C          4.90840        3.78900        0.65300
C         10.24930        0.76220        0.73450
H         10.51660       -0.25930        0.35420
C         12.08830        2.05590       -2.08810
C          3.76400        0.05120       -1.22040
C          2.37560        0.00910       -1.21990
H          1.83210       -0.02530        2.16060
H          4.30830        0.03400        2.17190
H          6.26120        0.57300       -0.95840
H          8.39040        2.65930        1.98690
H          7.82910        1.49540        3.19780
H          9.71740        2.86360        4.11510
H         10.20850        1.17360        4.00090
H         10.79610        3.34970        1.87900
H         11.96740        2.75960        3.06560
H         13.10490        2.57730        0.79340
H         13.05040        0.97820        0.06360
H          7.50470        4.11910        0.57880
H          5.91950        3.07330       -2.54780
H          3.45650        2.90390       -2.85470
H          2.85750        3.86260        1.31700
H          5.31410        4.03720        1.63110
H         12.20000        0.98070       -2.27180
H         13.07700        2.51410       -2.20970
H         11.44330        2.45760       -2.88080
H          4.30810        0.06060       -2.16330
H          1.82530       -0.00800       -2.16140
