58
rmsd99.gzmat
Cl         0.00000        0.00000        0.00000
C          1.71050        0.00000        0.00000
C          2.37920        0.00000        1.21680
C          3.77000        0.03420        1.22160
C          4.46350        0.07990        0.00400
N          5.86610        0.19440       -0.07700
C          6.71200        0.16550        1.01920
O          6.46210       -0.13150        2.16250
O          7.94700        0.55210        0.57600
C          9.00870        0.61440        1.54240
H          9.01470       -0.34460        2.11210
C          8.77130        1.79450        2.48450
C         10.04460        2.08130        3.28190
C         11.17870        2.43510        2.31650
C         11.49730        1.25170        1.39420
H         11.96150        0.43870        1.99210
C         12.43280        1.69650        0.24980
C         11.51160        2.23780       -0.86290
H         11.40930        3.34590       -0.75240
C         10.12530        1.59220       -0.62060
H          9.74770        1.01110       -1.48800
O          9.26170        2.71470       -0.37530
C          8.00240        2.61020       -0.88010
O          7.65620        1.85210       -1.76050
N          7.19750        3.55990       -0.26070
C          5.78990        3.52780       -0.42310
C          5.21570        3.23800       -1.66860
C          3.83140        3.15670       -1.77810
C          3.05670        3.36380       -0.64310
Cl         1.36520        3.15950       -0.76070
C          3.60520        3.69840        0.58880
C          4.98840        3.78690        0.70090
C         10.25250        0.71820        0.64810
H         10.48300       -0.31880        0.28660
C         12.03840        1.91870       -2.25640
C          3.76500        0.04560       -1.21940
C          2.37670        0.00800       -1.21970
H          1.83120       -0.02150        2.16000
H          4.30810        0.02990        2.17310
H          6.26460        0.51520       -0.97280
H          8.47380        2.69020        1.91140
H          7.92420        1.56630        3.16410
H          9.87090        2.91280        3.99020
H         10.32000        1.20950        3.90410
H         10.88970        3.31700        1.71010
H         12.08400        2.73150        2.87560
H         13.15700        2.45540        0.58030
H         13.03200        0.84370       -0.11200
H          7.57900        4.10800        0.50330
H          5.84850        3.06810       -2.54280
H          3.37080        2.92350       -2.73890
H          2.97060        3.87260        1.45920
H          5.43980        4.02910        1.66050
H         12.12140        0.83890       -2.42740
H         13.03230        2.35460       -2.41400
H         11.37780        2.32340       -3.03480
H          4.30930        0.05550       -2.16230
H          1.82670       -0.00740       -2.16140
