rmsd228.gzmat
 OpenBabel08211713403D

 58 61  0  0  1  0  0  0  0  0999 V2000
    0.0000    0.0000    0.0000 Cl  0  0  0  0  0  0  0  0  0  0  0  0
    1.7103    0.0000    0.0000 C   0  0  0  0  0  0  0  0  0  0  0  0
    2.3790    0.0000    1.2168 C   0  0  0  0  0  0  0  0  0  0  0  0
    3.7697    0.0382    1.2207 C   0  0  0  0  0  0  0  0  0  0  0  0
    4.4626    0.0877    0.0026 C   0  0  0  0  0  0  0  0  0  0  0  0
    5.8644    0.2155   -0.0765 N   0  0  0  0  0  0  0  0  0  0  0  0
    6.7113    0.1279    1.0152 C   0  0  0  0  0  0  0  0  0  0  0  0
    6.4586   -0.2311    2.1402 O   0  0  0  0  0  0  0  0  0  0  0  0
    7.9479    0.5371    0.5966 O   0  0  0  0  0  0  0  0  0  0  0  0
    8.9847    0.6049    1.5901 C   0  0  2  0  0  0  0  0  0  0  0  0
    9.0015   -0.3663    2.1391 H   0  0  0  0  0  0  0  0  0  0  0  0
    8.6907    1.7580    2.5497 C   0  0  0  0  0  0  0  0  0  0  0  0
    9.9319    2.0547    3.3923 C   0  0  0  0  0  0  0  0  0  0  0  0
   11.0860    2.4587    2.4715 C   0  0  0  0  0  0  0  0  0  0  0  0
   11.4587    1.3074    1.5292 C   0  0  2  0  0  0  0  0  0  0  0  0
   11.9261    0.4909    2.1197 H   0  0  0  0  0  0  0  0  0  0  0  0
   12.4147    1.8044    0.4242 C   0  0  0  0  0  0  0  0  0  0  0  0
   11.5138    2.3436   -0.7065 C   0  0  2  0  0  0  0  0  0  0  0  0
   11.3851    3.4474   -0.5833 H   0  0  0  0  0  0  0  0  0  0  0  0
   10.1354    1.6649   -0.5146 C   0  0  2  0  0  0  0  0  0  0  0  0
    9.7911    1.0985   -1.4054 H   0  0  0  0  0  0  0  0  0  0  0  0
    9.2422    2.7633   -0.2627 O   0  0  0  0  0  0  0  0  0  0  0  0
    8.0024    2.6480   -0.8102 C   0  0  0  0  0  0  0  0  0  0  0  0
    7.6956    1.8973   -1.7111 O   0  0  0  0  0  0  0  0  0  0  0  0
    7.1607    3.5748   -0.2051 N   0  0  0  0  0  0  0  0  0  0  0  0
    5.7628    3.5338   -0.4325 C   0  0  0  0  0  0  0  0  0  0  0  0
    5.2473    3.2380   -1.7023 C   0  0  0  0  0  0  0  0  0  0  0  0
    3.8703    3.1443   -1.8744 C   0  0  0  0  0  0  0  0  0  0  0  0
    3.0428    3.3484   -0.7769 C   0  0  0  0  0  0  0  0  0  0  0  0
    1.3596    3.1316   -0.9710 Cl  0  0  0  0  0  0  0  0  0  0  0  0
    3.5325    3.6902    0.4774 C   0  0  0  0  0  0  0  0  0  0  0  0
    4.9084    3.7890    0.6530 C   0  0  0  0  0  0  0  0  0  0  0  0
   10.2493    0.7622    0.7345 C   0  0  2  0  0  0  0  0  0  0  0  0
   10.5166   -0.2593    0.3542 H   0  0  0  0  0  0  0  0  0  0  0  0
   12.0883    2.0559   -2.0881 C   0  0  0  0  0  0  0  0  0  0  0  0
    3.7640    0.0512   -1.2204 C   0  0  0  0  0  0  0  0  0  0  0  0
    2.3756    0.0091   -1.2199 C   0  0  0  0  0  0  0  0  0  0  0  0
    1.8321   -0.0253    2.1606 H   0  0  0  0  0  0  0  0  0  0  0  0
    4.3083    0.0340    2.1719 H   0  0  0  0  0  0  0  0  0  0  0  0
    6.2612    0.5730   -0.9584 H   0  0  0  0  0  0  0  0  0  0  0  0
    8.3904    2.6593    1.9869 H   0  0  0  0  0  0  0  0  0  0  0  0
    7.8291    1.4954    3.1978 H   0  0  0  0  0  0  0  0  0  0  0  0
    9.7174    2.8636    4.1151 H   0  0  0  0  0  0  0  0  0  0  0  0
   10.2085    1.1736    4.0009 H   0  0  0  0  0  0  0  0  0  0  0  0
   10.7961    3.3497    1.8790 H   0  0  0  0  0  0  0  0  0  0  0  0
   11.9674    2.7596    3.0656 H   0  0  0  0  0  0  0  0  0  0  0  0
   13.1049    2.5773    0.7934 H   0  0  0  0  0  0  0  0  0  0  0  0
   13.0504    0.9782    0.0636 H   0  0  0  0  0  0  0  0  0  0  0  0
    7.5047    4.1191    0.5788 H   0  0  0  0  0  0  0  0  0  0  0  0
    5.9195    3.0733   -2.5478 H   0  0  0  0  0  0  0  0  0  0  0  0
    3.4565    2.9039   -2.8547 H   0  0  0  0  0  0  0  0  0  0  0  0
    2.8575    3.8626    1.3170 H   0  0  0  0  0  0  0  0  0  0  0  0
    5.3141    4.0372    1.6311 H   0  0  0  0  0  0  0  0  0  0  0  0
   12.2000    0.9807   -2.2718 H   0  0  0  0  0  0  0  0  0  0  0  0
   13.0770    2.5141   -2.2097 H   0  0  0  0  0  0  0  0  0  0  0  0
   11.4433    2.4576   -2.8808 H   0  0  0  0  0  0  0  0  0  0  0  0
    4.3081    0.0606   -2.1633 H   0  0  0  0  0  0  0  0  0  0  0  0
    1.8253   -0.0080   -2.1614 H   0  0  0  0  0  0  0  0  0  0  0  0
  2  1  1  0  0  0  0
  2  3  2  0  0  0  0
  3  4  1  0  0  0  0
  3 38  1  0  0  0  0
  4 39  1  0  0  0  0
  5  4  2  0  0  0  0
  6  5  1  0  0  0  0
  6  7  1  0  0  0  0
  7  8  2  0  0  0  0
  9  7  1  0  0  0  0
  9 10  1  0  0  0  0
 10 33  1  0  0  0  0
 10 11  1  1  0  0  0
 10 12  1  0  0  0  0
 12 42  1  0  0  0  0
 12 13  1  0  0  0  0
 13 44  1  0  0  0  0
 13 43  1  0  0  0  0
 14 46  1  0  0  0  0
 14 13  1  0  0  0  0
 15 33  1  0  0  0  0
 15 16  1  1  0  0  0
 15 14  1  0  0  0  0
 17 47  1  0  0  0  0
 17 15  1  0  0  0  0
 18 19  1  1  0  0  0
 18 20  1  0  0  0  0
 18 17  1  0  0  0  0
 20 22  1  0  0  0  0
 20 33  1  0  0  0  0
 20 21  1  6  0  0  0
 23 22  1  0  0  0  0
 23 25  1  0  0  0  0
 24 23  2  0  0  0  0
 25 49  1  0  0  0  0
 26 25  1  0  0  0  0
 26 32  2  0  0  0  0
 27 26  1  0  0  0  0
 28 27  2  0  0  0  0
 28 29  1  0  0  0  0
 29 31  2  0  0  0  0
 30 29  1  0  0  0  0
 31 32  1  0  0  0  0
 31 52  1  0  0  0  0
 32 53  1  0  0  0  0
 33 34  1  6  0  0  0
 35 18  1  0  0  0  0
 36 37  2  0  0  0  0
 36  5  1  0  0  0  0
 37  2  1  0  0  0  0
 40  6  1  0  0  0  0
 41 12  1  0  0  0  0
 45 14  1  0  0  0  0
 48 17  1  0  0  0  0
 50 27  1  0  0  0  0
 51 28  1  0  0  0  0
 54 35  1  0  0  0  0
 55 35  1  0  0  0  0
 56 35  1  0  0  0  0
 57 36  1  0  0  0  0
 58 37  1  0  0  0  0
M  END
$$$$
