rmsd94.gzmat
 OpenBabel08211713403D

 58 61  0  0  1  0  0  0  0  0999 V2000
    0.0000    0.0000    0.0000 Cl  0  0  0  0  0  0  0  0  0  0  0  0
    1.7102    0.0000    0.0000 C   0  0  0  0  0  0  0  0  0  0  0  0
    2.3777    0.0000    1.2173 C   0  0  0  0  0  0  0  0  0  0  0  0
    3.7684    0.0357    1.2229 C   0  0  0  0  0  0  0  0  0  0  0  0
    4.4634    0.0827    0.0060 C   0  0  0  0  0  0  0  0  0  0  0  0
    5.8656    0.2050   -0.0726 N   0  0  0  0  0  0  0  0  0  0  0  0
    6.7053    0.1855    1.0286 C   0  0  0  0  0  0  0  0  0  0  0  0
    6.4484   -0.1164    2.1692 O   0  0  0  0  0  0  0  0  0  0  0  0
    7.9394    0.5892    0.5983 O   0  0  0  0  0  0  0  0  0  0  0  0
    8.9742    0.7043    1.5899 C   0  0  2  0  0  0  0  0  0  0  0  0
    9.0113   -0.2541    2.1598 H   0  0  0  0  0  0  0  0  0  0  0  0
    8.6575    1.8712    2.5252 C   0  0  0  0  0  0  0  0  0  0  0  0
    9.8950    2.2191    3.3534 C   0  0  0  0  0  0  0  0  0  0  0  0
   11.0359    2.6261    2.4178 C   0  0  0  0  0  0  0  0  0  0  0  0
   11.4330    1.4581    1.5062 C   0  0  2  0  0  0  0  0  0  0  0  0
   11.9183    0.6677    2.1172 H   0  0  0  0  0  0  0  0  0  0  0  0
   12.3772    1.9454    0.3868 C   0  0  0  0  0  0  0  0  0  0  0  0
   11.4630    2.4404   -0.7530 C   0  0  2  0  0  0  0  0  0  0  0  0
   11.3110    3.5438   -0.6531 H   0  0  0  0  0  0  0  0  0  0  0  0
   10.0990    1.7383   -0.5423 C   0  0  2  0  0  0  0  0  0  0  0  0
    9.7628    1.1452   -1.4185 H   0  0  0  0  0  0  0  0  0  0  0  0
    9.1866    2.8247   -0.3123 O   0  0  0  0  0  0  0  0  0  0  0  0
    7.9449    2.6763   -0.8479 C   0  0  0  0  0  0  0  0  0  0  0  0
    7.6447    1.9044   -1.7327 O   0  0  0  0  0  0  0  0  0  0  0  0
    7.0953    3.6013   -0.2524 N   0  0  0  0  0  0  0  0  0  0  0  0
    5.6961    3.5422   -0.4692 C   0  0  0  0  0  0  0  0  0  0  0  0
    5.1765    3.2473   -1.7373 C   0  0  0  0  0  0  0  0  0  0  0  0
    3.7991    3.1477   -1.9032 C   0  0  0  0  0  0  0  0  0  0  0  0
    2.9764    3.3404   -0.7999 C   0  0  0  0  0  0  0  0  0  0  0  0
    1.2928    3.1208   -0.9860 Cl  0  0  0  0  0  0  0  0  0  0  0  0
    3.4700    3.6761    0.4547 C   0  0  0  0  0  0  0  0  0  0  0  0
    4.8461    3.7831    0.6232 C   0  0  0  0  0  0  0  0  0  0  0  0
   10.2338    0.8679    0.7279 C   0  0  2  0  0  0  0  0  0  0  0  0
   10.5209   -0.1565    0.3710 H   0  0  0  0  0  0  0  0  0  0  0  0
   12.0413    2.1358   -2.1288 C   0  0  0  0  0  0  0  0  0  0  0  0
    3.7659    0.0428   -1.2176 C   0  0  0  0  0  0  0  0  0  0  0  0
    2.3777    0.0060   -1.2189 C   0  0  0  0  0  0  0  0  0  0  0  0
    1.8301   -0.0230    2.1605 H   0  0  0  0  0  0  0  0  0  0  0  0
    4.3041    0.0314    2.1756 H   0  0  0  0  0  0  0  0  0  0  0  0
    6.2649    0.5279   -0.9665 H   0  0  0  0  0  0  0  0  0  0  0  0
    8.3293    2.7509    1.9447 H   0  0  0  0  0  0  0  0  0  0  0  0
    7.8076    1.6012    3.1860 H   0  0  0  0  0  0  0  0  0  0  0  0
    9.6633    3.0411    4.0560 H   0  0  0  0  0  0  0  0  0  0  0  0
   10.1950    1.3604    3.9826 H   0  0  0  0  0  0  0  0  0  0  0  0
   10.7221    3.4931    1.8024 H   0  0  0  0  0  0  0  0  0  0  0  0
   11.9113    2.9650    3.0002 H   0  0  0  0  0  0  0  0  0  0  0  0
   13.0547    2.7391    0.7344 H   0  0  0  0  0  0  0  0  0  0  0  0
   13.0263    1.1218    0.0447 H   0  0  0  0  0  0  0  0  0  0  0  0
    7.4381    4.1644    0.5190 H   0  0  0  0  0  0  0  0  0  0  0  0
    5.8470    3.0889   -2.5852 H   0  0  0  0  0  0  0  0  0  0  0  0
    3.3810    2.9127   -2.8828 H   0  0  0  0  0  0  0  0  0  0  0  0
    2.7981    3.8374    1.2992 H   0  0  0  0  0  0  0  0  0  0  0  0
    5.2555    4.0271    1.6011 H   0  0  0  0  0  0  0  0  0  0  0  0
   12.1595    1.0591   -2.2957 H   0  0  0  0  0  0  0  0  0  0  0  0
   13.0276    2.5979   -2.2557 H   0  0  0  0  0  0  0  0  0  0  0  0
   11.3949    2.5233   -2.9272 H   0  0  0  0  0  0  0  0  0  0  0  0
    4.3110    0.0471   -2.1598 H   0  0  0  0  0  0  0  0  0  0  0  0
    1.8285   -0.0105   -2.1608 H   0  0  0  0  0  0  0  0  0  0  0  0
  2  1  1  0  0  0  0
  2  3  2  0  0  0  0
  3  4  1  0  0  0  0
  3 38  1  0  0  0  0
  4 39  1  0  0  0  0
  5  4  2  0  0  0  0
  6  5  1  0  0  0  0
  6  7  1  0  0  0  0
  7  8  2  0  0  0  0
  9  7  1  0  0  0  0
  9 10  1  0  0  0  0
 10 33  1  0  0  0  0
 10 11  1  1  0  0  0
 10 12  1  0  0  0  0
 12 42  1  0  0  0  0
 12 13  1  0  0  0  0
 13 44  1  0  0  0  0
 13 43  1  0  0  0  0
 14 46  1  0  0  0  0
 14 13  1  0  0  0  0
 15 33  1  0  0  0  0
 15 16  1  1  0  0  0
 15 14  1  0  0  0  0
 17 47  1  0  0  0  0
 17 15  1  0  0  0  0
 18 19  1  1  0  0  0
 18 20  1  0  0  0  0
 18 17  1  0  0  0  0
 20 22  1  0  0  0  0
 20 33  1  0  0  0  0
 20 21  1  6  0  0  0
 23 22  1  0  0  0  0
 23 25  1  0  0  0  0
 24 23  2  0  0  0  0
 25 49  1  0  0  0  0
 26 25  1  0  0  0  0
 26 32  2  0  0  0  0
 27 26  1  0  0  0  0
 28 27  2  0  0  0  0
 28 29  1  0  0  0  0
 29 31  2  0  0  0  0
 30 29  1  0  0  0  0
 31 32  1  0  0  0  0
 31 52  1  0  0  0  0
 32 53  1  0  0  0  0
 33 34  1  6  0  0  0
 35 18  1  0  0  0  0
 36  5  1  0  0  0  0
 37 36  2  0  0  0  0
 37  2  1  0  0  0  0
 40  6  1  0  0  0  0
 41 12  1  0  0  0  0
 45 14  1  0  0  0  0
 48 17  1  0  0  0  0
 50 27  1  0  0  0  0
 51 28  1  0  0  0  0
 54 35  1  0  0  0  0
 55 35  1  0  0  0  0
 56 35  1  0  0  0  0
 57 36  1  0  0  0  0
 58 37  1  0  0  0  0
M  END
$$$$
