34

C          0.06620        0.50270        0.15820
C          1.51380        0.58270        0.14930
O          2.34110        0.71110        1.02930
N          1.81530        0.49500       -1.25250
C          3.03300        0.82250       -1.87810
C          4.24920        0.65890       -1.18960
C          5.44770        0.96540       -1.83270
C          5.46330        1.42030       -3.15490
C          4.25340        1.57940       -3.83330
C          3.04150        1.29080       -3.20370
N          0.64530        0.45340       -2.03690
H          0.67960       -0.25770       -2.76920
C         -0.39280        0.36770       -1.13050
N         -1.71210        0.17370       -1.34540
C         -2.32760        0.17490       -0.17850
N         -3.67040       -0.03600       -0.11220
C         -4.54930       -0.09450        0.97870
C         -4.30390        0.55430        2.19950
C         -5.22800        0.44800        3.24150
C         -6.40800       -0.28080        3.08330
C         -6.66320       -0.90760        1.85920
C         -5.74330       -0.82140        0.81750
S         -1.28650        0.41570        1.25090
H          4.23540        0.31170       -0.15950
H          6.38650        0.83890       -1.28790
H          6.40920        1.65070       -3.64990
H          4.24470        1.94370       -4.86350
H          2.10000        1.44980       -3.72910
H         -4.05890       -0.27650       -1.01920
H         -3.41580        1.16980        2.33480
H         -5.02110        0.95750        4.18540
H         -7.12550       -0.35590        3.90270
H         -7.58400       -1.47760        1.71500
H         -5.94000       -1.32620       -0.13200
