34
rmsd45.gzmat
C          0.00000        0.00000        0.00000
C          1.43480        0.00000        0.00000
O          2.27790        0.00000        0.84930
N          1.81290       -0.09470       -1.44110
C          2.95180        0.64790       -1.88430
C          4.17470        0.32300       -1.27600
C          5.33350        0.96740       -1.69420
C          5.28540        1.91950       -2.71250
C          4.06810        2.23600       -3.31090
C          2.89460        1.60800       -2.90090
N          0.62450        0.11790       -2.23540
H          0.64280       -0.44860       -3.08570
C         -0.43960       -0.01370       -1.34050
N         -1.79080       -0.06530       -1.58350
C         -2.43920       -0.05440       -0.40140
N         -3.78160       -0.07610       -0.22380
C         -4.77220       -0.09690       -1.24530
C         -4.50650        0.19120       -2.58630
C         -5.55020        0.16340       -3.50840
C         -6.84760       -0.14250       -3.10510
C         -7.10920       -0.41870       -1.76300
C         -6.08120       -0.39980       -0.82830
S         -1.32970       -0.00260        1.06530
H          4.21140       -0.42020       -0.47710
H          6.28390        0.72530       -1.21990
H          6.19740        2.41480       -3.03660
H          4.02850        2.98420       -4.10060
H          1.94470        1.87760       -3.35930
H         -4.13990       -0.13280        0.73170
H         -3.49540        0.43730       -2.92500
H         -5.34370        0.38570       -4.55570
H         -7.65500       -0.16460       -3.83350
H         -8.12540       -0.65090       -1.44470
H         -6.29560       -0.62200        0.21380
