34
rmsd36.gzmat
C          0.00000        0.00000        0.00000
C          1.43390        0.00000        0.00000
O          2.27990        0.00000        0.84680
N          1.81140       -0.09620       -1.44100
C          2.95920        0.62820       -1.88950
C          4.18350        0.26530       -1.30580
C          5.35160        0.88120       -1.74050
C          5.30980        1.84830       -2.74460
C          4.09070        2.20510       -3.31620
C          2.90900        1.60310       -2.89180
N          0.62500        0.12590       -2.23600
H          0.64150       -0.43820       -3.08800
C         -0.44000       -0.01410       -1.34120
N         -1.78810       -0.08380       -1.58100
C         -2.42910       -0.08490       -0.38560
N         -3.78010       -0.10530       -0.34830
C         -4.52780       -0.19190        0.86240
C         -4.30730       -1.23620        1.76650
C         -5.07560       -1.29800        2.92620
C         -6.05980       -0.34230        3.17230
C         -6.28130        0.68650        2.25710
C         -5.51800        0.77070        1.09680
S         -1.33280       -0.00500        1.06890
H          4.21170       -0.48490       -0.51360
H          6.30530        0.60470       -1.29300
H          6.22790        2.32510       -3.07750
H          4.05790        2.96300       -4.09710
H          1.95830        1.90320       -3.32840
H         -4.29850       -0.02620       -1.22410
H         -3.55790       -2.00230        1.56600
H         -4.90650       -2.10200        3.64290
H         -6.65840       -0.39820        4.07970
H         -7.05140        1.43190        2.45390
H         -5.68130        1.58090        0.38830
