rmsd39.gzmat
 OpenBabel08211713373D

 34 37  0  0  1  0  0  0  0  0999 V2000
    0.0000    0.0000    0.0000 C   0  0  1  0  0  0  0  0  0  0  0  0
    1.4340    0.0000    0.0000 C   0  0  0  0  0  0  0  0  0  0  0  0
    2.2797    0.0000    0.8474 O   0  0  0  0  0  0  0  0  0  0  0  0
    1.8109   -0.0959   -1.4408 N   0  0  0  0  0  0  0  0  0  0  0  0
    2.9631    0.6197   -1.8914 C   0  0  0  0  0  0  0  0  0  0  0  0
    4.1836    0.2608   -1.2972 C   0  0  0  0  0  0  0  0  0  0  0  0
    5.3555    0.8694   -1.7316 C   0  0  0  0  0  0  0  0  0  0  0  0
    5.3235    1.8185   -2.7534 C   0  0  0  0  0  0  0  0  0  0  0  0
    4.1086    2.1698   -3.3371 C   0  0  0  0  0  0  0  0  0  0  0  0
    2.9218    1.5812   -2.9075 C   0  0  0  0  0  0  0  0  0  0  0  0
    0.6253    0.1312   -2.2355 N   0  0  0  0  0  0  0  0  0  0  0  0
    0.6399   -0.4298   -3.0896 H   0  0  0  0  0  0  0  0  0  0  0  0
   -0.4397   -0.0095   -1.3408 C   0  0  0  0  0  0  0  0  0  0  0  0
   -1.7879   -0.0771   -1.5812 N   0  0  0  0  0  0  0  0  0  0  0  0
   -2.4293   -0.0813   -0.3862 C   0  0  0  0  0  0  0  0  0  0  0  0
   -3.7806   -0.0925   -0.3485 N   0  0  0  0  0  0  0  0  0  0  0  0
   -4.5287   -0.2021    0.8603 C   0  0  0  0  0  0  0  0  0  0  0  0
   -4.3144   -1.2680    1.7402 C   0  0  0  0  0  0  0  0  0  0  0  0
   -5.0810   -1.3504    2.8997 C   0  0  0  0  0  0  0  0  0  0  0  0
   -6.0573   -0.3929    3.1693 C   0  0  0  0  0  0  0  0  0  0  0  0
   -6.2768    0.6547    2.2751 C   0  0  0  0  0  0  0  0  0  0  0  0
   -5.5150    0.7591    1.1152 C   0  0  0  0  0  0  0  0  0  0  0  0
   -1.3330   -0.0106    1.0691 S   0  0  0  0  0  0  0  0  0  0  0  0
    4.2073   -0.4814   -0.4973 H   0  0  0  0  0  0  0  0  0  0  0  0
    6.3037    0.6007   -1.2680 H   0  0  0  0  0  0  0  0  0  0  0  0
    6.2452    2.2853   -3.0909 H   0  0  0  0  0  0  0  0  0  0  0  0
    4.0824    2.9138   -4.1315 H   0  0  0  0  0  0  0  0  0  0  0  0
    1.9743    1.8819   -3.3506 H   0  0  0  0  0  0  0  0  0  0  0  0
   -4.2993   -0.0046   -1.2230 H   0  0  0  0  0  0  0  0  0  0  0  0
   -3.5716   -2.0350    1.5206 H   0  0  0  0  0  0  0  0  0  0  0  0
   -4.9180   -2.1713    3.5978 H   0  0  0  0  0  0  0  0  0  0  0  0
   -6.6509   -0.4637    4.0789 H   0  0  0  0  0  0  0  0  0  0  0  0
   -7.0446    1.3982    2.4874 H   0  0  0  0  0  0  0  0  0  0  0  0
   -5.6767    1.5834    0.4228 H   0  0  0  0  0  0  0  0  0  0  0  0
  1 13  1  6  0  0  0
  1  2  1  0  0  0  0
  1 23  1  0  0  0  0
  2  3  2  0  0  0  0
  4  2  1  0  0  0  0
  5  4  1  0  0  0  0
  5  6  2  0  0  0  0
  6 24  1  0  0  0  0
  7  6  1  0  0  0  0
  7 25  1  0  0  0  0
  8  7  2  0  0  0  0
  9 10  2  0  0  0  0
  9  8  1  0  0  0  0
 10  5  1  0  0  0  0
 11  4  1  0  0  0  0
 11 13  1  0  0  0  0
 12 11  1  0  0  0  0
 14 13  2  0  0  0  0
 14 15  2  0  0  0  0
 15 16  1  0  0  0  0
 15 23  1  0  0  0  0
 16 17  1  0  0  0  0
 17 22  2  0  0  0  0
 17 18  1  0  0  0  0
 18 19  2  0  0  0  0
 19 20  1  0  0  0  0
 19 31  1  0  0  0  0
 20 32  1  0  0  0  0
 21 33  1  0  0  0  0
 21 20  2  0  0  0  0
 22 21  1  0  0  0  0
 26  8  1  0  0  0  0
 27  9  1  0  0  0  0
 28 10  1  0  0  0  0
 29 16  1  0  0  0  0
 30 18  1  0  0  0  0
 34 22  1  0  0  0  0
M  RAD  1   1   2
M  END
$$$$
