34
rmsd43.gzmat
C          0.00000        0.00000        0.00000
C          1.43550        0.00000        0.00000
O          2.28070        0.00000        0.84750
N          1.81190       -0.09660       -1.43980
C          2.96590        0.61680       -1.88990
C          4.18720        0.24120       -1.30800
C          5.36080        0.84460       -1.74570
C          5.32780        1.80720       -2.75470
C          4.11110        2.17860       -3.32180
C          2.92310        1.59320       -2.89140
N          0.62710        0.12970       -2.23510
H          0.64210       -0.43330       -3.08820
C         -0.43770       -0.00730       -1.34090
N         -1.78750       -0.06140       -1.58720
C         -2.43880       -0.06210       -0.40620
N         -3.78310       -0.09310       -0.24380
C         -4.74700       -0.14090       -1.29150
C         -6.01960       -0.62970       -0.94800
C         -7.01570       -0.67700       -1.91630
C         -6.75720       -0.24410       -3.21690
C         -5.49500        0.24370       -3.54730
C         -4.48450        0.30340       -2.59050
S         -1.33340       -0.01390        1.06250
H          4.20920       -0.50790       -0.51380
H          6.31140        0.56180       -1.29470
H          6.25120        2.26940       -3.09480
H          4.08550        2.93540       -4.10420
H          1.97380        1.90700       -3.32170
H         -4.15880       -0.16780        0.70200
H         -6.23070       -0.97700        0.06010
H         -8.00340       -1.05710       -1.65750
H         -7.54080       -0.28770       -3.97040
H         -5.29060        0.58350       -4.56300
H         -3.49980        0.69140       -2.86760
