
     RDKit          3D

 34 37  0  0  0  0  0  0  0  0999 V2000
   -0.0181   -0.0495   -0.0255 C   0  0  0  0  0  0  0  0  0  0  0  0
    1.4302    0.0119    0.0229 C   0  0  0  0  0  0  0  0  0  0  0  0
    2.2344   -0.1419    0.9199 O   0  0  0  0  0  0  0  0  0  0  0  0
    1.7667    0.3541   -1.3305 N   0  0  0  0  0  0  0  0  0  0  0  0
    2.9996    0.8486   -1.7974 C   0  0  0  0  0  0  0  0  0  0  0  0
    4.1981    0.4735   -1.1630 C   0  0  0  0  0  0  0  0  0  0  0  0
    5.4121    0.9537   -1.6527 C   0  0  0  0  0  0  0  0  0  0  0  0
    5.4600    1.7912   -2.7714 C   0  0  0  0  0  0  0  0  0  0  0  0
    4.2672    2.1588   -3.3973 C   0  0  0  0  0  0  0  0  0  0  0  0
    3.0403    1.7000   -2.9153 C   0  0  0  0  0  0  0  0  0  0  0  0
    0.6174    0.5579   -2.1189 N   0  0  0  0  0  0  0  0  0  0  0  0
    0.6703    0.1005   -3.0307 H   0  0  0  0  0  0  0  0  0  0  0  0
   -0.4423    0.2104   -1.3066 C   0  0  0  0  0  0  0  0  0  0  0  0
   -1.7551    0.0830   -1.6117 N   0  0  0  0  0  0  0  0  0  0  0  0
   -2.4001   -0.2699   -0.5225 C   0  0  0  0  0  0  0  0  0  0  0  0
   -3.7377   -0.4778   -0.4127 N   0  0  0  0  0  0  0  0  0  0  0  0
   -4.7551   -0.3451   -1.3753 C   0  0  0  0  0  0  0  0  0  0  0  0
   -6.0676   -0.6369   -0.9612 C   0  0  0  0  0  0  0  0  0  0  0  0
   -7.1298   -0.5273   -1.8551 C   0  0  0  0  0  0  0  0  0  0  0  0
   -6.9023   -0.1257   -3.1750 C   0  0  0  0  0  0  0  0  0  0  0  0
   -5.5982    0.1630   -3.5831 C   0  0  0  0  0  0  0  0  0  0  0  0
   -4.5212    0.0579   -2.7002 C   0  0  0  0  0  0  0  0  0  0  0  0
   -1.3962   -0.4678    0.9516 S   0  0  0  0  0  0  0  0  0  0  0  0
    4.1589   -0.1723   -0.2893 H   0  0  0  0  0  0  0  0  0  0  0  0
    6.3372    0.6600   -1.1505 H   0  0  0  0  0  0  0  0  0  0  0  0
    6.4177    2.1554   -3.1495 H   0  0  0  0  0  0  0  0  0  0  0  0
    4.2840    2.8209   -4.2665 H   0  0  0  0  0  0  0  0  0  0  0  0
    2.1119    2.0185   -3.3890 H   0  0  0  0  0  0  0  0  0  0  0  0
   -4.0579   -0.7669    0.5039 H   0  0  0  0  0  0  0  0  0  0  0  0
   -6.2525   -0.9512    0.0703 H   0  0  0  0  0  0  0  0  0  0  0  0
   -8.1423   -0.7577   -1.5156 H   0  0  0  0  0  0  0  0  0  0  0  0
   -7.7342   -0.0394   -3.8769 H   0  0  0  0  0  0  0  0  0  0  0  0
   -5.4066    0.4782   -4.6117 H   0  0  0  0  0  0  0  0  0  0  0  0
   -3.5067    0.2816   -3.0194 H   0  0  0  0  0  0  0  0  0  0  0  0
  1  2  1  0
  1 13  2  0
  1 23  1  0
  2  3  2  0
  2  4  1  0
  4  5  1  0
  4 11  1  0
  5  6  2  0
  5 10  1  0
  6  7  1  0
  6 24  1  0
  7  8  2  0
  7 25  1  0
  8  9  1  0
  8 26  1  0
  9 10  2  0
  9 27  1  0
 10 28  1  0
 11 12  1  0
 11 13  1  0
 13 14  1  0
 14 15  2  0
 15 16  1  0
 15 23  1  0
 16 17  1  0
 16 29  1  0
 17 18  2  0
 17 22  1  0
 18 19  1  0
 18 30  1  0
 19 20  2  0
 19 31  1  0
 20 21  1  0
 20 32  1  0
 21 22  2  0
 21 33  1  0
 22 34  1  0
M  END

