34
rmsd38.gzmat
C          0.00000        0.00000        0.00000
C          1.43420        0.00000        0.00000
O          2.28050        0.00000        0.84680
N          1.81060       -0.09720       -1.44060
C          2.96610        0.61070       -1.89410
C          4.18700        0.23570       -1.31130
C          5.36210        0.83300       -1.75320
C          5.33140        1.79060       -2.76720
C          4.11520        2.16140       -3.33620
C          2.92640        1.58020       -2.90290
N          0.62590        0.13390       -2.23540
H          0.63960       -0.42780       -3.08900
C         -0.43960       -0.00720       -1.34120
N         -1.78740       -0.07470       -1.58310
C         -2.42910       -0.08270       -0.38840
N         -3.77950       -0.10540       -0.34840
C         -4.51750       -0.18540        0.87020
C         -5.43560        0.83160        1.15670
C         -6.18700        0.75320        2.32550
C         -6.02160       -0.32260        3.19730
C         -5.10830       -1.33280        2.89910
C         -4.35400       -1.27680        1.72980
S         -1.33400       -0.01570        1.06860
H          4.20800       -0.51000       -0.51420
H          6.31180        0.54840       -1.30220
H          6.25540        2.24910       -3.10980
H          4.08950        2.91430       -4.12190
H          1.97820        1.89160       -3.33760
H         -4.30360       -0.02780       -1.22010
H         -5.55200        1.67780        0.48150
H         -6.90370        1.53920        2.56140
H         -6.60770       -0.37380        4.11320
H         -4.98360       -2.17280        3.58240
H         -3.65760       -2.07980        1.48760
