rmsd32.gzmat
 OpenBabel08211713373D

 34 37  0  0  1  0  0  0  0  0999 V2000
    0.0000    0.0000    0.0000 C   0  0  1  0  0  0  0  0  0  0  0  0
    1.4342    0.0000    0.0000 C   0  0  0  0  0  0  0  0  0  0  0  0
    2.2805    0.0000    0.8466 O   0  0  0  0  0  0  0  0  0  0  0  0
    1.8098   -0.0966   -1.4397 N   0  0  0  0  0  0  0  0  0  0  0  0
    2.9744    0.6002   -1.8867 C   0  0  0  0  0  0  0  0  0  0  0  0
    4.1897    0.2039   -1.3052 C   0  0  0  0  0  0  0  0  0  0  0  0
    5.3734    0.7906   -1.7386 C   0  0  0  0  0  0  0  0  0  0  0  0
    5.3565    1.7594   -2.7421 C   0  0  0  0  0  0  0  0  0  0  0  0
    4.1462    2.1501   -3.3102 C   0  0  0  0  0  0  0  0  0  0  0  0
    2.9492    1.5794   -2.8850 C   0  0  0  0  0  0  0  0  0  0  0  0
    0.6267    0.1435   -2.2347 N   0  0  0  0  0  0  0  0  0  0  0  0
    0.6394   -0.4138   -3.0916 H   0  0  0  0  0  0  0  0  0  0  0  0
   -0.4397   -0.0043   -1.3414 C   0  0  0  0  0  0  0  0  0  0  0  0
   -1.7874   -0.0857   -1.5817 N   0  0  0  0  0  0  0  0  0  0  0  0
   -2.4280   -0.1090   -0.3864 C   0  0  0  0  0  0  0  0  0  0  0  0
   -3.7786   -0.1456   -0.3466 N   0  0  0  0  0  0  0  0  0  0  0  0
   -4.5222   -0.2984    0.8607 C   0  0  0  0  0  0  0  0  0  0  0  0
   -5.5266    0.6370    1.1390 C   0  0  0  0  0  0  0  0  0  0  0  0
   -6.2862    0.4895    2.2956 C   0  0  0  0  0  0  0  0  0  0  0  0
   -6.0441   -0.5732    3.1656 C   0  0  0  0  0  0  0  0  0  0  0  0
   -5.0473   -1.5031    2.8747 C   0  0  0  0  0  0  0  0  0  0  0  0
   -4.2841   -1.3786    1.7165 C   0  0  0  0  0  0  0  0  0  0  0  0
   -1.3321   -0.0286    1.0695 S   0  0  0  0  0  0  0  0  0  0  0  0
    4.1995   -0.5498   -0.5160 H   0  0  0  0  0  0  0  0  0  0  0  0
    6.3191    0.4888   -1.2900 H   0  0  0  0  0  0  0  0  0  0  0  0
    6.2867    2.2106   -3.0777 H   0  0  0  0  0  0  0  0  0  0  0  0
    4.1312    2.9104   -4.0893 H   0  0  0  0  0  0  0  0  0  0  0  0
    2.0057    1.9067   -3.3181 H   0  0  0  0  0  0  0  0  0  0  0  0
   -4.3009   -0.0688   -1.2198 H   0  0  0  0  0  0  0  0  0  0  0  0
   -5.7027    1.4751    0.4669 H   0  0  0  0  0  0  0  0  0  0  0  0
   -7.0694    1.2119    2.5248 H   0  0  0  0  0  0  0  0  0  0  0  0
   -6.6346   -0.6762    4.0742 H   0  0  0  0  0  0  0  0  0  0  0  0
   -4.8625   -2.3344    3.5554 H   0  0  0  0  0  0  0  0  0  0  0  0
   -3.5236   -2.1233    1.4810 H   0  0  0  0  0  0  0  0  0  0  0  0
  1 13  1  6  0  0  0
  1  2  1  0  0  0  0
  1 23  1  0  0  0  0
  2  3  2  0  0  0  0
  4  2  1  0  0  0  0
  5  4  1  0  0  0  0
  5  6  2  0  0  0  0
  6 24  1  0  0  0  0
  7  6  1  0  0  0  0
  7 25  1  0  0  0  0
  8  7  2  0  0  0  0
  9 10  2  0  0  0  0
  9  8  1  0  0  0  0
 10  5  1  0  0  0  0
 11  4  1  0  0  0  0
 11 13  1  0  0  0  0
 12 11  1  0  0  0  0
 14 13  2  0  0  0  0
 14 15  2  0  0  0  0
 15 16  1  0  0  0  0
 15 23  1  0  0  0  0
 16 17  1  0  0  0  0
 17 18  2  0  0  0  0
 17 22  1  0  0  0  0
 18 19  1  0  0  0  0
 19 31  1  0  0  0  0
 19 20  2  0  0  0  0
 20 32  1  0  0  0  0
 21 20  1  0  0  0  0
 21 33  1  0  0  0  0
 22 21  2  0  0  0  0
 26  8  1  0  0  0  0
 27  9  1  0  0  0  0
 28 10  1  0  0  0  0
 29 16  1  0  0  0  0
 30 18  1  0  0  0  0
 34 22  1  0  0  0  0
M  RAD  1   1   2
M  END
$$$$
