34

C          0.08410        0.12830        0.12030
C          1.52970        0.03780        0.04800
O          2.38430       -0.22340        0.87070
N          1.78950        0.38450       -1.32170
C          3.02350        0.77130       -1.87780
C          4.22720        0.27080       -1.34800
C          5.43920        0.64600       -1.92620
C          5.47910        1.50100       -3.03200
C          4.28130        1.99320       -3.55400
C          3.05780        1.64050       -2.98230
N          0.60620        0.71990       -2.00950
H          0.53960        0.28020       -2.92910
C         -0.41460        0.45520       -1.11860
N         -1.75060        0.44270       -1.31760
C         -2.33680        0.11760       -0.18160
N         -3.69380        0.12020       -0.08270
C         -4.54420       -0.22830        0.97660
C         -4.17310       -1.11760        1.99770
C         -5.07540       -1.41660        3.02100
C         -6.35430       -0.85730        3.03670
C         -6.73130        0.01140        2.00730
C         -5.83590        0.32870        0.98900
S         -1.24450       -0.20240        1.19470
H          4.19510       -0.38860       -0.48420
H          6.36850        0.25510       -1.50470
H          6.43450        1.78220       -3.48010
H          4.29270        2.67070       -4.41140
H          2.12980        2.05530       -3.37520
H         -4.13530        0.51400       -0.90810
H         -3.19820       -1.60310        1.98580
H         -4.77060       -2.10910        3.80900
H         -7.05350       -1.09860        3.83980
H         -7.72970        0.45470        2.00020
H         -6.12960        1.02060        0.19520
