rmsd238.gzmat
 OpenBabel08211713423D

 52 53  0  0  1  0  0  0  0  0999 V2000
    0.0000    0.0000    0.0000 C   0  0  0  0  0  0  0  0  0  0  0  0
    1.4845    0.0000    0.0000 C   0  0  0  0  0  0  0  0  0  0  0  0
    2.1601    0.0000    0.9971 O   0  0  0  0  0  0  0  0  0  0  0  0
    2.1869    0.0166   -1.3779 C   0  0  2  0  0  0  0  0  0  0  0  0
    1.4396    0.1643   -2.2093 H   0  0  0  0  0  0  0  0  0  0  0  0
    2.9376   -1.3141   -1.5793 C   0  0  0  0  0  0  0  0  0  0  0  0
    1.9893   -2.4252   -1.8800 C   0  0  0  0  0  0  0  0  0  0  0  0
    0.7880   -2.4324   -1.8085 O   0  0  0  0  0  0  0  0  0  0  0  0
    2.6724   -3.5302   -2.2687 O   0  0  0  0  0  0  0  0  0  0  0  0
    3.1348    1.1259   -1.3570 N   0  0  0  0  0  0  0  0  0  0  0  0
    3.1487    2.0575   -2.3806 C   0  0  0  0  0  0  0  0  0  0  0  0
    2.4055    1.9458   -3.3329 O   0  0  0  0  0  0  0  0  0  0  0  0
    4.1335    3.1609   -2.2288 C   0  0  0  0  0  0  0  0  0  0  0  0
    4.2257    3.8895   -1.0440 C   0  0  0  0  0  0  0  0  0  0  0  0
    5.1472    4.9286   -0.9462 C   0  0  0  0  0  0  0  0  0  0  0  0
    5.9668    5.2379   -2.0328 C   0  0  0  0  0  0  0  0  0  0  0  0
    5.8564    4.5186   -3.2241 C   0  0  0  0  0  0  0  0  0  0  0  0
    4.9370    3.4784   -3.3239 C   0  0  0  0  0  0  0  0  0  0  0  0
    6.9626    6.3648   -1.9268 C   0  0  0  0  0  0  0  0  0  0  0  0
    6.4277    7.5363   -2.6510 N   0  0  0  0  0  0  0  0  0  0  0  0
    7.3720    9.0030   -2.5962 S   0  0  0  0  0  0  0  0  0  0  0  0
    6.4249   10.0549   -2.3075 O   0  0  0  0  0  0  0  0  0  0  0  0
    8.5092    8.7272   -1.7502 O   0  0  0  0  0  0  0  0  0  0  0  0
    7.9274    9.1916   -4.2432 C   0  0  0  0  0  0  0  0  0  0  0  0
    9.0764    8.5430   -4.6679 C   0  0  0  0  0  0  0  0  0  0  0  0
    9.5135    8.6827   -5.9928 C   0  0  0  0  0  0  0  0  0  0  0  0
    8.7729    9.5022   -6.8709 C   0  0  0  0  0  0  0  0  0  0  0  0
    7.6115   10.1704   -6.4352 C   0  0  0  0  0  0  0  0  0  0  0  0
    7.2000   10.0091   -5.1272 C   0  0  0  0  0  0  0  0  0  0  0  0
    9.1124    9.6964   -8.1452 O   0  0  0  0  0  0  0  0  0  0  0  0
   10.7032    8.0060   -6.4814 C   0  0  0  0  0  0  0  0  0  0  0  0
   11.1631    8.0751   -7.6059 O   0  0  0  0  0  0  0  0  0  0  0  0
   11.3071    7.2352   -5.5500 O   0  0  0  0  0  0  0  0  0  0  0  0
   -0.4134    0.8502   -0.5619 H   0  0  0  0  0  0  0  0  0  0  0  0
   -0.4128    0.0415    1.0192 H   0  0  0  0  0  0  0  0  0  0  0  0
   -0.3970   -0.9178   -0.4753 H   0  0  0  0  0  0  0  0  0  0  0  0
    3.5489   -1.5660   -0.6809 H   0  0  0  0  0  0  0  0  0  0  0  0
    3.6827   -1.2107   -2.4040 H   0  0  0  0  0  0  0  0  0  0  0  0
    2.0909   -4.3053   -2.4747 H   0  0  0  0  0  0  0  0  0  0  0  0
    3.7467    1.1871   -0.5547 H   0  0  0  0  0  0  0  0  0  0  0  0
    3.5729    3.6605   -0.2006 H   0  0  0  0  0  0  0  0  0  0  0  0
    5.2236    5.4985   -0.0208 H   0  0  0  0  0  0  0  0  0  0  0  0
    6.4808    4.7831   -4.0778 H   0  0  0  0  0  0  0  0  0  0  0  0
    4.8324    2.9176   -4.2552 H   0  0  0  0  0  0  0  0  0  0  0  0
    7.9359    6.0681   -2.3906 H   0  0  0  0  0  0  0  0  0  0  0  0
    7.1964    6.5911   -0.8581 H   0  0  0  0  0  0  0  0  0  0  0  0
    5.4270    7.6605   -2.4975 H   0  0  0  0  0  0  0  0  0  0  0  0
    9.6688    7.9171   -3.9803 H   0  0  0  0  0  0  0  0  0  0  0  0
    7.0650   10.7968   -7.1375 H   0  0  0  0  0  0  0  0  0  0  0  0
    6.2974   10.5343   -4.7794 H   0  0  0  0  0  0  0  0  0  0  0  0
    9.9607    9.1920   -8.3954 H   0  0  0  0  0  0  0  0  0  0  0  0
   12.1237    6.7809   -5.8922 H   0  0  0  0  0  0  0  0  0  0  0  0
  1 35  1  0  0  0  0
  2  1  1  0  0  0  0
  2  3  2  0  0  0  0
  4  5  1  6  0  0  0
  4 10  1  0  0  0  0
  4  2  1  0  0  0  0
  6  4  1  0  0  0  0
  6 37  1  0  0  0  0
  7  8  2  0  0  0  0
  7  6  1  0  0  0  0
  9  7  1  0  0  0  0
 10 40  1  0  0  0  0
 11 13  1  0  0  0  0
 11 10  1  0  0  0  0
 12 11  2  0  0  0  0
 13 14  2  0  0  0  0
 14 15  1  0  0  0  0
 14 41  1  0  0  0  0
 15 42  1  0  0  0  0
 16 19  1  0  0  0  0
 16 15  2  0  0  0  0
 17 16  1  0  0  0  0
 18 17  2  0  0  0  0
 18 13  1  0  0  0  0
 19 46  1  0  0  0  0
 20 21  1  0  0  0  0
 20 47  1  0  0  0  0
 20 19  1  0  0  0  0
 21 22  2  0  0  0  0
 21 23  2  0  0  0  0
 24 21  1  0  0  0  0
 25 24  1  0  0  0  0
 25 48  1  0  0  0  0
 26 25  2  0  0  0  0
 27 28  2  0  0  0  0
 27 26  1  0  0  0  0
 28 29  1  0  0  0  0
 29 50  1  0  0  0  0
 29 24  2  0  0  0  0
 30 27  1  0  0  0  0
 31 26  1  0  0  0  0
 31 33  1  0  0  0  0
 32 31  2  0  0  0  0
 34  1  1  0  0  0  0
 36  1  1  0  0  0  0
 38  6  1  0  0  0  0
 39  9  1  0  0  0  0
 43 17  1  0  0  0  0
 44 18  1  0  0  0  0
 45 19  1  0  0  0  0
 49 28  1  0  0  0  0
 51 30  1  0  0  0  0
 52 33  1  0  0  0  0
M  END
$$$$
