52
rmsd122.gzmat
C          0.00000        0.00000        0.00000
C          1.48990        0.00000        0.00000
O          2.14710        0.00000        1.00880
C          2.20990       -0.06410       -1.36470
H          2.27180       -1.16420       -1.63830
C          3.64110        0.49040       -1.23910
C          3.67290        1.96850       -1.01720
O          2.81900        2.78830       -1.25450
O          4.87040        2.34680       -0.51350
N          1.46100        0.64800       -2.39160
C          0.77810       -0.04890       -3.37070
O          0.75430       -1.26300       -3.36490
C          0.11270        0.79260       -4.40000
C          0.45170        0.58890       -5.73700
C         -0.15370        1.36050       -6.72490
C         -1.10220        2.32210       -6.37460
C         -1.45750        2.50220       -5.03650
C         -0.84580        1.74020       -4.04400
C         -1.73910        3.17810       -7.44260
N         -2.92360        2.55420       -8.05330
S         -2.70400        1.56680       -9.47700
O         -1.28630        1.30970       -9.61920
O         -3.67400        0.50850       -9.34210
C         -3.17380        2.63830      -10.77900
C         -4.50820        2.95500      -10.98170
C         -4.87190        3.84420      -12.00300
C         -3.86110        4.39140      -12.82160
C         -2.50730        4.05240      -12.62890
C         -2.17700        3.17990      -11.61140
O         -4.11110        5.24690      -13.81270
C         -6.25640        4.21970      -12.23760
O         -6.66060        4.98040      -13.09820
O         -7.12720        3.64020      -11.38360
H         -0.41000       -0.77270       -0.67030
H         -0.39620        0.96860       -0.34220
H         -0.40280       -0.17900        1.00890
H          4.23160        0.24440       -2.15090
H          4.16770       -0.02970       -0.39870
H          4.93840        3.32010       -0.33870
H          1.51720        1.66130       -2.37140
H          1.18370       -0.17500       -6.00650
H          0.10610        1.20000       -7.77820
H         -2.21010        3.24010       -4.76350
H         -1.11970        1.88390       -2.99910
H         -0.98470        3.43940       -8.22390
H         -2.07100        4.15790       -7.01530
H         -3.54730        2.15280       -7.35180
H         -5.30320        2.51810      -10.35590
H         -1.75460        4.48370      -13.28600
H         -1.12130        2.90490      -11.46070
H         -5.10640        5.44620      -13.90310
H         -8.07240        3.89830      -11.55920
