52
rmsd108.gzmat
C          0.00000        0.00000        0.00000
C          1.48700        0.00000        0.00000
O          2.16250        0.00000        0.99590
C          2.17180        0.04000       -1.38810
H          1.42770       -0.21350       -2.19730
C          3.34640       -0.94980       -1.41990
C          2.90780       -2.37620       -1.46530
O          3.59060       -3.35340       -1.61410
O          1.56090       -2.49030       -1.30650
N          2.66370        1.40260       -1.58520
C          1.91780        2.30150       -2.33180
O          0.90100        1.94110       -2.88860
C          2.45680        3.68310       -2.42140
C          2.40900        4.32230       -3.66070
C          2.87950        5.62720       -3.78320
C          3.38940        6.28950       -2.66670
C          3.42160        5.65150       -1.42510
C          2.95170        4.34740       -1.29920
C          3.88670        7.70950       -2.78790
N          2.84240        8.69810       -2.47460
S          1.76670        9.19460       -3.76050
O          2.10200        8.41290       -4.93170
O          0.45150        9.18740       -3.16980
C          2.26140       10.84660       -4.05340
C          1.88540       11.85180       -3.17580
C          2.32890       13.16560       -3.38170
C          3.14730       13.44120       -4.49770
C          3.50360       12.42460       -5.40580
C          3.05760       11.13830       -5.17540
O          3.62990       14.65500       -4.76450
C          1.97570       14.24410       -2.47330
O          2.33060       15.40530       -2.56170
O          1.18160       13.85310       -1.45330
H         -0.39010       -0.96380       -0.36730
H         -0.40820        0.78190       -0.66310
H         -0.41340        0.16110        1.00590
H          3.99930       -0.80730       -0.52240
H          4.00200       -0.74290       -2.29840
H          1.24110       -3.42690       -1.31490
H          3.47600        1.68280       -1.05970
H          1.98880        3.80300       -4.52580
H          2.82680        6.14070       -4.75080
H          3.80940        6.17270       -0.55180
H          2.95710        3.86270       -0.32310
H          4.30630        7.89520       -3.80640
H          4.73600        7.89030       -2.08270
H          2.37300        8.48470       -1.59310
H          1.23570       11.64440       -2.30940
H          4.12230       12.67510       -6.26510
H          3.32700       10.34080       -5.88450
H          3.33460       15.34310       -4.07380
H          0.94000       14.59960       -0.84100
