52

C          0.29450       -0.82160        0.07430
C          1.73800       -0.37770        0.01810
O          2.42570       -0.25030        1.00560
C          2.28660       -0.08130       -1.37830
H          1.51710        0.49400       -1.91430
C          2.46060       -1.41760       -2.15470
C          1.61450       -1.54140       -3.40770
O          0.62300       -0.86410       -3.62650
O          2.06130       -2.49140       -4.20470
N          3.51000        0.67990       -1.24420
C          4.23270        1.24580       -2.26430
O          5.38940        1.60140       -2.13860
C          3.45560        1.37770       -3.54880
C          2.31820        2.19060       -3.60590
C          1.48690        2.15240       -4.72350
C          1.77180        1.29240       -5.78950
C          2.96290        0.55170       -5.77180
C          3.80590        0.60390       -4.66280
C          0.71220        1.00280       -6.82580
N          0.05440       -0.27950       -6.51120
S          0.48690       -1.64660       -7.35000
O          1.66160       -1.38710       -8.18810
O          0.50190       -2.73790       -6.34500
C         -0.88000       -1.98990       -8.43050
C         -0.73800       -1.79050       -9.79280
C         -1.81390       -2.04810      -10.66120
C         -3.04260       -2.52040      -10.12710
C         -3.15360       -2.72200       -8.73330
C         -2.08890       -2.46370       -7.89090
O         -4.12340       -2.79680      -10.85830
C         -1.56900       -1.80180      -12.10140
O         -0.54410       -1.39510      -12.58360
O         -2.65590       -2.08510      -12.88500
H         -0.32310        0.08350        0.20760
H          0.12950       -1.47570        0.94080
H         -0.03590       -1.30090       -0.85780
H          2.21430       -2.29510       -1.53110
H          3.51470       -1.55300       -2.43110
H          1.46690       -2.59990       -4.99930
H          3.99180        0.57020       -0.35280
H          2.05580        2.81460       -2.74800
H          0.57110        2.74930       -4.74060
H          3.18940       -0.11890       -6.60370
H          4.71400       -0.00240       -4.63150
H          1.13870        0.93020       -7.83540
H         -0.05200        1.79460       -6.83530
H          0.01200       -0.49700       -5.50370
H          0.20560       -1.43960      -10.21180
H         -4.10490       -3.09300       -8.34940
H         -2.17670       -2.63270       -6.81640
H         -3.92910       -2.62800      -11.80000
H         -2.40970       -1.89710      -13.80710
