rmsd109.gzmat
 OpenBabel08211713423D

 52 53  0  0  1  0  0  0  0  0999 V2000
    0.0000    0.0000    0.0000 C   0  0  0  0  0  0  0  0  0  0  0  0
    1.4850    0.0000    0.0000 C   0  0  0  0  0  0  0  0  0  0  0  0
    2.1609    0.0000    0.9968 O   0  0  0  0  0  0  0  0  0  0  0  0
    2.1835    0.0075   -1.3804 C   0  0  2  0  0  0  0  0  0  0  0  0
    1.4271    0.1321   -2.2091 H   0  0  0  0  0  0  0  0  0  0  0  0
    2.9497   -1.3164   -1.5595 C   0  0  0  0  0  0  0  0  0  0  0  0
    2.0146   -2.4369   -1.8676 C   0  0  0  0  0  0  0  0  0  0  0  0
    0.8115   -2.4324   -1.8902 O   0  0  0  0  0  0  0  0  0  0  0  0
    2.7144   -3.5669   -2.1393 O   0  0  0  0  0  0  0  0  0  0  0  0
    3.1216    1.1250   -1.3922 N   0  0  0  0  0  0  0  0  0  0  0  0
    2.9139    2.1980   -2.2448 C   0  0  0  0  0  0  0  0  0  0  0  0
    2.0078    2.1707   -3.0530 O   0  0  0  0  0  0  0  0  0  0  0  0
    3.8660    3.3332   -2.1309 C   0  0  0  0  0  0  0  0  0  0  0  0
    4.1739    4.0291   -3.3013 C   0  0  0  0  0  0  0  0  0  0  0  0
    5.0408    5.1176   -3.2537 C   0  0  0  0  0  0  0  0  0  0  0  0
    5.5981    5.5081   -2.0363 C   0  0  0  0  0  0  0  0  0  0  0  0
    5.2751    4.8216   -0.8641 C   0  0  0  0  0  0  0  0  0  0  0  0
    4.4043    3.7366   -0.9084 C   0  0  0  0  0  0  0  0  0  0  0  0
    6.5363    6.6891   -1.9761 C   0  0  0  0  0  0  0  0  0  0  0  0
    5.8536    7.9336   -1.5879 N   0  0  0  0  0  0  0  0  0  0  0  0
    5.0158    8.8311   -2.8338 S   0  0  0  0  0  0  0  0  0  0  0  0
    5.0493    8.0477   -4.0502 O   0  0  0  0  0  0  0  0  0  0  0  0
    3.7813    9.2438   -2.2144 O   0  0  0  0  0  0  0  0  0  0  0  0
    6.0505   10.2220   -3.0806 C   0  0  0  0  0  0  0  0  0  0  0  0
    6.3213   11.0935   -2.0375 C   0  0  0  0  0  0  0  0  0  0  0  0
    7.1703   12.1907   -2.2402 C   0  0  0  0  0  0  0  0  0  0  0  0
    7.7258   12.3937   -3.5209 C   0  0  0  0  0  0  0  0  0  0  0  0
    7.4373   11.5170   -4.5851 C   0  0  0  0  0  0  0  0  0  0  0  0
    6.6059   10.4393   -4.3548 C   0  0  0  0  0  0  0  0  0  0  0  0
    8.5453   13.4054   -3.8074 O   0  0  0  0  0  0  0  0  0  0  0  0
    7.4943   13.1167   -1.1680 C   0  0  0  0  0  0  0  0  0  0  0  0
    8.2257   14.0862   -1.2490 O   0  0  0  0  0  0  0  0  0  0  0  0
    6.8987   12.8140    0.0061 O   0  0  0  0  0  0  0  0  0  0  0  0
   -0.4131   -0.0027    1.0198 H   0  0  0  0  0  0  0  0  0  0  0  0
   -0.3990   -0.8915   -0.5203 H   0  0  0  0  0  0  0  0  0  0  0  0
   -0.4098    0.8783   -0.5234 H   0  0  0  0  0  0  0  0  0  0  0  0
    3.5473   -1.5571   -0.6485 H   0  0  0  0  0  0  0  0  0  0  0  0
    3.7057   -1.2149   -2.3742 H   0  0  0  0  0  0  0  0  0  0  0  0
    2.1429   -4.3476   -2.3495 H   0  0  0  0  0  0  0  0  0  0  0  0
    3.8338    1.1284   -0.6775 H   0  0  0  0  0  0  0  0  0  0  0  0
    3.7194    3.7259   -4.2488 H   0  0  0  0  0  0  0  0  0  0  0  0
    5.2606    5.6829   -4.1666 H   0  0  0  0  0  0  0  0  0  0  0  0
    5.6987    5.1348    0.0883 H   0  0  0  0  0  0  0  0  0  0  0  0
    4.1388    3.2235    0.0156 H   0  0  0  0  0  0  0  0  0  0  0  0
    7.0630    6.8263   -2.9510 H   0  0  0  0  0  0  0  0  0  0  0  0
    7.3474    6.5067   -1.2276 H   0  0  0  0  0  0  0  0  0  0  0  0
    5.3143    7.8144   -0.7280 H   0  0  0  0  0  0  0  0  0  0  0  0
    5.8837   10.9472   -1.0378 H   0  0  0  0  0  0  0  0  0  0  0  0
    7.8758   11.7081   -5.5627 H   0  0  0  0  0  0  0  0  0  0  0  0
    6.3793    9.7488   -5.1823 H   0  0  0  0  0  0  0  0  0  0  0  0
    8.7134   14.0006   -2.9983 H   0  0  0  0  0  0  0  0  0  0  0  0
    7.1178   13.4601    0.7307 H   0  0  0  0  0  0  0  0  0  0  0  0
  1  2  1  0  0  0  0
  1 34  1  0  0  0  0
  2  3  2  0  0  0  0
  4  5  1  6  0  0  0
  4  2  1  0  0  0  0
  6  4  1  0  0  0  0
  6 37  1  0  0  0  0
  7  6  1  0  0  0  0
  8  7  2  0  0  0  0
  9  7  1  0  0  0  0
 10  4  1  0  0  0  0
 10 40  1  0  0  0  0
 11 13  1  0  0  0  0
 11 10  1  0  0  0  0
 12 11  2  0  0  0  0
 13 18  2  0  0  0  0
 14 15  2  0  0  0  0
 14 13  1  0  0  0  0
 15 16  1  0  0  0  0
 16 19  1  0  0  0  0
 16 17  2  0  0  0  0
 17 43  1  0  0  0  0
 18 17  1  0  0  0  0
 18 44  1  0  0  0  0
 19 20  1  0  0  0  0
 19 46  1  0  0  0  0
 20 47  1  0  0  0  0
 21 23  2  0  0  0  0
 21 20  1  0  0  0  0
 22 21  2  0  0  0  0
 24 21  1  0  0  0  0
 24 25  2  0  0  0  0
 25 48  1  0  0  0  0
 26 25  1  0  0  0  0
 26 31  1  0  0  0  0
 27 26  2  0  0  0  0
 28 29  2  0  0  0  0
 28 27  1  0  0  0  0
 29 24  1  0  0  0  0
 30 27  1  0  0  0  0
 30 51  1  0  0  0  0
 31 33  1  0  0  0  0
 32 31  2  0  0  0  0
 33 52  1  0  0  0  0
 35  1  1  0  0  0  0
 36  1  1  0  0  0  0
 38  6  1  0  0  0  0
 39  9  1  0  0  0  0
 41 14  1  0  0  0  0
 42 15  1  0  0  0  0
 45 19  1  0  0  0  0
 49 28  1  0  0  0  0
 50 29  1  0  0  0  0
M  END
$$$$
