52
rmsd100.gzmat
C          0.00000        0.00000        0.00000
C          1.49090        0.00000        0.00000
O          2.15630        0.00000        1.00190
C          2.15520       -0.00410       -1.38900
H          1.52910        0.62540       -2.08690
C          2.18930       -1.46360       -1.89480
C          1.31840       -1.64770       -3.10350
O          0.46810       -0.88330       -3.50560
O          1.59390       -2.79980       -3.71220
N          3.49270        0.56610       -1.28460
C          4.16820        1.13840       -2.35200
O          5.28090        1.58340       -2.17040
C          3.46900        1.12930       -3.66600
C          2.43540        2.03010       -3.91670
C          1.66620        1.88050       -5.06720
C          1.94870        0.84690       -5.96170
C          3.07100        0.03890       -5.77280
C          3.83180        0.17500       -4.61500
C          0.97530        0.53340       -7.06820
N          0.08450       -0.57380       -6.65400
S          0.40960       -2.16360       -7.27150
O          1.57790       -2.09930       -8.11620
O          0.38960       -3.02550       -6.09120
C         -0.98310       -2.53940       -8.24490
C         -2.20390       -2.80130       -7.63950
C         -3.33230       -3.07220       -8.42420
C         -3.19850       -3.08630       -9.82910
C         -1.95390       -2.83970      -10.44290
C         -0.86000       -2.56790       -9.64690
O         -4.21550       -3.32860      -10.65450
C         -4.63380       -3.33350       -7.83040
O         -5.66410       -3.57190       -8.43330
O         -4.63010       -3.28830       -6.48140
H         -0.38610        1.03220        0.02700
H         -0.40560       -0.50700        0.88880
H         -0.43340       -0.48000       -0.89070
H          1.88800       -2.18830       -1.10780
H          3.23610       -1.76510       -2.14040
H          1.09210       -2.94990       -4.59560
H          3.94960        0.50380       -0.37670
H          2.21460        2.82800       -3.20760
H          0.82750        2.55000       -5.24950
H          3.33580       -0.71620       -6.51730
H          4.69440       -0.47070       -4.44480
H          1.50770        0.30810       -8.02270
H          0.31600        1.40870       -7.29050
H         -0.07410       -0.55670       -5.63160
H         -2.31240       -2.80520       -6.54210
H         -1.88480       -2.86840      -11.52890
H          0.11520       -2.37820      -10.12100
H         -5.08430       -3.50340      -10.14990
H         -5.52360       -3.47550       -6.08380
