
     RDKit          3D

 52 53  0  0  0  0  0  0  0  0999 V2000
    0.2823    0.9492    0.3209 C   0  0  0  0  0  0  0  0  0  0  0  0
    1.7752    0.7982    0.1562 C   0  0  0  0  0  0  0  0  0  0  0  0
    2.5778    1.2503    0.9425 O   0  0  0  0  0  0  0  0  0  0  0  0
    2.2473    0.0164   -1.0849 C   0  0  2  0  0  0  0  0  0  0  0  0
    1.9556   -1.0335   -0.9120 H   0  0  0  0  0  0  0  0  0  0  0  0
    3.7635    0.1102   -1.2468 C   0  0  0  0  0  0  0  0  0  0  0  0
    4.2223    1.5210   -1.5357 C   0  0  0  0  0  0  0  0  0  0  0  0
    3.5511    2.3701   -2.0853 O   0  0  0  0  0  0  0  0  0  0  0  0
    5.4868    1.7396   -1.1617 O   0  0  0  0  0  0  0  0  0  0  0  0
    1.5421    0.4295   -2.2790 N   0  0  0  0  0  0  0  0  0  0  0  0
    0.5171   -0.2977   -2.8104 C   0  0  0  0  0  0  0  0  0  0  0  0
    0.0974   -1.3193   -2.2803 O   0  0  0  0  0  0  0  0  0  0  0  0
   -0.0792    0.2412   -4.0789 C   0  0  0  0  0  0  0  0  0  0  0  0
   -1.3239   -0.2698   -4.4789 C   0  0  0  0  0  0  0  0  0  0  0  0
   -1.9371    0.1825   -5.6432 C   0  0  0  0  0  0  0  0  0  0  0  0
   -1.3109    1.1523   -6.4444 C   0  0  0  0  0  0  0  0  0  0  0  0
   -0.0633    1.6515   -6.0520 C   0  0  0  0  0  0  0  0  0  0  0  0
    0.5518    1.2008   -4.8823 C   0  0  0  0  0  0  0  0  0  0  0  0
   -1.9749    1.6559   -7.7092 C   0  0  0  0  0  0  0  0  0  0  0  0
   -3.2802    2.2716   -7.4827 N   0  0  0  0  0  0  0  0  0  0  0  0
   -4.7029    1.4174   -7.7247 S   0  0  0  0  0  0  0  0  0  0  0  0
   -4.3906   -0.0152   -7.8243 O   0  0  0  0  0  0  0  0  0  0  0  0
   -5.6391    1.9492   -6.7333 O   0  0  0  0  0  0  0  0  0  0  0  0
   -5.2550    1.9263   -9.3409 C   0  0  0  0  0  0  0  0  0  0  0  0
   -5.9535    3.1182   -9.4705 C   0  0  0  0  0  0  0  0  0  0  0  0
   -6.3820    3.5388  -10.7385 C   0  0  0  0  0  0  0  0  0  0  0  0
   -6.1046    2.7378  -11.8846 C   0  0  0  0  0  0  0  0  0  0  0  0
   -5.4066    1.5245  -11.7181 C   0  0  0  0  0  0  0  0  0  0  0  0
   -4.9894    1.1199  -10.4604 C   0  0  0  0  0  0  0  0  0  0  0  0
   -6.4870    3.0888  -13.1059 O   0  0  0  0  0  0  0  0  0  0  0  0
   -7.1272    4.7918  -10.9263 C   0  0  0  0  0  0  0  0  0  0  0  0
   -7.5198    5.1920  -12.0169 O   0  0  0  0  0  0  0  0  0  0  0  0
   -7.3531    5.4846   -9.8066 O   0  0  0  0  0  0  0  0  0  0  0  0
   -0.0714    1.7439   -0.3568 H   0  0  0  0  0  0  0  0  0  0  0  0
    0.0512    1.2364    1.3547 H   0  0  0  0  0  0  0  0  0  0  0  0
   -0.2438    0.0272    0.0313 H   0  0  0  0  0  0  0  0  0  0  0  0
    4.0841   -0.5226   -2.0911 H   0  0  0  0  0  0  0  0  0  0  0  0
    4.2750   -0.2502   -0.3459 H   0  0  0  0  0  0  0  0  0  0  0  0
    5.7023    2.6575   -1.4035 H   0  0  0  0  0  0  0  0  0  0  0  0
    1.8083    1.3356   -2.6504 H   0  0  0  0  0  0  0  0  0  0  0  0
   -1.7912   -1.0324   -3.8539 H   0  0  0  0  0  0  0  0  0  0  0  0
   -2.9057   -0.2180   -5.9489 H   0  0  0  0  0  0  0  0  0  0  0  0
    0.4390    2.3997   -6.6713 H   0  0  0  0  0  0  0  0  0  0  0  0
    1.5360    1.5945   -4.6183 H   0  0  0  0  0  0  0  0  0  0  0  0
   -2.1267    0.8199   -8.4086 H   0  0  0  0  0  0  0  0  0  0  0  0
   -1.3187    2.3844   -8.2118 H   0  0  0  0  0  0  0  0  0  0  0  0
   -3.3736    2.8540   -6.6526 H   0  0  0  0  0  0  0  0  0  0  0  0
   -6.1810    3.7224   -8.5925 H   0  0  0  0  0  0  0  0  0  0  0  0
   -5.2174    0.9162  -12.6037 H   0  0  0  0  0  0  0  0  0  0  0  0
   -4.4686    0.1712  -10.3218 H   0  0  0  0  0  0  0  0  0  0  0  0
   -6.9669    3.9530  -13.0313 H   0  0  0  0  0  0  0  0  0  0  0  0
   -7.8527    6.2804  -10.0569 H   0  0  0  0  0  0  0  0  0  0  0  0
  1  2  1  0
  1 34  1  0
  1 35  1  0
  1 36  1  0
  2  3  2  0
  2  4  1  0
  4  5  1  1
  4  6  1  0
  4 10  1  0
  6  7  1  0
  6 37  1  0
  6 38  1  0
  7  8  2  0
  7  9  1  0
  9 39  1  0
 10 11  1  0
 10 40  1  0
 11 12  2  0
 11 13  1  0
 13 14  2  0
 13 18  1  0
 14 15  1  0
 14 41  1  0
 15 16  2  0
 15 42  1  0
 16 17  1  0
 16 19  1  0
 17 18  2  0
 17 43  1  0
 18 44  1  0
 19 20  1  0
 19 45  1  0
 19 46  1  0
 21 20  1  0
 20 47  1  0
 21 22  2  0
 21 23  2  0
 21 24  1  0
 24 25  2  0
 24 29  1  0
 25 26  1  0
 25 48  1  0
 26 27  2  0
 26 31  1  0
 27 28  1  0
 27 30  1  0
 28 29  2  0
 28 49  1  0
 29 50  1  0
 30 51  1  0
 31 32  2  0
 31 33  1  0
 33 52  1  0
M  END

