
     RDKit          3D

 52 53  0  0  0  0  0  0  0  0999 V2000
   -0.0426    0.5774   -2.5901 C   0  0  0  0  0  0  0  0  0  0  0  0
    0.5439    0.1439   -1.2719 C   0  0  0  0  0  0  0  0  0  0  0  0
   -0.0828    0.1129   -0.2364 O   0  0  0  0  0  0  0  0  0  0  0  0
    2.0385   -0.2404   -1.2963 C   0  0  2  0  0  0  0  0  0  0  0  0
    2.2848   -0.6726   -2.2746 H   0  0  0  0  0  0  0  0  0  0  0  0
    2.3904   -1.2008   -0.1670 C   0  0  0  0  0  0  0  0  0  0  0  0
    1.6738   -2.5334   -0.2196 C   0  0  0  0  0  0  0  0  0  0  0  0
    1.6472   -3.3349    0.6763 O   0  0  0  0  0  0  0  0  0  0  0  0
    1.0708   -2.7498   -1.4107 O   0  0  0  0  0  0  0  0  0  0  0  0
    2.8056    0.9909   -1.1937 N   0  0  0  0  0  0  0  0  0  0  0  0
    3.3874    1.5875   -2.2808 C   0  0  0  0  0  0  0  0  0  0  0  0
    3.3407    1.0893   -3.3964 O   0  0  0  0  0  0  0  0  0  0  0  0
    4.1005    2.8827   -2.0192 C   0  0  0  0  0  0  0  0  0  0  0  0
    3.8224    3.7132   -0.9255 C   0  0  0  0  0  0  0  0  0  0  0  0
    4.5183    4.9122   -0.7566 C   0  0  0  0  0  0  0  0  0  0  0  0
    5.4986    5.3064   -1.6745 C   0  0  0  0  0  0  0  0  0  0  0  0
    5.7672    4.4789   -2.7782 C   0  0  0  0  0  0  0  0  0  0  0  0
    5.0694    3.2879   -2.9511 C   0  0  0  0  0  0  0  0  0  0  0  0
    6.2570    6.6030   -1.4776 C   0  0  0  0  0  0  0  0  0  0  0  0
    7.7015    6.4268   -1.3550 N   0  0  0  0  0  0  0  0  0  0  0  0
    8.7242    6.6542   -2.6651 S   0  0  0  0  0  0  0  0  0  0  0  0
    9.8181    5.7034   -2.4619 O   0  0  0  0  0  0  0  0  0  0  0  0
    7.9229    6.6822   -3.8968 O   0  0  0  0  0  0  0  0  0  0  0  0
    9.3681    8.3008   -2.4444 C   0  0  0  0  0  0  0  0  0  0  0  0
   10.4369    8.4966   -1.5814 C   0  0  0  0  0  0  0  0  0  0  0  0
   10.9453    9.7894   -1.3864 C   0  0  0  0  0  0  0  0  0  0  0  0
   10.3673   10.8928   -2.0797 C   0  0  0  0  0  0  0  0  0  0  0  0
    9.2925   10.6591   -2.9616 C   0  0  0  0  0  0  0  0  0  0  0  0
    8.8000    9.3774   -3.1461 C   0  0  0  0  0  0  0  0  0  0  0  0
   10.8094   12.1350   -1.9319 O   0  0  0  0  0  0  0  0  0  0  0  0
   12.0777   10.0470   -0.4852 C   0  0  0  0  0  0  0  0  0  0  0  0
   12.5508   11.1614   -0.2903 O   0  0  0  0  0  0  0  0  0  0  0  0
   12.5685    8.9643    0.1241 O   0  0  0  0  0  0  0  0  0  0  0  0
   -0.9878    1.1138   -2.4348 H   0  0  0  0  0  0  0  0  0  0  0  0
   -0.2388   -0.3381   -3.1752 H   0  0  0  0  0  0  0  0  0  0  0  0
    0.6719    1.1738   -3.1766 H   0  0  0  0  0  0  0  0  0  0  0  0
    2.1456   -0.7601    0.8109 H   0  0  0  0  0  0  0  0  0  0  0  0
    3.4729   -1.4073   -0.1747 H   0  0  0  0  0  0  0  0  0  0  0  0
    0.6346   -3.6172   -1.3518 H   0  0  0  0  0  0  0  0  0  0  0  0
    2.8768    1.4284   -0.2838 H   0  0  0  0  0  0  0  0  0  0  0  0
    3.0416    3.4528   -0.2068 H   0  0  0  0  0  0  0  0  0  0  0  0
    4.2882    5.5536    0.0984 H   0  0  0  0  0  0  0  0  0  0  0  0
    6.5224    4.7868   -3.5042 H   0  0  0  0  0  0  0  0  0  0  0  0
    5.2550    2.6465   -3.8140 H   0  0  0  0  0  0  0  0  0  0  0  0
    5.8827    7.1228   -0.5811 H   0  0  0  0  0  0  0  0  0  0  0  0
    6.0821    7.2700   -2.3351 H   0  0  0  0  0  0  0  0  0  0  0  0
    8.0219    5.6282   -0.8106 H   0  0  0  0  0  0  0  0  0  0  0  0
   10.8907    7.6512   -1.0644 H   0  0  0  0  0  0  0  0  0  0  0  0
    8.8733   11.5125   -3.4964 H   0  0  0  0  0  0  0  0  0  0  0  0
    7.9835    9.1869   -3.8442 H   0  0  0  0  0  0  0  0  0  0  0  0
   11.5650   12.1084   -1.2907 H   0  0  0  0  0  0  0  0  0  0  0  0
   13.3084    9.2589    0.6822 H   0  0  0  0  0  0  0  0  0  0  0  0
  1  2  1  0
  1 34  1  0
  1 35  1  0
  1 36  1  0
  2  3  2  0
  2  4  1  0
  4  5  1  6
  4  6  1  0
  4 10  1  0
  6  7  1  0
  6 37  1  0
  6 38  1  0
  7  8  2  0
  7  9  1  0
  9 39  1  0
 10 11  1  0
 10 40  1  0
 11 12  2  0
 11 13  1  0
 13 14  2  0
 13 18  1  0
 14 15  1  0
 14 41  1  0
 15 16  2  0
 15 42  1  0
 16 17  1  0
 16 19  1  0
 17 18  2  0
 17 43  1  0
 18 44  1  0
 19 20  1  0
 19 45  1  0
 19 46  1  0
 21 20  1  0
 20 47  1  0
 21 22  2  0
 21 23  2  0
 21 24  1  0
 24 25  2  0
 24 29  1  0
 25 26  1  0
 25 48  1  0
 26 27  2  0
 26 31  1  0
 27 28  1  0
 27 30  1  0
 28 29  2  0
 28 49  1  0
 29 50  1  0
 30 51  1  0
 31 32  2  0
 31 33  1  0
 33 52  1  0
M  END

