rmsd213.gzmat
 OpenBabel08211713423D

 52 53  0  0  1  0  0  0  0  0999 V2000
    0.0000    0.0000    0.0000 C   0  0  0  0  0  0  0  0  0  0  0  0
    1.4872    0.0000    0.0000 C   0  0  0  0  0  0  0  0  0  0  0  0
    2.1576    0.0000    1.0002 O   0  0  0  0  0  0  0  0  0  0  0  0
    2.1917    0.0423   -1.3749 C   0  0  2  0  0  0  0  0  0  0  0  0
    1.4398    0.0521   -2.2146 H   0  0  0  0  0  0  0  0  0  0  0  0
    3.1227   -1.1769   -1.5127 C   0  0  0  0  0  0  0  0  0  0  0  0
    2.4112   -2.4584   -1.7852 C   0  0  0  0  0  0  0  0  0  0  0  0
    2.8944   -3.5211   -2.0701 O   0  0  0  0  0  0  0  0  0  0  0  0
    1.0613   -2.3241   -1.6728 O   0  0  0  0  0  0  0  0  0  0  0  0
    2.9827    1.2699   -1.4002 N   0  0  0  0  0  0  0  0  0  0  0  0
    2.8253    2.1870   -2.4259 C   0  0  0  0  0  0  0  0  0  0  0  0
    2.0351    1.9821   -3.3238 O   0  0  0  0  0  0  0  0  0  0  0  0
    3.6980    3.3885   -2.3551 C   0  0  0  0  0  0  0  0  0  0  0  0
    4.3193    3.8069   -3.5321 C   0  0  0  0  0  0  0  0  0  0  0  0
    5.1404    4.9310   -3.5157 C   0  0  0  0  0  0  0  0  0  0  0  0
    5.3332    5.6365   -2.3270 C   0  0  0  0  0  0  0  0  0  0  0  0
    4.6970    5.2229   -1.1560 C   0  0  0  0  0  0  0  0  0  0  0  0
    3.8736    4.1004   -1.1698 C   0  0  0  0  0  0  0  0  0  0  0  0
    6.2280    6.8522   -2.3139 C   0  0  0  0  0  0  0  0  0  0  0  0
    5.4841    8.1095   -2.4920 N   0  0  0  0  0  0  0  0  0  0  0  0
    4.8965    8.9424   -1.0735 S   0  0  0  0  0  0  0  0  0  0  0  0
    3.6137    9.4740   -1.4620 O   0  0  0  0  0  0  0  0  0  0  0  0
    5.0562    8.0510    0.0560 O   0  0  0  0  0  0  0  0  0  0  0  0
    6.0420   10.2506   -0.8804 C   0  0  0  0  0  0  0  0  0  0  0  0
    6.0062   11.3453   -1.7302 C   0  0  0  0  0  0  0  0  0  0  0  0
    6.9446   12.3769   -1.5864 C   0  0  0  0  0  0  0  0  0  0  0  0
    7.9086   12.2831   -0.5607 C   0  0  0  0  0  0  0  0  0  0  0  0
    7.9337   11.1782    0.3132 C   0  0  0  0  0  0  0  0  0  0  0  0
    7.0010   10.1743    0.1461 C   0  0  0  0  0  0  0  0  0  0  0  0
    8.8415   13.2118   -0.3509 O   0  0  0  0  0  0  0  0  0  0  0  0
    6.9521   13.5336   -2.4670 C   0  0  0  0  0  0  0  0  0  0  0  0
    7.7308   14.4682   -2.4221 O   0  0  0  0  0  0  0  0  0  0  0  0
    5.9809   13.5043   -3.4048 O   0  0  0  0  0  0  0  0  0  0  0  0
   -0.4067   -0.8001   -0.6391 H   0  0  0  0  0  0  0  0  0  0  0  0
   -0.3987    0.9522   -0.3830 H   0  0  0  0  0  0  0  0  0  0  0  0
   -0.4084   -0.1450    1.0112 H   0  0  0  0  0  0  0  0  0  0  0  0
    3.7449   -1.2955   -0.5920 H   0  0  0  0  0  0  0  0  0  0  0  0
    3.8574   -0.9957   -2.3346 H   0  0  0  0  0  0  0  0  0  0  0  0
    0.5673   -3.1636   -1.8485 H   0  0  0  0  0  0  0  0  0  0  0  0
    3.6336    1.4121   -0.6410 H   0  0  0  0  0  0  0  0  0  0  0  0
    4.1512    3.2565   -4.4605 H   0  0  0  0  0  0  0  0  0  0  0  0
    5.6280    5.2561   -4.4328 H   0  0  0  0  0  0  0  0  0  0  0  0
    4.8360    5.7882   -0.2256 H   0  0  0  0  0  0  0  0  0  0  0  0
    3.3617    3.7955   -0.2567 H   0  0  0  0  0  0  0  0  0  0  0  0
    6.9785    6.7971   -3.1425 H   0  0  0  0  0  0  0  0  0  0  0  0
    6.8301    6.8793   -1.3739 H   0  0  0  0  0  0  0  0  0  0  0  0
    4.8083    8.0453   -3.2548 H   0  0  0  0  0  0  0  0  0  0  0  0
    5.2473   11.4309   -2.5250 H   0  0  0  0  0  0  0  0  0  0  0  0
    8.6852   11.1413    1.0996 H   0  0  0  0  0  0  0  0  0  0  0  0
    7.0114    9.3122    0.8308 H   0  0  0  0  0  0  0  0  0  0  0  0
    8.7680   13.9827   -1.0130 H   0  0  0  0  0  0  0  0  0  0  0  0
    5.9891   14.3042   -3.9970 H   0  0  0  0  0  0  0  0  0  0  0  0
  1  2  1  0  0  0  0
  1 36  1  0  0  0  0
  2  3  2  0  0  0  0
  4  5  1  6  0  0  0
  4  2  1  0  0  0  0
  6  4  1  0  0  0  0
  6 37  1  0  0  0  0
  7  9  1  0  0  0  0
  7  6  1  0  0  0  0
  8  7  2  0  0  0  0
 10  4  1  0  0  0  0
 10 40  1  0  0  0  0
 11 13  1  0  0  0  0
 11 10  1  0  0  0  0
 12 11  2  0  0  0  0
 13 18  2  0  0  0  0
 14 15  2  0  0  0  0
 14 13  1  0  0  0  0
 15 16  1  0  0  0  0
 16 19  1  0  0  0  0
 16 17  2  0  0  0  0
 17 43  1  0  0  0  0
 18 17  1  0  0  0  0
 18 44  1  0  0  0  0
 19 46  1  0  0  0  0
 20 19  1  0  0  0  0
 20 21  1  0  0  0  0
 21 24  1  0  0  0  0
 21 23  2  0  0  0  0
 22 21  2  0  0  0  0
 24 29  2  0  0  0  0
 25 26  2  0  0  0  0
 25 24  1  0  0  0  0
 26 27  1  0  0  0  0
 27 30  1  0  0  0  0
 27 28  2  0  0  0  0
 28 49  1  0  0  0  0
 29 28  1  0  0  0  0
 29 50  1  0  0  0  0
 31 32  2  0  0  0  0
 31 26  1  0  0  0  0
 33 31  1  0  0  0  0
 34  1  1  0  0  0  0
 35  1  1  0  0  0  0
 38  6  1  0  0  0  0
 39  9  1  0  0  0  0
 41 14  1  0  0  0  0
 42 15  1  0  0  0  0
 45 19  1  0  0  0  0
 47 20  1  0  0  0  0
 48 25  1  0  0  0  0
 51 30  1  0  0  0  0
 52 33  1  0  0  0  0
M  END
$$$$
