52

C          0.92020       -0.82050        0.99390
C          2.17930       -0.72370        0.18200
O          3.27060       -1.06930        0.58160
C          2.07700       -0.08940       -1.21940
H          1.03890        0.17060       -1.46210
C          2.62450       -1.02800       -2.30100
C          1.80650       -2.28610       -2.43590
O          0.94030       -2.63580       -1.66740
O          2.15280       -3.00690       -3.51380
N          2.83630        1.14650       -1.15430
C          2.59130        2.17740       -2.02250
O          1.69420        2.12380       -2.85110
C          3.49010        3.37320       -1.89350
C          3.54010        4.26880       -2.97340
C          4.35110        5.39820       -2.92210
C          5.12240        5.66750       -1.77860
C          5.05560        4.78520       -0.69390
C          4.24930        3.64640       -0.74790
C          6.00030        6.90000       -1.71030
N          5.27480        8.15260       -1.90360
S          5.25600        8.93010       -3.38920
O          5.70040        7.99200       -4.42960
O          3.95910        9.60570       -3.44580
C          6.52790       10.17070       -3.25270
C          6.24030       11.36210       -2.60180
C          7.23500       12.34300       -2.47530
C          8.53210       12.11490       -3.02110
C          8.78870       10.90100       -3.68990
C          7.79730        9.94030       -3.80880
O          9.50830       13.00910       -2.92960
C          6.97790       13.62150       -1.79690
O          7.82010       14.50350       -1.66770
O          5.73950       13.76390       -1.31670
H          1.13740       -1.21580        1.99450
H          0.21760       -1.48010        0.46150
H          0.44980        0.17430        1.06770
H          3.65820       -1.31930       -2.04860
H          2.65430       -0.50810       -3.26990
H          1.59320       -3.80300       -3.51530
H          3.71630        1.10390       -0.65220
H          2.92900        4.05240       -3.85110
H          4.39900        6.08240       -3.77160
H          5.63480        4.99410        0.20970
H          4.19360        2.99310        0.12570
H          6.77420        6.84820       -2.49120
H          6.52170        6.93380       -0.74020
H          4.35370        8.22080       -1.47460
H          5.24400       11.54420       -2.19900
H          9.78180       10.74990       -4.11540
H          7.98240        9.00780       -4.34420
H          9.14880       13.79440       -2.44310
H          5.69160       14.64150       -0.90050
