52

C          0.88890       -0.43580        0.71650
C          2.21430       -0.40600        0.01230
O          3.25740       -0.76260        0.51710
C          2.25180        0.17020       -1.41740
H          1.24950        0.46510       -1.75310
C          2.83780       -0.83770       -2.41370
C          1.97510       -2.06310       -2.57030
O          1.03260       -2.34290       -1.86600
O          2.37610       -2.84150       -3.58740
N          3.06410        1.37140       -1.34160
C          2.94880        2.36770       -2.27300
O          2.12680        2.31550       -3.17670
C          3.89140        3.52670       -2.11850
C          4.57350        3.81580       -0.92870
C          5.42580        4.91890       -0.85460
C          5.61730        5.74970       -1.96510
C          4.92050        5.46730       -3.15060
C          4.06370        4.37340       -3.22420
C          6.57320        6.91770       -1.89290
N          6.00570        8.09950       -2.53410
S          7.04100        9.39170       -2.85620
O          6.15150       10.53170       -3.07800
O          8.12330        9.43980       -1.86730
C          7.75910        8.89120       -4.40660
C          9.09730        8.53840       -4.46130
C          9.66350        8.14780       -5.68720
C          8.86100        8.12340       -6.86260
C          7.50150        8.49840       -6.77520
C          6.95710        8.88140       -5.56360
O          9.34200        7.76320       -8.04440
C         11.07630        7.76170       -5.79970
O         11.60470        7.41780       -6.85200
O         11.76460        7.80830       -4.65600
H          0.44930        0.57570        0.71850
H          1.00820       -0.80210        1.74420
H          0.21050       -1.09010        0.14780
H          3.83300       -1.16350       -2.06670
H          2.97030       -0.35980       -3.39560
H          1.78230       -3.61220       -3.60720
H          3.89110        1.31340       -0.75740
H          4.42010        3.20440       -0.03670
H          5.94150        5.14250        0.08280
H          5.05140        6.12510       -4.01220
H          3.50700        4.14860       -4.13540
H          7.49860        6.66460       -2.43930
H          6.87390        7.10890       -0.84860
H          5.15250        8.46420       -2.10890
H          9.70640        8.56960       -3.55810
H          6.90640        8.48180       -7.68940
H          5.91070        9.18380       -5.49320
H         10.30120        7.54170       -7.92030
H         12.67690        7.53880       -4.85790
