52

C         -0.00860       -0.02960        0.04830
C          1.48790        0.17770        0.00660
O          2.15380        0.36510        0.99940
C          2.12180        0.14980       -1.38480
H          1.46730        0.73120       -2.05130
C          2.11620       -1.31050       -1.92020
C          1.34630       -1.51430       -3.21150
O          0.46750       -0.76330       -3.60290
O          1.71470       -2.61980       -3.82770
N          3.44250        0.73650       -1.30430
C          4.28540        0.98950       -2.35780
O          5.48140        1.16620       -2.22120
C          3.58660        1.02410       -3.69200
C          2.58740        1.97170       -3.94060
C          1.80500        1.87730       -5.08940
C          1.99990        0.82870       -5.99460
C          3.06490       -0.06140       -5.79280
C          3.86190        0.04370       -4.65400
C          0.95180        0.53400       -7.04070
N          0.10060       -0.58100       -6.58640
S          0.36090       -2.11060       -7.18130
O          1.54990       -2.11680       -8.04010
O          0.26240       -3.02140       -6.01470
C         -1.04050       -2.47800       -8.20920
C         -2.22870       -2.89170       -7.62360
C         -3.34340       -3.15760       -8.43180
C         -3.24950       -3.00610       -9.84630
C         -2.02420       -2.59540      -10.41060
C         -0.92960       -2.33610       -9.60290
O         -4.27260       -3.24440      -10.65520
C         -4.62340       -3.60230       -7.86060
O         -5.61870       -3.84430       -8.53410
O         -4.63170       -3.72660       -6.53100
H         -0.48020        0.96750        0.00530
H         -0.30260       -0.50310        0.99460
H         -0.37960       -0.59850       -0.81580
H          1.67620       -2.01510       -1.19230
H          3.14760       -1.65800       -2.06580
H          1.16280       -2.77380       -4.64450
H          3.87160        0.70400       -0.38030
H          2.38870        2.75380       -3.20380
H          0.99050        2.58800       -5.25290
H          3.22150       -0.87870       -6.50070
H          4.66660       -0.67270       -4.47500
H          1.40340        0.24950       -8.00050
H          0.31280        1.41360       -7.21190
H         -0.02560       -0.62740       -5.56410
H         -2.29950       -3.02220       -6.54410
H         -1.96600       -2.49850      -11.49560
H          0.02610       -2.03590      -10.03530
H         -5.03910       -3.52700      -10.09320
H         -5.52090       -4.02580       -6.27470
