52
rmsd19.gzmat
C          0.00000        0.00000        0.00000
C          1.49180        0.00000        0.00000
O          2.15030        0.00000        1.00640
C          2.16930       -0.01960       -1.38400
H          1.58850        0.65830       -2.07500
C          2.12860       -1.46570       -1.92590
C          1.35030       -1.55400       -3.20770
O          0.54780       -0.74930       -3.62760
O          1.64730       -2.67780       -3.85930
N          3.53680        0.46810       -1.25000
C          4.25520        1.05890       -2.27890
O          5.38610        1.43560       -2.05830
C          3.58020        1.15230       -3.60120
C          2.57200        2.09270       -3.80730
C          1.81770        2.03650       -4.97540
C          2.09130        1.05700       -5.93180
C          3.19540        0.21640       -5.78260
C          3.93980        0.25700       -4.60660
C          1.13010        0.84240       -7.07200
N          0.23110       -0.29710       -6.77700
S          0.64770       -1.84660       -7.44140
O          1.86210       -1.68920       -8.20010
O          0.59600       -2.78360       -6.31760
C         -0.67620       -2.24500       -8.50370
C         -0.96100       -1.44950       -9.60190
C         -2.02360       -1.77250      -10.46430
C         -2.77510       -2.92960      -10.19370
C         -2.48680       -3.74200       -9.07600
C         -1.44820       -3.39200       -8.23890
O         -3.79090       -3.36350      -10.94260
C         -2.24670       -0.86640      -11.58350
O         -1.58620        0.08090      -11.91960
O         -3.37170       -1.17630      -12.30280
H         -0.40010        0.37980        0.95340
H         -0.39750       -1.01880       -0.12550
H         -0.43040        0.60950       -0.80740
H          1.69980       -2.17840       -1.19000
H          3.16540       -1.84760       -2.09070
H          1.20870       -2.76920       -4.78200
H          3.97470        0.35780       -0.33650
H          2.35970        2.84800       -3.05110
H          0.99720        2.73570       -5.12470
H          3.46080       -0.49030       -6.57440
H          4.78550       -0.41790       -4.46660
H          1.67540        0.70290       -8.03630
H          0.47300        1.73480       -7.22280
H          0.00650       -0.33430       -5.76840
H         -0.36720       -0.54880       -9.83000
H         -3.09370       -4.62890       -8.89950
H         -1.22740       -4.01960       -7.36080
H         -3.98710       -2.75550      -11.71970
H         -3.51750       -0.60400      -13.09510
