52
rmsd109.gzmat
C          0.00000        0.00000        0.00000
C          1.48500        0.00000        0.00000
O          2.16090        0.00000        0.99680
C          2.18350        0.00750       -1.38040
H          1.42710        0.13210       -2.20910
C          2.94970       -1.31640       -1.55950
C          2.01460       -2.43690       -1.86760
O          0.81150       -2.43240       -1.89020
O          2.71440       -3.56690       -2.13930
N          3.12160        1.12500       -1.39220
C          2.91390        2.19800       -2.24480
O          2.00780        2.17070       -3.05300
C          3.86600        3.33320       -2.13090
C          4.17390        4.02910       -3.30130
C          5.04080        5.11760       -3.25370
C          5.59810        5.50810       -2.03630
C          5.27510        4.82160       -0.86410
C          4.40430        3.73660       -0.90840
C          6.53630        6.68910       -1.97610
N          5.85360        7.93360       -1.58790
S          5.01580        8.83110       -2.83380
O          5.04930        8.04770       -4.05020
O          3.78130        9.24380       -2.21440
C          6.05050       10.22200       -3.08060
C          6.32130       11.09350       -2.03750
C          7.17030       12.19070       -2.24020
C          7.72580       12.39370       -3.52090
C          7.43730       11.51700       -4.58510
C          6.60590       10.43930       -4.35480
O          8.54530       13.40540       -3.80740
C          7.49430       13.11670       -1.16800
O          8.22570       14.08620       -1.24900
O          6.89870       12.81400        0.00610
H         -0.41310       -0.00270        1.01980
H         -0.39900       -0.89150       -0.52030
H         -0.40980        0.87830       -0.52340
H          3.54730       -1.55710       -0.64850
H          3.70570       -1.21490       -2.37420
H          2.14290       -4.34760       -2.34950
H          3.83380        1.12840       -0.67750
H          3.71940        3.72590       -4.24880
H          5.26060        5.68290       -4.16660
H          5.69870        5.13480        0.08830
H          4.13880        3.22350        0.01560
H          7.06300        6.82630       -2.95100
H          7.34740        6.50670       -1.22760
H          5.31430        7.81440       -0.72800
H          5.88370       10.94720       -1.03780
H          7.87580       11.70810       -5.56270
H          6.37930        9.74880       -5.18230
H          8.71340       14.00060       -2.99830
H          7.11780       13.46010        0.73070
