36
rmsd30.gzmat
O          0.00000        0.00000        0.00000
C          1.19910        0.00000        0.00000
N          2.00670        0.00000        1.15090
O          1.50050       -0.03450        2.42770
C          0.81750        1.17070        2.79750
C          1.73010        2.34560        2.92760
C          3.00810        2.17910        3.46260
C          3.86130        3.27380        3.57810
C          3.43610        4.53650        3.16940
C          2.15680        4.70340        2.64140
C          1.30410        3.60880        2.51670
C          3.39480        0.12870        0.91520
O          4.22780        0.16570        1.77250
C          3.56940        0.17940       -0.61390
C          2.14530        0.00580       -1.18650
C          4.21740        1.52470       -0.98150
C          5.72600        1.27550       -0.83430
C          5.93920       -0.20840       -1.18830
C          4.56690       -0.90130       -1.06160
H          0.40720        0.85330        3.78200
H         -0.03080        1.35060        2.10910
H          3.34620        1.18640        3.77070
H          4.86120        3.14020        3.98690
H          4.10170        5.39130        3.26400
H          1.82320        5.68940        2.32650
H          0.30830        3.74300        2.09900
H          1.87360        0.81430       -1.89040
H          2.03580       -0.93380       -1.76150
H          3.87020        2.35200       -0.34110
H          3.96810        1.80730       -2.01940
H          6.31960        1.94240       -1.47540
H          6.04550        1.47220        0.20690
H          6.33760       -0.31600       -2.20970
H          6.68130       -0.66900       -0.51540
H          4.26660       -1.34210       -2.02690
H          4.60750       -1.73760       -0.34210
