rmsd30.gzmat
 OpenBabel08211713403D

 36 38  0  0  0  0  0  0  0  0999 V2000
    0.0000    0.0000    0.0000 O   0  0  0  0  0  0  0  0  0  0  0  0
    1.1991    0.0000    0.0000 C   0  0  0  0  0  0  0  0  0  0  0  0
    2.0067    0.0000    1.1509 N   0  0  0  0  0  0  0  0  0  0  0  0
    1.5005   -0.0345    2.4277 O   0  0  0  0  0  0  0  0  0  0  0  0
    0.8175    1.1707    2.7975 C   0  0  0  0  0  0  0  0  0  0  0  0
    1.7301    2.3456    2.9276 C   0  0  0  0  0  0  0  0  0  0  0  0
    3.0081    2.1791    3.4626 C   0  0  0  0  0  0  0  0  0  0  0  0
    3.8613    3.2738    3.5781 C   0  0  0  0  0  0  0  0  0  0  0  0
    3.4361    4.5365    3.1694 C   0  0  0  0  0  0  0  0  0  0  0  0
    2.1568    4.7034    2.6414 C   0  0  0  0  0  0  0  0  0  0  0  0
    1.3041    3.6088    2.5167 C   0  0  0  0  0  0  0  0  0  0  0  0
    3.3948    0.1287    0.9152 C   0  0  0  0  0  0  0  0  0  0  0  0
    4.2278    0.1657    1.7725 O   0  0  0  0  0  0  0  0  0  0  0  0
    3.5694    0.1794   -0.6139 C   0  0  0  0  0  0  0  0  0  0  0  0
    2.1453    0.0058   -1.1865 C   0  0  0  0  0  0  0  0  0  0  0  0
    4.2174    1.5247   -0.9815 C   0  0  0  0  0  0  0  0  0  0  0  0
    5.7260    1.2755   -0.8343 C   0  0  0  0  0  0  0  0  0  0  0  0
    5.9392   -0.2084   -1.1883 C   0  0  0  0  0  0  0  0  0  0  0  0
    4.5669   -0.9013   -1.0616 C   0  0  0  0  0  0  0  0  0  0  0  0
    0.4072    0.8533    3.7820 H   0  0  0  0  0  0  0  0  0  0  0  0
   -0.0308    1.3506    2.1091 H   0  0  0  0  0  0  0  0  0  0  0  0
    3.3462    1.1864    3.7707 H   0  0  0  0  0  0  0  0  0  0  0  0
    4.8612    3.1402    3.9869 H   0  0  0  0  0  0  0  0  0  0  0  0
    4.1017    5.3913    3.2640 H   0  0  0  0  0  0  0  0  0  0  0  0
    1.8232    5.6894    2.3265 H   0  0  0  0  0  0  0  0  0  0  0  0
    0.3083    3.7430    2.0990 H   0  0  0  0  0  0  0  0  0  0  0  0
    1.8736    0.8143   -1.8904 H   0  0  0  0  0  0  0  0  0  0  0  0
    2.0358   -0.9338   -1.7615 H   0  0  0  0  0  0  0  0  0  0  0  0
    3.8702    2.3520   -0.3411 H   0  0  0  0  0  0  0  0  0  0  0  0
    3.9681    1.8073   -2.0194 H   0  0  0  0  0  0  0  0  0  0  0  0
    6.3196    1.9424   -1.4754 H   0  0  0  0  0  0  0  0  0  0  0  0
    6.0455    1.4722    0.2069 H   0  0  0  0  0  0  0  0  0  0  0  0
    6.3376   -0.3160   -2.2097 H   0  0  0  0  0  0  0  0  0  0  0  0
    6.6813   -0.6690   -0.5154 H   0  0  0  0  0  0  0  0  0  0  0  0
    4.2666   -1.3421   -2.0269 H   0  0  0  0  0  0  0  0  0  0  0  0
    4.6075   -1.7376   -0.3421 H   0  0  0  0  0  0  0  0  0  0  0  0
  1  2  2  0  0  0  0
  2  3  1  0  0  0  0
  3  4  1  0  0  0  0
  4  5  1  0  0  0  0
  5  6  1  0  0  0  0
  5 20  1  0  0  0  0
  6  7  2  0  0  0  0
  7  8  1  0  0  0  0
  7 22  1  0  0  0  0
  8 23  1  0  0  0  0
  9 24  1  0  0  0  0
  9  8  2  0  0  0  0
 10  9  1  0  0  0  0
 11 10  2  0  0  0  0
 11  6  1  0  0  0  0
 12  3  1  0  0  0  0
 12 13  2  0  0  0  0
 14 12  1  0  0  0  0
 15 14  1  0  0  0  0
 15  2  1  0  0  0  0
 16 17  1  0  0  0  0
 16 14  1  0  0  0  0
 16 29  1  0  0  0  0
 17 32  1  0  0  0  0
 18 19  1  0  0  0  0
 18 17  1  0  0  0  0
 18 34  1  0  0  0  0
 19 14  1  0  0  0  0
 19 36  1  0  0  0  0
 21  5  1  0  0  0  0
 25 10  1  0  0  0  0
 26 11  1  0  0  0  0
 27 15  1  0  0  0  0
 28 15  1  0  0  0  0
 30 16  1  0  0  0  0
 31 17  1  0  0  0  0
 33 18  1  0  0  0  0
 35 19  1  0  0  0  0
M  END
$$$$
