36

O         -0.28770       -0.67250        0.28090
C          0.90980       -0.57680        0.22170
N          1.76460       -0.39890        1.31550
O          1.28020       -0.42140        2.58720
C          1.51460        0.81390        3.30800
C          1.29500        2.04780        2.47360
C          0.09500        2.23320        1.76940
C         -0.08330        3.36320        0.97060
C          0.92870        4.32550        0.87510
C          2.12430        4.14810        1.57520
C          2.30850        3.00800        2.36290
C          3.10150       -0.18240        1.00150
O          3.98760       -0.04710        1.81380
C          3.17300       -0.06630       -0.52190
C          1.82540       -0.64400       -0.98780
C          3.37130        1.42660       -0.89180
C          4.86330        1.69110       -0.64160
C          5.57410        0.32680       -0.86490
C          4.45000       -0.71070       -1.08770
H          2.53530        0.80160        3.71590
H          0.79230        0.74680        4.13510
H         -0.68340        1.46910        1.82250
H         -1.01680        3.49410        0.41820
H          0.78530        5.21060        0.25060
H          2.92200        4.89050        1.49750
H          3.25530        2.84990        2.88520
H          1.37420       -0.10330       -1.83100
H          1.91800       -1.70350       -1.28000
H          2.70380        2.09900       -0.33330
H          3.12800        1.53200       -1.96240
H          5.24920        2.48540       -1.29800
H          5.01190        2.02370        0.39520
H          6.26240        0.35220       -1.72320
H          6.16630        0.06230        0.02130
H          4.28830       -0.88680       -2.16390
H          4.66520       -1.68590       -0.62510
