36
rmsd9.gzmat
O          0.00000        0.00000        0.00000
C          1.19750        0.00000        0.00000
N          2.01460        0.00000        1.14850
O          1.45930        0.01690        2.40590
C          1.68680        1.24310        3.11190
C          1.00050        2.41960        2.50060
C         -0.26430        2.27340        1.93110
C         -0.90350        3.37420        1.36590
C         -0.28460        4.62290        1.37560
C          0.97850        4.76910        1.94660
C          1.62390        3.66860        2.50610
C          3.40070        0.07330        0.90250
O          4.23240        0.15850        1.76050
C          3.57610        0.03810       -0.62580
C          2.13990       -0.04220       -1.19000
C          4.33650        1.29950       -1.06530
C          5.82070        0.92840       -0.92180
C          5.90230       -0.58870       -1.17400
C          4.47290       -1.14800       -1.01880
H          2.77420        1.39970        3.25300
H          1.24270        0.96930        4.09490
H         -0.74530        1.29210        1.91480
H         -1.88800        3.25580        0.91690
H         -0.78790        5.48320        0.93970
H          1.46000        5.74390        1.95760
H          2.61170        3.78570        2.94680
H          1.91310        0.79080       -1.88200
H          1.96880       -0.96520       -1.77590
H          4.07150        2.18390       -0.46320
H          4.09820        1.55320       -2.11340
H          6.45580        1.49600       -1.61680
H          6.17760        1.16720        0.09800
H          6.29730       -0.80080       -2.18030
H          6.59580       -1.06730       -0.46250
H          4.13330       -1.60290       -1.96480
H          4.43890       -1.95170       -0.26300
