
     RDKit          3D

 36 38  0  0  0  0  0  0  0  0999 V2000
   -0.2877   -0.6725    0.2809 O   0  0  0  0  0  0  0  0  0  0  0  0
    0.9098   -0.5768    0.2217 C   0  0  0  0  0  0  0  0  0  0  0  0
    1.7646   -0.3989    1.3155 N   0  0  0  0  0  0  0  0  0  0  0  0
    1.2802   -0.4214    2.5872 O   0  0  0  0  0  0  0  0  0  0  0  0
    1.5146    0.8139    3.3080 C   0  0  0  0  0  0  0  0  0  0  0  0
    1.2950    2.0478    2.4736 C   0  0  0  0  0  0  0  0  0  0  0  0
    0.0950    2.2332    1.7694 C   0  0  0  0  0  0  0  0  0  0  0  0
   -0.0833    3.3632    0.9706 C   0  0  0  0  0  0  0  0  0  0  0  0
    0.9287    4.3255    0.8751 C   0  0  0  0  0  0  0  0  0  0  0  0
    2.1243    4.1481    1.5752 C   0  0  0  0  0  0  0  0  0  0  0  0
    2.3085    3.0080    2.3629 C   0  0  0  0  0  0  0  0  0  0  0  0
    3.1015   -0.1824    1.0015 C   0  0  0  0  0  0  0  0  0  0  0  0
    3.9876   -0.0471    1.8138 O   0  0  0  0  0  0  0  0  0  0  0  0
    3.1730   -0.0663   -0.5219 C   0  0  0  0  0  0  0  0  0  0  0  0
    1.8254   -0.6440   -0.9878 C   0  0  0  0  0  0  0  0  0  0  0  0
    3.3713    1.4266   -0.8918 C   0  0  0  0  0  0  0  0  0  0  0  0
    4.8633    1.6911   -0.6416 C   0  0  0  0  0  0  0  0  0  0  0  0
    5.5741    0.3268   -0.8649 C   0  0  0  0  0  0  0  0  0  0  0  0
    4.4500   -0.7107   -1.0877 C   0  0  0  0  0  0  0  0  0  0  0  0
    2.5353    0.8016    3.7159 H   0  0  0  0  0  0  0  0  0  0  0  0
    0.7923    0.7468    4.1351 H   0  0  0  0  0  0  0  0  0  0  0  0
   -0.6834    1.4691    1.8225 H   0  0  0  0  0  0  0  0  0  0  0  0
   -1.0168    3.4941    0.4182 H   0  0  0  0  0  0  0  0  0  0  0  0
    0.7853    5.2106    0.2506 H   0  0  0  0  0  0  0  0  0  0  0  0
    2.9220    4.8905    1.4975 H   0  0  0  0  0  0  0  0  0  0  0  0
    3.2553    2.8499    2.8852 H   0  0  0  0  0  0  0  0  0  0  0  0
    1.3742   -0.1033   -1.8310 H   0  0  0  0  0  0  0  0  0  0  0  0
    1.9180   -1.7035   -1.2800 H   0  0  0  0  0  0  0  0  0  0  0  0
    2.7038    2.0990   -0.3333 H   0  0  0  0  0  0  0  0  0  0  0  0
    3.1280    1.5320   -1.9624 H   0  0  0  0  0  0  0  0  0  0  0  0
    5.2492    2.4854   -1.2980 H   0  0  0  0  0  0  0  0  0  0  0  0
    5.0119    2.0237    0.3952 H   0  0  0  0  0  0  0  0  0  0  0  0
    6.2624    0.3522   -1.7232 H   0  0  0  0  0  0  0  0  0  0  0  0
    6.1663    0.0623    0.0213 H   0  0  0  0  0  0  0  0  0  0  0  0
    4.2883   -0.8868   -2.1639 H   0  0  0  0  0  0  0  0  0  0  0  0
    4.6652   -1.6859   -0.6251 H   0  0  0  0  0  0  0  0  0  0  0  0
  1  2  2  0
  2  3  1  0
  2 15  1  0
  3  4  1  0
  3 12  1  0
  4  5  1  0
  5  6  1  0
  5 20  1  0
  5 21  1  0
  6  7  2  0
  6 11  1  0
  7  8  1  0
  7 22  1  0
  8  9  2  0
  8 23  1  0
  9 10  1  0
  9 24  1  0
 10 11  2  0
 10 25  1  0
 11 26  1  0
 12 13  2  0
 14 12  1  0
 14 15  1  0
 14 16  1  0
 14 19  1  0
 15 27  1  0
 15 28  1  0
 16 17  1  0
 16 29  1  0
 16 30  1  0
 17 18  1  0
 17 31  1  0
 17 32  1  0
 18 19  1  0
 18 33  1  0
 18 34  1  0
 19 35  1  0
 19 36  1  0
M  END

