rmsd37.gzmat
 OpenBabel08211713403D

 36 38  0  0  0  0  0  0  0  0999 V2000
    0.0000    0.0000    0.0000 O   0  0  0  0  0  0  0  0  0  0  0  0
    1.1990    0.0000    0.0000 C   0  0  0  0  0  0  0  0  0  0  0  0
    2.0063    0.0000    1.1520 N   0  0  0  0  0  0  0  0  0  0  0  0
    1.5083    0.2588    2.4104 O   0  0  0  0  0  0  0  0  0  0  0  0
    0.7404   -0.8280    2.9385 C   0  0  0  0  0  0  0  0  0  0  0  0
    1.5612   -2.0206    3.3061 C   0  0  0  0  0  0  0  0  0  0  0  0
    2.8992   -1.8737    3.6717 C   0  0  0  0  0  0  0  0  0  0  0  0
    3.6536   -2.9937    4.0131 C   0  0  0  0  0  0  0  0  0  0  0  0
    3.0681   -4.2585    4.0091 C   0  0  0  0  0  0  0  0  0  0  0  0
    1.7268   -4.4031    3.6576 C   0  0  0  0  0  0  0  0  0  0  0  0
    0.9741   -3.2874    3.2991 C   0  0  0  0  0  0  0  0  0  0  0  0
    3.3980    0.0354    0.9156 C   0  0  0  0  0  0  0  0  0  0  0  0
    4.2313    0.1187    1.7699 O   0  0  0  0  0  0  0  0  0  0  0  0
    3.5778   -0.0533   -0.6115 C   0  0  0  0  0  0  0  0  0  0  0  0
    2.1438   -0.0404   -1.1867 C   0  0  0  0  0  0  0  0  0  0  0  0
    4.4421    1.1262   -1.0832 C   0  0  0  0  0  0  0  0  0  0  0  0
    5.8874    0.6335   -0.9120 C   0  0  0  0  0  0  0  0  0  0  0  0
    5.8379   -0.8818   -1.1792 C   0  0  0  0  0  0  0  0  0  0  0  0
    4.3769   -1.3243   -0.9544 C   0  0  0  0  0  0  0  0  0  0  0  0
   -0.0949   -1.0730    2.2530 H   0  0  0  0  0  0  0  0  0  0  0  0
    0.3197   -0.3265    3.8395 H   0  0  0  0  0  0  0  0  0  0  0  0
    3.3591   -0.8817    3.6792 H   0  0  0  0  0  0  0  0  0  0  0  0
    4.7010   -2.8769    4.2853 H   0  0  0  0  0  0  0  0  0  0  0  0
    3.6567   -5.1311    4.2824 H   0  0  0  0  0  0  0  0  0  0  0  0
    1.2661   -5.3885    3.6630 H   0  0  0  0  0  0  0  0  0  0  0  0
   -0.0698   -3.4063    3.0164 H   0  0  0  0  0  0  0  0  0  0  0  0
    1.9637    0.8327   -1.8421 H   0  0  0  0  0  0  0  0  0  0  0  0
    1.9330   -0.9254   -1.8154 H   0  0  0  0  0  0  0  0  0  0  0  0
    4.2491    2.0484   -0.5120 H   0  0  0  0  0  0  0  0  0  0  0  0
    4.2355    1.3630   -2.1419 H   0  0  0  0  0  0  0  0  0  0  0  0
    6.5840    1.1513   -1.5857 H   0  0  0  0  0  0  0  0  0  0  0  0
    6.2386    0.8304    0.1195 H   0  0  0  0  0  0  0  0  0  0  0  0
    6.1612   -1.1100   -2.2076 H   0  0  0  0  0  0  0  0  0  0  0  0
    6.5271   -1.4239   -0.5111 H   0  0  0  0  0  0  0  0  0  0  0  0
    3.9764   -1.8125   -1.8588 H   0  0  0  0  0  0  0  0  0  0  0  0
    4.3085   -2.0769   -0.1491 H   0  0  0  0  0  0  0  0  0  0  0  0
  1  2  2  0  0  0  0
  2  3  1  0  0  0  0
  3  4  1  0  0  0  0
  4  5  1  0  0  0  0
  5  6  1  0  0  0  0
  5 21  1  0  0  0  0
  6  7  1  0  0  0  0
  7 22  1  0  0  0  0
  7  8  2  0  0  0  0
  8 23  1  0  0  0  0
  9  8  1  0  0  0  0
  9 24  1  0  0  0  0
 10 25  1  0  0  0  0
 10  9  2  0  0  0  0
 11  6  2  0  0  0  0
 11 10  1  0  0  0  0
 12  3  1  0  0  0  0
 12 13  2  0  0  0  0
 14 12  1  0  0  0  0
 15 14  1  0  0  0  0
 15  2  1  0  0  0  0
 16 17  1  0  0  0  0
 16 14  1  0  0  0  0
 16 29  1  0  0  0  0
 17 32  1  0  0  0  0
 18 19  1  0  0  0  0
 18 17  1  0  0  0  0
 18 34  1  0  0  0  0
 19 14  1  0  0  0  0
 19 36  1  0  0  0  0
 20  5  1  0  0  0  0
 26 11  1  0  0  0  0
 27 15  1  0  0  0  0
 28 15  1  0  0  0  0
 30 16  1  0  0  0  0
 31 17  1  0  0  0  0
 33 18  1  0  0  0  0
 35 19  1  0  0  0  0
M  END
$$$$
