36
rmsd93.gzmat
O          0.00000        0.00000        0.00000
C          1.19750        0.00000        0.00000
N          2.01700        0.00000        1.14640
O          1.47970       -0.00350        2.41100
C          1.61760       -1.26630        3.07570
C          0.74330       -2.32740        2.49220
C          1.19460       -3.64580        2.42170
C          0.37080       -4.63330        1.88550
C         -0.89900       -4.30500        1.41370
C         -1.34660       -2.98640        1.47910
C         -0.52920       -1.99830        2.02270
C          3.40530        0.00200        0.89910
O          4.24040       -0.08860        1.75280
C          3.57290        0.13490       -0.62490
C          2.13890        0.02790       -1.19130
C          4.25000        1.48120       -0.93110
C          5.75510        1.19010       -0.83110
C          5.92610       -0.28100       -1.25370
C          4.53730       -0.94390       -1.14440
H          1.28500       -0.97330        4.09650
H          2.68460       -1.55540        3.12740
H          2.18670       -3.90640        2.78480
H          0.72070       -5.66190        1.83480
H         -1.54100       -5.07630        0.99420
H         -2.33370       -2.72410        1.10210
H         -0.87600       -0.96290        2.06230
H          1.88570        0.86960       -1.86210
H          1.99580       -0.88630       -1.79890
H          3.93530        2.28000       -0.24020
H          3.98770        1.82680       -1.94670
H          6.34720        1.87180       -1.45840
H          6.10620        1.33370        0.20840
H          6.31490       -0.35340       -2.28210
H          6.66200       -0.79080       -0.60930
H          4.21210       -1.32150       -2.12890
H          4.56720       -1.82060       -0.47420
