36
rmsd91.gzmat
O          0.00000        0.00000        0.00000
C          1.19750        0.00000        0.00000
N          2.01730        0.00000        1.14470
O          1.47540        0.16750        2.39910
C          1.65070       -0.98240        3.23540
C          0.77150       -2.12810        2.85300
C          1.18990       -3.43630        3.10130
C          0.36390       -4.50550        2.76220
C         -0.87410       -4.27150        2.16620
C         -1.28850       -2.96490        1.91420
C         -0.47090       -1.89300        2.26440
C          3.40380        0.08060        0.89910
O          4.23770        0.08980        1.75870
C          3.57390        0.11690       -0.63000
C          2.13870        0.00310       -1.19220
C          4.28220        1.42450       -1.02030
C          5.78090        1.10570       -0.90460
C          5.91750       -0.39360       -1.22890
C          4.51350       -1.01500       -1.07900
H          1.34950       -0.54220        4.21280
H          2.72190       -1.25610        3.29150
H          2.15780       -3.62400        3.56050
H          0.68620       -5.52480        2.96190
H         -1.51580       -5.10740        1.89790
H         -2.25030       -2.77790        1.44050
H         -0.79590       -0.86890        2.06300
H          1.88660        0.83630       -1.87480
H          1.99310       -0.91890       -1.78740
H          3.98940        2.27230       -0.38000
H          4.02590        1.71190       -2.05540
H          6.38720        1.72990       -1.57670
H          6.13900        1.31010        0.12260
H          6.30440       -0.54330       -2.24960
H          6.64040       -0.87710       -0.55110
H          4.18030       -1.44660       -2.03800
H          4.52220       -1.84790       -0.35510
