rmsd140.gzmat
 OpenBabel08211713403D

 35 37  0  0  1  0  0  0  0  0999 V2000
    0.0000    0.0000    0.0000 C   0  0  0  0  0  0  0  0  0  0  0  0
    1.1975    0.0000    0.0000 O   0  0  0  0  0  0  0  0  0  0  0  0
   -0.9727    0.0000   -1.1770 C   0  0  2  0  0  0  0  0  0  0  0  0
   -1.5319    0.9880   -1.1687 H   0  0  0  0  0  0  0  0  0  0  0  0
   -1.9836   -1.1551   -1.0234 C   0  0  0  0  0  0  0  0  0  0  0  0
   -3.0150   -1.0805   -2.1059 C   0  0  0  0  0  0  0  0  0  0  0  0
   -2.8950   -1.8789   -3.2448 C   0  0  0  0  0  0  0  0  0  0  0  0
   -3.8422   -1.7876   -4.2618 C   0  0  0  0  0  0  0  0  0  0  0  0
   -4.9145   -0.9053   -4.1417 C   0  0  0  0  0  0  0  0  0  0  0  0
   -5.0379   -0.1123   -3.0017 C   0  0  0  0  0  0  0  0  0  0  0  0
   -4.0901   -0.1977   -1.9851 C   0  0  0  0  0  0  0  0  0  0  0  0
   -0.2140   -0.0870   -2.4115 N   0  0  0  0  0  0  0  0  0  0  0  0
   -0.0745    1.0134   -3.3107 C   0  0  0  0  0  0  0  0  0  0  0  0
   -0.5791    2.0838   -3.1267 O   0  0  0  0  0  0  0  0  0  0  0  0
    0.7797    0.5111   -4.4255 C   0  0  0  0  0  0  0  0  0  0  0  0
    1.2275    1.1510   -5.5563 C   0  0  0  0  0  0  0  0  0  0  0  0
    2.0393    0.4155   -6.4415 C   0  0  0  0  0  0  0  0  0  0  0  0
    2.3748   -0.9056   -6.1785 C   0  0  0  0  0  0  0  0  0  0  0  0
    1.9123   -1.5572   -5.0188 C   0  0  0  0  0  0  0  0  0  0  0  0
    1.1188   -0.8358   -4.1596 C   0  0  0  0  0  0  0  0  0  0  0  0
    0.4840   -1.2431   -2.8698 C   0  0  0  0  0  0  0  0  0  0  0  0
    0.4978   -2.2982   -2.3032 O   0  0  0  0  0  0  0  0  0  0  0  0
   -0.7091    0.0417    1.1591 O   0  0  0  0  0  0  0  0  0  0  0  0
   -2.4599   -1.0974   -0.0189 H   0  0  0  0  0  0  0  0  0  0  0  0
   -1.4581   -2.1362   -1.0335 H   0  0  0  0  0  0  0  0  0  0  0  0
   -2.0602   -2.5726   -3.3384 H   0  0  0  0  0  0  0  0  0  0  0  0
   -3.7453   -2.4072   -5.1507 H   0  0  0  0  0  0  0  0  0  0  0  0
   -5.6545   -0.8361   -4.9355 H   0  0  0  0  0  0  0  0  0  0  0  0
   -5.8756    0.5757   -2.9064 H   0  0  0  0  0  0  0  0  0  0  0  0
   -4.1876    0.4254   -1.0983 H   0  0  0  0  0  0  0  0  0  0  0  0
    0.9685    2.1896   -5.7639 H   0  0  0  0  0  0  0  0  0  0  0  0
    2.4080    0.8999   -7.3458 H   0  0  0  0  0  0  0  0  0  0  0  0
    3.0075   -1.4545   -6.8762 H   0  0  0  0  0  0  0  0  0  0  0  0
    2.1783   -2.5940   -4.8125 H   0  0  0  0  0  0  0  0  0  0  0  0
   -0.1441    0.0520    1.9701 H   0  0  0  0  0  0  0  0  0  0  0  0
  1  2  2  0  0  0  0
  1 23  1  0  0  0  0
  3  4  1  1  0  0  0
  3  5  1  0  0  0  0
  3  1  1  0  0  0  0
  5 24  1  0  0  0  0
  6 11  1  0  0  0  0
  6  5  1  0  0  0  0
  7  6  2  0  0  0  0
  8  9  2  0  0  0  0
  8  7  1  0  0  0  0
  9 10  1  0  0  0  0
 10 29  1  0  0  0  0
 10 11  2  0  0  0  0
 11 30  1  0  0  0  0
 12  3  1  0  0  0  0
 13 14  2  0  0  0  0
 13 12  1  0  0  0  0
 15 20  1  0  0  0  0
 15 13  1  0  0  0  0
 16 15  2  0  0  0  0
 17 18  2  0  0  0  0
 17 16  1  0  0  0  0
 18 19  1  0  0  0  0
 19 34  1  0  0  0  0
 19 20  2  0  0  0  0
 20 21  1  0  0  0  0
 21 12  1  0  0  0  0
 21 22  2  0  0  0  0
 23 35  1  0  0  0  0
 25  5  1  0  0  0  0
 26  7  1  0  0  0  0
 27  8  1  0  0  0  0
 28  9  1  0  0  0  0
 31 16  1  0  0  0  0
 32 17  1  0  0  0  0
 33 18  1  0  0  0  0
M  END
$$$$
