rmsd219.gzmat
 OpenBabel08211713403D

 35 37  0  0  1  0  0  0  0  0999 V2000
    0.0000    0.0000    0.0000 C   0  0  0  0  0  0  0  0  0  0  0  0
    1.1978    0.0000    0.0000 O   0  0  0  0  0  0  0  0  0  0  0  0
   -0.9715    0.0000   -1.1777 C   0  0  2  0  0  0  0  0  0  0  0  0
   -1.4474    1.0287   -1.2349 H   0  0  0  0  0  0  0  0  0  0  0  0
   -2.0735   -1.0584   -0.9620 C   0  0  0  0  0  0  0  0  0  0  0  0
   -3.0403   -1.0287   -2.1047 C   0  0  0  0  0  0  0  0  0  0  0  0
   -3.0036   -2.0278   -3.0789 C   0  0  0  0  0  0  0  0  0  0  0  0
   -3.8798   -1.9778   -4.1604 C   0  0  0  0  0  0  0  0  0  0  0  0
   -4.7956   -0.9329   -4.2700 C   0  0  0  0  0  0  0  0  0  0  0  0
   -4.8362    0.0620   -3.2942 C   0  0  0  0  0  0  0  0  0  0  0  0
   -3.9623    0.0147   -2.2113 C   0  0  0  0  0  0  0  0  0  0  0  0
   -0.2228   -0.2274   -2.4006 N   0  0  0  0  0  0  0  0  0  0  0  0
   -0.0228    0.7867   -3.3852 C   0  0  0  0  0  0  0  0  0  0  0  0
   -0.4501    1.9007   -3.2813 O   0  0  0  0  0  0  0  0  0  0  0  0
    0.7783    0.1402   -4.4648 C   0  0  0  0  0  0  0  0  0  0  0  0
    1.2659    0.6607   -5.6396 C   0  0  0  0  0  0  0  0  0  0  0  0
    2.0165   -0.1958   -6.4684 C   0  0  0  0  0  0  0  0  0  0  0  0
    2.2536   -1.5157   -6.1102 C   0  0  0  0  0  0  0  0  0  0  0  0
    1.7499   -2.0449   -4.9060 C   0  0  0  0  0  0  0  0  0  0  0  0
    1.0176   -1.2056   -4.1017 C   0  0  0  0  0  0  0  0  0  0  0  0
    0.3669   -1.4677   -2.7832 C   0  0  0  0  0  0  0  0  0  0  0  0
    0.2961   -2.4784   -2.1443 O   0  0  0  0  0  0  0  0  0  0  0  0
   -0.7074    0.0437    1.1599 O   0  0  0  0  0  0  0  0  0  0  0  0
   -2.5947   -0.8620    0.0015 H   0  0  0  0  0  0  0  0  0  0  0  0
   -1.6206   -2.0677   -0.8394 H   0  0  0  0  0  0  0  0  0  0  0  0
   -2.2873   -2.8445   -2.9947 H   0  0  0  0  0  0  0  0  0  0  0  0
   -3.8479   -2.7552   -4.9211 H   0  0  0  0  0  0  0  0  0  0  0  0
   -5.4778   -0.8940   -5.1159 H   0  0  0  0  0  0  0  0  0  0  0  0
   -5.5501    0.8789   -3.3798 H   0  0  0  0  0  0  0  0  0  0  0  0
   -3.9957    0.7938   -1.4524 H   0  0  0  0  0  0  0  0  0  0  0  0
    1.0839    1.6974   -5.9234 H   0  0  0  0  0  0  0  0  0  0  0  0
    2.4167    0.1938   -7.4048 H   0  0  0  0  0  0  0  0  0  0  0  0
    2.8404   -2.1598   -6.7654 H   0  0  0  0  0  0  0  0  0  0  0  0
    1.9387   -3.0813   -4.6255 H   0  0  0  0  0  0  0  0  0  0  0  0
   -0.1405    0.0531    1.9696 H   0  0  0  0  0  0  0  0  0  0  0  0
  1  2  2  0  0  0  0
  1 23  1  0  0  0  0
  3  4  1  6  0  0  0
  3  5  1  0  0  0  0
  3  1  1  0  0  0  0
  5 25  1  0  0  0  0
  5 24  1  0  0  0  0
  6  5  1  0  0  0  0
  7 26  1  0  0  0  0
  7  6  2  0  0  0  0
  8  7  1  0  0  0  0
  9  8  2  0  0  0  0
  9 10  1  0  0  0  0
 10 11  2  0  0  0  0
 11  6  1  0  0  0  0
 11 30  1  0  0  0  0
 12  3  1  0  0  0  0
 13 14  2  0  0  0  0
 13 12  1  0  0  0  0
 15 20  1  0  0  0  0
 15 13  1  0  0  0  0
 16 15  2  0  0  0  0
 17 18  2  0  0  0  0
 17 16  1  0  0  0  0
 18 19  1  0  0  0  0
 19 34  1  0  0  0  0
 19 20  2  0  0  0  0
 20 21  1  0  0  0  0
 21 12  1  0  0  0  0
 21 22  2  0  0  0  0
 23 35  1  0  0  0  0
 27  8  1  0  0  0  0
 28  9  1  0  0  0  0
 29 10  1  0  0  0  0
 31 16  1  0  0  0  0
 32 17  1  0  0  0  0
 33 18  1  0  0  0  0
M  END
$$$$
