35
rmsd224.gzmat
C          0.00000        0.00000        0.00000
O          1.19750        0.00000        0.00000
C         -0.97310        0.00000       -1.17670
H         -1.55720        0.97290       -1.15160
C         -1.95490       -1.18240       -1.04140
C         -2.93170       -1.17170       -2.17600
C         -2.77480       -2.05910       -3.24230
C         -3.66350       -2.02400       -4.31400
C         -4.71480       -1.10880       -4.32140
C         -4.87770       -0.22920       -3.25220
C         -3.98870       -0.25880       -2.18060
N         -0.21220       -0.04390       -2.41200
C         -0.08130        1.08680       -3.27390
O         -0.59570        2.14600       -3.05440
C          0.77920        0.63030       -4.40300
C          1.22510        1.31270       -5.50940
C          2.04530        0.61450       -6.41680
C          2.39050       -0.71220       -6.19840
C          1.93050       -1.40680       -5.06270
C          1.12790       -0.72220       -4.18250
C          0.48940       -1.18040       -2.91180
O          0.50060       -2.25810       -2.38980
O         -0.70880        0.03580        1.15920
H         -2.48270       -1.11160       -0.06400
H         -1.39820       -2.14510       -0.99770
H         -1.95590       -2.77840       -3.23740
H         -3.53640       -2.71290       -5.14630
H         -5.40750       -1.08230       -5.15920
H         -5.70010        0.48350       -3.25490
H         -4.11780        0.43210       -1.35020
H          0.95810        2.35540       -5.68210
H          2.41190        1.13280       -7.30310
H          3.02810       -1.23240       -6.91340
H          2.20460       -2.44770       -4.89110
H         -0.14300        0.04490        1.96990
