rmsd143.gzmat
 OpenBabel08211713403D

 35 37  0  0  1  0  0  0  0  0999 V2000
    0.0000    0.0000    0.0000 C   0  0  0  0  0  0  0  0  0  0  0  0
    1.1982    0.0000    0.0000 O   0  0  0  0  0  0  0  0  0  0  0  0
   -0.9665    0.0000   -1.1834 C   0  0  2  0  0  0  0  0  0  0  0  0
   -1.4637    1.0194   -1.2277 H   0  0  0  0  0  0  0  0  0  0  0  0
   -2.0461   -1.0821   -0.9827 C   0  0  0  0  0  0  0  0  0  0  0  0
   -3.0290   -1.0567   -2.1116 C   0  0  0  0  0  0  0  0  0  0  0  0
   -2.9613   -2.0236   -3.1162 C   0  0  0  0  0  0  0  0  0  0  0  0
   -3.8635   -1.9903   -4.1766 C   0  0  0  0  0  0  0  0  0  0  0  0
   -4.8373   -0.9950   -4.2345 C   0  0  0  0  0  0  0  0  0  0  0  0
   -4.9088   -0.0322   -3.2289 C   0  0  0  0  0  0  0  0  0  0  0  0
   -4.0076   -0.0617   -2.1675 C   0  0  0  0  0  0  0  0  0  0  0  0
   -0.2041   -0.1889   -2.4047 N   0  0  0  0  0  0  0  0  0  0  0  0
    0.3902   -1.4138   -2.8279 C   0  0  0  0  0  0  0  0  0  0  0  0
    0.2748   -2.4598   -2.2554 O   0  0  0  0  0  0  0  0  0  0  0  0
    1.1191   -1.0847   -4.0904 C   0  0  0  0  0  0  0  0  0  0  0  0
    1.8614   -1.8930   -4.9175 C   0  0  0  0  0  0  0  0  0  0  0  0
    2.4526   -1.2980   -6.0490 C   0  0  0  0  0  0  0  0  0  0  0  0
    2.2889    0.0543   -6.3165 C   0  0  0  0  0  0  0  0  0  0  0  0
    1.5226    0.8773   -5.4683 C   0  0  0  0  0  0  0  0  0  0  0  0
    0.9487    0.2918   -4.3654 C   0  0  0  0  0  0  0  0  0  0  0  0
    0.1037    0.8882   -3.2908 C   0  0  0  0  0  0  0  0  0  0  0  0
   -0.2875    2.0082   -3.1267 O   0  0  0  0  0  0  0  0  0  0  0  0
   -0.7081    0.0423    1.1589 O   0  0  0  0  0  0  0  0  0  0  0  0
   -2.5606   -0.9119   -0.0102 H   0  0  0  0  0  0  0  0  0  0  0  0
   -1.5750   -2.0859   -0.8836 H   0  0  0  0  0  0  0  0  0  0  0  0
   -2.2012   -2.8037   -3.0714 H   0  0  0  0  0  0  0  0  0  0  0  0
   -3.8073   -2.7430   -4.9601 H   0  0  0  0  0  0  0  0  0  0  0  0
   -5.5406   -0.9696   -5.0633 H   0  0  0  0  0  0  0  0  0  0  0  0
   -5.6699    0.7439   -3.2744 H   0  0  0  0  0  0  0  0  0  0  0  0
   -4.0663    0.6913   -1.3845 H   0  0  0  0  0  0  0  0  0  0  0  0
    1.9943   -2.9546   -4.7078 H   0  0  0  0  0  0  0  0  0  0  0  0
    3.0495   -1.9167   -6.7201 H   0  0  0  0  0  0  0  0  0  0  0  0
    2.7595    0.4953   -7.1956 H   0  0  0  0  0  0  0  0  0  0  0  0
    1.3939    1.9388   -5.6817 H   0  0  0  0  0  0  0  0  0  0  0  0
   -0.1415    0.0564    1.9692 H   0  0  0  0  0  0  0  0  0  0  0  0
  1  2  2  0  0  0  0
  1 23  1  0  0  0  0
  3  4  1  6  0  0  0
  3  5  1  0  0  0  0
  3  1  1  0  0  0  0
  5 25  1  0  0  0  0
  5 24  1  0  0  0  0
  6  5  1  0  0  0  0
  7 26  1  0  0  0  0
  7  6  2  0  0  0  0
  8  7  1  0  0  0  0
  9  8  2  0  0  0  0
  9 10  1  0  0  0  0
 10 11  2  0  0  0  0
 11  6  1  0  0  0  0
 11 30  1  0  0  0  0
 12  3  1  0  0  0  0
 13 12  1  0  0  0  0
 13 14  2  0  0  0  0
 15 13  1  0  0  0  0
 16 31  1  0  0  0  0
 16 15  2  0  0  0  0
 17 16  1  0  0  0  0
 18 17  2  0  0  0  0
 18 19  1  0  0  0  0
 19 20  2  0  0  0  0
 20 15  1  0  0  0  0
 20 21  1  0  0  0  0
 21 22  2  0  0  0  0
 21 12  1  0  0  0  0
 23 35  1  0  0  0  0
 27  8  1  0  0  0  0
 28  9  1  0  0  0  0
 29 10  1  0  0  0  0
 32 17  1  0  0  0  0
 33 18  1  0  0  0  0
 34 19  1  0  0  0  0
M  END
$$$$
