35
rmsd219.gzmat
C          0.00000        0.00000        0.00000
O          1.19780        0.00000        0.00000
C         -0.97150        0.00000       -1.17770
H         -1.44740        1.02870       -1.23490
C         -2.07350       -1.05840       -0.96200
C         -3.04030       -1.02870       -2.10470
C         -3.00360       -2.02780       -3.07890
C         -3.87980       -1.97780       -4.16040
C         -4.79560       -0.93290       -4.27000
C         -4.83620        0.06200       -3.29420
C         -3.96230        0.01470       -2.21130
N         -0.22280       -0.22740       -2.40060
C         -0.02280        0.78670       -3.38520
O         -0.45010        1.90070       -3.28130
C          0.77830        0.14020       -4.46480
C          1.26590        0.66070       -5.63960
C          2.01650       -0.19580       -6.46840
C          2.25360       -1.51570       -6.11020
C          1.74990       -2.04490       -4.90600
C          1.01760       -1.20560       -4.10170
C          0.36690       -1.46770       -2.78320
O          0.29610       -2.47840       -2.14430
O         -0.70740        0.04370        1.15990
H         -2.59470       -0.86200        0.00150
H         -1.62060       -2.06770       -0.83940
H         -2.28730       -2.84450       -2.99470
H         -3.84790       -2.75520       -4.92110
H         -5.47780       -0.89400       -5.11590
H         -5.55010        0.87890       -3.37980
H         -3.99570        0.79380       -1.45240
H          1.08390        1.69740       -5.92340
H          2.41670        0.19380       -7.40480
H          2.84040       -2.15980       -6.76540
H          1.93870       -3.08130       -4.62550
H         -0.14050        0.05310        1.96960
