rmsd224.gzmat
 OpenBabel08211713403D

 35 37  0  0  1  0  0  0  0  0999 V2000
    0.0000    0.0000    0.0000 C   0  0  0  0  0  0  0  0  0  0  0  0
    1.1975    0.0000    0.0000 O   0  0  0  0  0  0  0  0  0  0  0  0
   -0.9731    0.0000   -1.1767 C   0  0  2  0  0  0  0  0  0  0  0  0
   -1.5572    0.9729   -1.1516 H   0  0  0  0  0  0  0  0  0  0  0  0
   -1.9549   -1.1824   -1.0414 C   0  0  0  0  0  0  0  0  0  0  0  0
   -2.9317   -1.1717   -2.1760 C   0  0  0  0  0  0  0  0  0  0  0  0
   -2.7748   -2.0591   -3.2423 C   0  0  0  0  0  0  0  0  0  0  0  0
   -3.6635   -2.0240   -4.3140 C   0  0  0  0  0  0  0  0  0  0  0  0
   -4.7148   -1.1088   -4.3214 C   0  0  0  0  0  0  0  0  0  0  0  0
   -4.8777   -0.2292   -3.2522 C   0  0  0  0  0  0  0  0  0  0  0  0
   -3.9887   -0.2588   -2.1806 C   0  0  0  0  0  0  0  0  0  0  0  0
   -0.2122   -0.0439   -2.4120 N   0  0  0  0  0  0  0  0  0  0  0  0
   -0.0813    1.0868   -3.2739 C   0  0  0  0  0  0  0  0  0  0  0  0
   -0.5957    2.1460   -3.0544 O   0  0  0  0  0  0  0  0  0  0  0  0
    0.7792    0.6303   -4.4030 C   0  0  0  0  0  0  0  0  0  0  0  0
    1.2251    1.3127   -5.5094 C   0  0  0  0  0  0  0  0  0  0  0  0
    2.0453    0.6145   -6.4168 C   0  0  0  0  0  0  0  0  0  0  0  0
    2.3905   -0.7122   -6.1984 C   0  0  0  0  0  0  0  0  0  0  0  0
    1.9305   -1.4068   -5.0627 C   0  0  0  0  0  0  0  0  0  0  0  0
    1.1279   -0.7222   -4.1825 C   0  0  0  0  0  0  0  0  0  0  0  0
    0.4894   -1.1804   -2.9118 C   0  0  0  0  0  0  0  0  0  0  0  0
    0.5006   -2.2581   -2.3898 O   0  0  0  0  0  0  0  0  0  0  0  0
   -0.7088    0.0358    1.1592 O   0  0  0  0  0  0  0  0  0  0  0  0
   -2.4827   -1.1116   -0.0640 H   0  0  0  0  0  0  0  0  0  0  0  0
   -1.3982   -2.1451   -0.9977 H   0  0  0  0  0  0  0  0  0  0  0  0
   -1.9559   -2.7784   -3.2374 H   0  0  0  0  0  0  0  0  0  0  0  0
   -3.5364   -2.7129   -5.1463 H   0  0  0  0  0  0  0  0  0  0  0  0
   -5.4075   -1.0823   -5.1592 H   0  0  0  0  0  0  0  0  0  0  0  0
   -5.7001    0.4835   -3.2549 H   0  0  0  0  0  0  0  0  0  0  0  0
   -4.1178    0.4321   -1.3502 H   0  0  0  0  0  0  0  0  0  0  0  0
    0.9581    2.3554   -5.6821 H   0  0  0  0  0  0  0  0  0  0  0  0
    2.4119    1.1328   -7.3031 H   0  0  0  0  0  0  0  0  0  0  0  0
    3.0281   -1.2324   -6.9134 H   0  0  0  0  0  0  0  0  0  0  0  0
    2.2046   -2.4477   -4.8911 H   0  0  0  0  0  0  0  0  0  0  0  0
   -0.1430    0.0449    1.9699 H   0  0  0  0  0  0  0  0  0  0  0  0
  1  2  2  0  0  0  0
  1 23  1  0  0  0  0
  3  4  1  1  0  0  0
  3  5  1  0  0  0  0
  3  1  1  0  0  0  0
  5 25  1  0  0  0  0
  5 24  1  0  0  0  0
  6  5  1  0  0  0  0
  7 26  1  0  0  0  0
  7  6  2  0  0  0  0
  8  7  1  0  0  0  0
  9  8  2  0  0  0  0
  9 10  1  0  0  0  0
 10 11  2  0  0  0  0
 11  6  1  0  0  0  0
 11 30  1  0  0  0  0
 12  3  1  0  0  0  0
 13 14  2  0  0  0  0
 13 12  1  0  0  0  0
 15 20  1  0  0  0  0
 15 13  1  0  0  0  0
 16 15  2  0  0  0  0
 17 18  2  0  0  0  0
 17 16  1  0  0  0  0
 18 19  1  0  0  0  0
 19 34  1  0  0  0  0
 19 20  2  0  0  0  0
 20 21  1  0  0  0  0
 21 12  1  0  0  0  0
 21 22  2  0  0  0  0
 23 35  1  0  0  0  0
 27  8  1  0  0  0  0
 28  9  1  0  0  0  0
 29 10  1  0  0  0  0
 31 16  1  0  0  0  0
 32 17  1  0  0  0  0
 33 18  1  0  0  0  0
M  END
$$$$
