rmsd129.gzmat
 OpenBabel08211713403D

 35 37  0  0  1  0  0  0  0  0999 V2000
    0.0000    0.0000    0.0000 C   0  0  0  0  0  0  0  0  0  0  0  0
    1.1973    0.0000    0.0000 O   0  0  0  0  0  0  0  0  0  0  0  0
   -0.9750    0.0000   -1.1748 C   0  0  2  0  0  0  0  0  0  0  0  0
   -1.6277    0.9253   -1.0951 H   0  0  0  0  0  0  0  0  0  0  0  0
   -1.8670   -1.2570   -1.1036 C   0  0  0  0  0  0  0  0  0  0  0  0
   -2.8907   -1.2180   -2.1952 C   0  0  0  0  0  0  0  0  0  0  0  0
   -2.6999   -1.9650   -3.3590 C   0  0  0  0  0  0  0  0  0  0  0  0
   -3.6352   -1.9001   -4.3888 C   0  0  0  0  0  0  0  0  0  0  0  0
   -4.7641   -1.0934   -4.2587 C   0  0  0  0  0  0  0  0  0  0  0  0
   -4.9594   -0.3543   -3.0930 C   0  0  0  0  0  0  0  0  0  0  0  0
   -4.0265   -0.4164   -2.0608 C   0  0  0  0  0  0  0  0  0  0  0  0
   -0.2185    0.0781   -2.4107 N   0  0  0  0  0  0  0  0  0  0  0  0
    0.5798   -0.9705   -2.9571 C   0  0  0  0  0  0  0  0  0  0  0  0
    0.6866   -2.0637   -2.4808 O   0  0  0  0  0  0  0  0  0  0  0  0
    1.1687   -0.4057   -4.2091 C   0  0  0  0  0  0  0  0  0  0  0  0
    2.0283   -0.9783   -5.1150 C   0  0  0  0  0  0  0  0  0  0  0  0
    2.4205   -0.1993   -6.2209 C   0  0  0  0  0  0  0  0  0  0  0  0
    1.9502    1.0958   -6.3894 C   0  0  0  0  0  0  0  0  0  0  0  0
    1.0688    1.6778   -5.4577 C   0  0  0  0  0  0  0  0  0  0  0  0
    0.6945    0.9159   -4.3769 C   0  0  0  0  0  0  0  0  0  0  0  0
   -0.1985    1.2475   -3.2292 C   0  0  0  0  0  0  0  0  0  0  0  0
   -0.8085    2.2451   -2.9693 O   0  0  0  0  0  0  0  0  0  0  0  0
   -0.7107    0.0314    1.1589 O   0  0  0  0  0  0  0  0  0  0  0  0
   -2.3543   -1.3061   -0.1043 H   0  0  0  0  0  0  0  0  0  0  0  0
   -1.2458   -2.1789   -1.1666 H   0  0  0  0  0  0  0  0  0  0  0  0
   -1.8187   -2.5972   -3.4631 H   0  0  0  0  0  0  0  0  0  0  0  0
   -3.4841   -2.4807   -5.2962 H   0  0  0  0  0  0  0  0  0  0  0  0
   -5.4918   -1.0411   -5.0652 H   0  0  0  0  0  0  0  0  0  0  0  0
   -5.8419    0.2739   -2.9903 H   0  0  0  0  0  0  0  0  0  0  0  0
   -4.1826    0.1623   -1.1525 H   0  0  0  0  0  0  0  0  0  0  0  0
    2.3965   -1.9961   -4.9853 H   0  0  0  0  0  0  0  0  0  0  0  0
    3.1065   -0.6274   -6.9519 H   0  0  0  0  0  0  0  0  0  0  0  0
    2.2644    1.6798   -7.2547 H   0  0  0  0  0  0  0  0  0  0  0  0
    0.7009    2.6950   -5.5935 H   0  0  0  0  0  0  0  0  0  0  0  0
   -0.1467    0.0405    1.9704 H   0  0  0  0  0  0  0  0  0  0  0  0
  1  2  2  0  0  0  0
  1 23  1  0  0  0  0
  3  5  1  0  0  0  0
  3  4  1  1  0  0  0
  3  1  1  0  0  0  0
  5 24  1  0  0  0  0
  6 11  1  0  0  0  0
  6  5  1  0  0  0  0
  7  6  2  0  0  0  0
  8  9  2  0  0  0  0
  8  7  1  0  0  0  0
  9 10  1  0  0  0  0
 10 29  1  0  0  0  0
 10 11  2  0  0  0  0
 11 30  1  0  0  0  0
 12  3  1  0  0  0  0
 13 14  2  0  0  0  0
 13 12  1  0  0  0  0
 15 13  1  0  0  0  0
 16 31  1  0  0  0  0
 16 15  2  0  0  0  0
 17 16  1  0  0  0  0
 18 17  2  0  0  0  0
 18 19  1  0  0  0  0
 19 20  2  0  0  0  0
 20 15  1  0  0  0  0
 20 21  1  0  0  0  0
 21 22  2  0  0  0  0
 21 12  1  0  0  0  0
 23 35  1  0  0  0  0
 25  5  1  0  0  0  0
 26  7  1  0  0  0  0
 27  8  1  0  0  0  0
 28  9  1  0  0  0  0
 32 17  1  0  0  0  0
 33 18  1  0  0  0  0
 34 19  1  0  0  0  0
M  END
$$$$
