35
rmsd118.gzmat
C          0.00000        0.00000        0.00000
O          1.19780        0.00000        0.00000
C         -0.96630        0.00000       -1.18270
H         -1.42400        1.03640       -1.25520
C         -2.08820       -1.03470       -0.95820
C         -3.06530       -0.98630       -2.09120
C         -3.03140       -1.96660       -3.08440
C         -3.91500       -1.89920       -4.15870
C         -4.83950       -0.85960       -4.24000
C         -4.88120        0.11340       -3.24250
C         -3.99660        0.05150       -2.16860
N         -0.21390       -0.25470       -2.39800
C          0.02400        0.74910       -3.38510
O         -0.39120        1.86930       -3.29960
C          0.84490        0.08480       -4.43870
C          1.35840        0.58700       -5.61040
C          2.13110       -0.28050       -6.40660
C          2.36440       -1.59320       -6.01990
C          1.82730       -2.10610       -4.82320
C          1.07290       -1.25610       -4.05100
C          0.38560       -1.50030       -2.74720
O          0.29720       -2.50180       -2.09610
O         -0.70880        0.04910        1.15830
H         -2.59560       -0.82540        0.01020
H         -1.65670       -2.05380       -0.83950
H         -2.31220       -2.78220       -3.01950
H         -3.88230       -2.65970       -4.93580
H         -5.52730       -0.80720       -5.08060
H         -5.60430        0.92410       -3.30470
H         -4.03070        0.81420       -1.39370
H          1.18100        1.61850       -5.91500
H          2.55300        0.09500       -7.33920
H          2.97290       -2.24470       -6.64730
H          2.00820       -3.13840       -4.52360
H         -0.14390        0.06050        1.96960
