rmsd125.gzmat
 OpenBabel08211713403D

 35 37  0  0  1  0  0  0  0  0999 V2000
    0.0000    0.0000    0.0000 C   0  0  0  0  0  0  0  0  0  0  0  0
    1.1975    0.0000    0.0000 O   0  0  0  0  0  0  0  0  0  0  0  0
   -0.9744    0.0000   -1.1757 C   0  0  2  0  0  0  0  0  0  0  0  0
   -1.4929    1.0094   -1.1979 H   0  0  0  0  0  0  0  0  0  0  0  0
   -2.0298   -1.1093   -0.9842 C   0  0  0  0  0  0  0  0  0  0  0  0
   -2.9564   -1.1512   -2.1596 C   0  0  0  0  0  0  0  0  0  0  0  0
   -2.8763   -2.2031   -3.0739 C   0  0  0  0  0  0  0  0  0  0  0  0
   -3.7123   -2.2228   -4.1878 C   0  0  0  0  0  0  0  0  0  0  0  0
   -4.6304   -1.1945   -4.3915 C   0  0  0  0  0  0  0  0  0  0  0  0
   -4.7174   -0.1490   -3.4734 C   0  0  0  0  0  0  0  0  0  0  0  0
   -3.8852   -0.1275   -2.3570 C   0  0  0  0  0  0  0  0  0  0  0  0
   -0.2239   -0.1538   -2.4086 N   0  0  0  0  0  0  0  0  0  0  0  0
    0.3812   -1.3628   -2.8620 C   0  0  0  0  0  0  0  0  0  0  0  0
    0.3369   -2.4066   -2.2766 O   0  0  0  0  0  0  0  0  0  0  0  0
    1.0108   -1.0205   -4.1734 C   0  0  0  0  0  0  0  0  0  0  0  0
    1.7344   -1.8076   -5.0362 C   0  0  0  0  0  0  0  0  0  0  0  0
    2.2113   -1.2080   -6.2181 C   0  0  0  0  0  0  0  0  0  0  0  0
    1.9554    0.1270   -6.4999 C   0  0  0  0  0  0  0  0  0  0  0  0
    1.2128    0.9292   -5.6118 C   0  0  0  0  0  0  0  0  0  0  0  0
    0.7527    0.3401   -4.4586 C   0  0  0  0  0  0  0  0  0  0  0  0
   -0.0461    0.9150   -3.3382 C   0  0  0  0  0  0  0  0  0  0  0  0
   -0.4884    2.0154   -3.1703 O   0  0  0  0  0  0  0  0  0  0  0  0
   -0.7086    0.0417    1.1597 O   0  0  0  0  0  0  0  0  0  0  0  0
   -2.5938   -0.9225   -0.0430 H   0  0  0  0  0  0  0  0  0  0  0  0
   -1.5310   -2.0924   -0.8300 H   0  0  0  0  0  0  0  0  0  0  0  0
   -2.1561   -3.0069   -2.9199 H   0  0  0  0  0  0  0  0  0  0  0  0
   -3.6465   -3.0423   -4.9004 H   0  0  0  0  0  0  0  0  0  0  0  0
   -5.2787   -1.2086   -5.2645 H   0  0  0  0  0  0  0  0  0  0  0  0
   -5.4358    0.6530   -3.6297 H   0  0  0  0  0  0  0  0  0  0  0  0
   -3.9578    0.6899   -1.6422 H   0  0  0  0  0  0  0  0  0  0  0  0
    1.9363   -2.8560   -4.8168 H   0  0  0  0  0  0  0  0  0  0  0  0
    2.7925   -1.8088   -6.9178 H   0  0  0  0  0  0  0  0  0  0  0  0
    2.3345    0.5704   -7.4208 H   0  0  0  0  0  0  0  0  0  0  0  0
    1.0153    1.9778   -5.8349 H   0  0  0  0  0  0  0  0  0  0  0  0
   -0.1432    0.0568    1.9703 H   0  0  0  0  0  0  0  0  0  0  0  0
  1  2  2  0  0  0  0
  1 23  1  0  0  0  0
  3  4  1  6  0  0  0
  3  5  1  0  0  0  0
  3  1  1  0  0  0  0
  5 25  1  0  0  0  0
  5 24  1  0  0  0  0
  6  5  1  0  0  0  0
  7 26  1  0  0  0  0
  7  6  2  0  0  0  0
  8  7  1  0  0  0  0
  9  8  2  0  0  0  0
  9 10  1  0  0  0  0
 10 11  2  0  0  0  0
 11  6  1  0  0  0  0
 11 30  1  0  0  0  0
 12  3  1  0  0  0  0
 13 12  1  0  0  0  0
 13 14  2  0  0  0  0
 15 13  1  0  0  0  0
 16 31  1  0  0  0  0
 16 15  2  0  0  0  0
 17 16  1  0  0  0  0
 18 17  2  0  0  0  0
 18 19  1  0  0  0  0
 19 20  2  0  0  0  0
 20 15  1  0  0  0  0
 20 21  1  0  0  0  0
 21 22  2  0  0  0  0
 21 12  1  0  0  0  0
 23 35  1  0  0  0  0
 27  8  1  0  0  0  0
 28  9  1  0  0  0  0
 29 10  1  0  0  0  0
 32 17  1  0  0  0  0
 33 18  1  0  0  0  0
 34 19  1  0  0  0  0
M  END
$$$$
