48
rmsd194.gzmat
S          0.00000        0.00000        0.00000
O          1.43670        0.00000        0.00000
O         -0.73800        0.00000       -1.23860
N         -0.54640        1.51230        0.75140
C         -0.21750        1.89530        2.02000
O          0.47670        1.27120        2.79480
N         -0.69760        3.16030        2.53220
C         -1.59890        4.03140        1.98240
N         -2.22290        3.74000        0.79680
C         -3.09970        4.68170        0.35880
O         -3.69860        4.33710       -0.78690
C         -4.60260        5.30310       -1.34200
N         -3.37650        5.85210        0.98900
C         -2.71190        6.07290        2.15940
N         -1.83310        5.19270        2.68790
C         -2.96080        7.34990        2.88060
C         -0.60670       -1.22050        1.04310
C         -1.93010       -1.64680        1.19070
N         -1.98550       -2.69860        2.08410
C         -0.69530       -2.95340        2.55470
C         -0.23820       -3.90080        3.48470
C          1.11360       -3.91470        3.75830
C          2.00360       -3.01120        3.13040
C          1.56230       -2.07790        2.21640
C          0.19230       -2.03360        1.90850
C         -3.17650       -3.41260        2.50020
C         -3.14580       -1.12350        0.52640
O         -4.05730       -1.77970        0.09000
O         -3.10630        0.22300        0.52210
C         -4.09670        0.87620       -0.27390
H         -1.21270        2.09340        0.21500
H         -0.30840        3.42270        3.45200
H         -4.93040        4.79020       -2.25570
H         -4.07890        6.23840       -1.56800
H         -5.43640        5.49120       -0.65700
H         -2.18090        8.09240        2.63300
H         -2.93370        7.21010        3.97500
H         -3.93320        7.79240        2.60720
H         -0.92360       -4.58680        3.96870
H          1.51700       -4.63100        4.47350
H          3.06050       -3.06080        3.38870
H          2.25290       -1.37260        1.73920
H         -3.59070       -2.98020        3.43150
H         -2.94910       -4.47970        2.68280
H         -3.96490       -3.37560        1.71800
H         -5.10140        0.59710        0.05060
H         -3.93720        0.62980       -1.32990
H         -3.88530        1.93800       -0.08210
