
     RDKit          3D

 48 50  0  0  0  0  0  0  0  0999 V2000
   -0.1357    0.1308    0.0691 S   0  0  0  0  0  0  0  0  0  0  0  0
    1.3183    0.0509    0.0433 O   0  0  0  0  0  0  0  0  0  0  0  0
   -0.9090    0.1330   -1.1713 O   0  0  0  0  0  0  0  0  0  0  0  0
   -0.5844    1.5981    0.8009 N   0  0  0  0  0  0  0  0  0  0  0  0
   -0.2477    1.9391    2.0811 C   0  0  0  0  0  0  0  0  0  0  0  0
    0.4499    1.2897    2.8273 O   0  0  0  0  0  0  0  0  0  0  0  0
   -0.8004    3.1622    2.5239 N   0  0  0  0  0  0  0  0  0  0  0  0
   -1.6255    4.0675    1.9098 C   0  0  0  0  0  0  0  0  0  0  0  0
   -1.9190    5.1605    2.6273 N   0  0  0  0  0  0  0  0  0  0  0  0
   -2.7085    6.0370    2.0118 C   0  0  0  0  0  0  0  0  0  0  0  0
   -3.0613    7.1446    2.6444 O   0  0  0  0  0  0  0  0  0  0  0  0
   -2.5742    7.3563    3.9681 C   0  0  0  0  0  0  0  0  0  0  0  0
   -3.1971    5.9111    0.7708 N   0  0  0  0  0  0  0  0  0  0  0  0
   -2.8557    4.7923    0.1412 C   0  0  0  0  0  0  0  0  0  0  0  0
   -2.0792    3.8302    0.6707 N   0  0  0  0  0  0  0  0  0  0  0  0
   -3.3866    4.5759   -1.2437 C   0  0  0  0  0  0  0  0  0  0  0  0
   -0.7110   -1.1244    1.1623 C   0  0  0  0  0  0  0  0  0  0  0  0
   -2.0156   -1.6055    1.2681 C   0  0  0  0  0  0  0  0  0  0  0  0
   -2.0172   -2.7077    2.0950 N   0  0  0  0  0  0  0  0  0  0  0  0
   -0.7312   -2.9259    2.5549 C   0  0  0  0  0  0  0  0  0  0  0  0
   -0.2611   -3.9059    3.4429 C   0  0  0  0  0  0  0  0  0  0  0  0
    1.0957   -3.8941    3.7412 C   0  0  0  0  0  0  0  0  0  0  0  0
    1.9648   -2.9302    3.1787 C   0  0  0  0  0  0  0  0  0  0  0  0
    1.5023   -1.9586    2.3028 C   0  0  0  0  0  0  0  0  0  0  0  0
    0.1308   -1.9496    1.9812 C   0  0  0  0  0  0  0  0  0  0  0  0
   -3.1598   -3.5038    2.5092 C   0  0  0  0  0  0  0  0  0  0  0  0
   -3.2421   -1.1004    0.6089 C   0  0  0  0  0  0  0  0  0  0  0  0
   -4.1694   -1.7852    0.2394 O   0  0  0  0  0  0  0  0  0  0  0  0
   -3.1981    0.2306    0.4922 O   0  0  0  0  0  0  0  0  0  0  0  0
   -4.1831    0.8405   -0.3406 C   0  0  0  0  0  0  0  0  0  0  0  0
   -1.2655    2.1868    0.2997 H   0  0  0  0  0  0  0  0  0  0  0  0
   -0.5130    3.4111    3.4656 H   0  0  0  0  0  0  0  0  0  0  0  0
   -2.9873    8.3212    4.2854 H   0  0  0  0  0  0  0  0  0  0  0  0
   -1.4747    7.3871    3.9815 H   0  0  0  0  0  0  0  0  0  0  0  0
   -2.9098    6.5552    4.6432 H   0  0  0  0  0  0  0  0  0  0  0  0
   -4.4319    4.2287   -1.1827 H   0  0  0  0  0  0  0  0  0  0  0  0
   -2.7963    3.8219   -1.7795 H   0  0  0  0  0  0  0  0  0  0  0  0
   -3.3962    5.5267   -1.7934 H   0  0  0  0  0  0  0  0  0  0  0  0
   -0.9309   -4.6459    3.8833 H   0  0  0  0  0  0  0  0  0  0  0  0
    1.4990   -4.6425    4.4273 H   0  0  0  0  0  0  0  0  0  0  0  0
    3.0235   -2.9504    3.4463 H   0  0  0  0  0  0  0  0  0  0  0  0
    2.1596   -1.2057    1.8723 H   0  0  0  0  0  0  0  0  0  0  0  0
   -2.9370   -4.5701    2.3546 H   0  0  0  0  0  0  0  0  0  0  0  0
   -4.0284   -3.2365    1.9008 H   0  0  0  0  0  0  0  0  0  0  0  0
   -3.3779   -3.3408    3.5770 H   0  0  0  0  0  0  0  0  0  0  0  0
   -4.0618    1.9196   -0.1985 H   0  0  0  0  0  0  0  0  0  0  0  0
   -5.1936    0.5167   -0.0549 H   0  0  0  0  0  0  0  0  0  0  0  0
   -3.9951    0.5741   -1.3914 H   0  0  0  0  0  0  0  0  0  0  0  0
  1  2  2  0
  1  3  2  0
  1  4  1  0
  1 17  1  0
  4  5  1  0
  4 31  1  0
  5  6  2  0
  5  7  1  0
  7  8  1  0
  7 32  1  0
  8  9  2  0
  8 15  1  0
  9 10  1  0
 10 11  1  0
 10 13  2  0
 11 12  1  0
 12 33  1  0
 12 34  1  0
 12 35  1  0
 13 14  1  0
 14 15  2  0
 14 16  1  0
 16 36  1  0
 16 37  1  0
 16 38  1  0
 17 18  2  0
 17 25  1  0
 18 19  1  0
 18 27  1  0
 19 20  1  0
 19 26  1  0
 20 21  1  0
 20 25  2  0
 21 22  2  0
 21 39  1  0
 22 23  1  0
 22 40  1  0
 23 24  2  0
 23 41  1  0
 24 25  1  0
 24 42  1  0
 26 43  1  0
 26 44  1  0
 26 45  1  0
 27 28  2  0
 27 29  1  0
 29 30  1  0
 30 46  1  0
 30 47  1  0
 30 48  1  0
M  END

