rmsd162.gzmat
 OpenBabel08211713413D

 48 50  0  0  0  0  0  0  0  0999 V2000
    0.0000    0.0000    0.0000 S   0  0  0  0  0  0  0  0  0  0  0  0
    1.4366    0.0000    0.0000 O   0  0  0  0  0  0  0  0  0  0  0  0
   -0.7335    0.0000   -1.2422 O   0  0  0  0  0  0  0  0  0  0  0  0
   -0.5536    1.5186    0.7341 N   0  0  0  0  0  0  0  0  0  0  0  0
   -0.3912    1.8319    2.0540 C   0  0  0  0  0  0  0  0  0  0  0  0
    0.1930    1.1567    2.8760 O   0  0  0  0  0  0  0  0  0  0  0  0
   -0.9446    3.0624    2.5680 N   0  0  0  0  0  0  0  0  0  0  0  0
   -1.7636    3.9726    1.9502 C   0  0  0  0  0  0  0  0  0  0  0  0
   -2.1659    5.0366    2.7249 N   0  0  0  0  0  0  0  0  0  0  0  0
   -2.9794    5.9320    2.1084 C   0  0  0  0  0  0  0  0  0  0  0  0
   -3.4395    7.0067    2.7538 O   0  0  0  0  0  0  0  0  0  0  0  0
   -2.9912    7.1633    4.1095 C   0  0  0  0  0  0  0  0  0  0  0  0
   -3.4097    5.8436    0.8135 N   0  0  0  0  0  0  0  0  0  0  0  0
   -2.9637    4.7726    0.1173 C   0  0  0  0  0  0  0  0  0  0  0  0
   -2.1502    3.8201    0.6439 N   0  0  0  0  0  0  0  0  0  0  0  0
   -3.3945    4.6216   -1.2995 C   0  0  0  0  0  0  0  0  0  0  0  0
   -0.6054   -1.2088    1.0567 C   0  0  0  0  0  0  0  0  0  0  0  0
   -1.9340   -1.5936    1.2617 C   0  0  0  0  0  0  0  0  0  0  0  0
   -1.9852   -2.6294    2.1746 N   0  0  0  0  0  0  0  0  0  0  0  0
   -0.6863   -2.9159    2.5988 C   0  0  0  0  0  0  0  0  0  0  0  0
   -0.2238   -3.8613    3.5284 C   0  0  0  0  0  0  0  0  0  0  0  0
    1.1361   -3.9162    3.7486 C   0  0  0  0  0  0  0  0  0  0  0  0
    2.0295   -3.0561    3.0665 C   0  0  0  0  0  0  0  0  0  0  0  0
    1.5825   -2.1241    2.1539 C   0  0  0  0  0  0  0  0  0  0  0  0
    0.2027   -2.0360    1.9013 C   0  0  0  0  0  0  0  0  0  0  0  0
   -3.1808   -3.2928    2.6563 C   0  0  0  0  0  0  0  0  0  0  0  0
   -3.1658   -1.0544    0.6439 C   0  0  0  0  0  0  0  0  0  0  0  0
   -4.1043   -1.6959    0.2456 O   0  0  0  0  0  0  0  0  0  0  0  0
   -3.1138    0.2934    0.6363 O   0  0  0  0  0  0  0  0  0  0  0  0
   -4.1655    0.9541   -0.0685 C   0  0  0  0  0  0  0  0  0  0  0  0
   -1.1183    2.1554    0.1486 H   0  0  0  0  0  0  0  0  0  0  0  0
   -0.7203    3.2456    3.5589 H   0  0  0  0  0  0  0  0  0  0  0  0
   -3.5020    8.0916    4.3970 H   0  0  0  0  0  0  0  0  0  0  0  0
   -1.9016    7.2738    4.1461 H   0  0  0  0  0  0  0  0  0  0  0  0
   -3.3112    6.3168    4.7268 H   0  0  0  0  0  0  0  0  0  0  0  0
   -2.8608    3.8030   -1.8124 H   0  0  0  0  0  0  0  0  0  0  0  0
   -3.2183    5.5531   -1.8681 H   0  0  0  0  0  0  0  0  0  0  0  0
   -4.4780    4.4212   -1.3632 H   0  0  0  0  0  0  0  0  0  0  0  0
   -0.9124   -4.5141    4.0521 H   0  0  0  0  0  0  0  0  0  0  0  0
    1.5437   -4.6308    4.4633 H   0  0  0  0  0  0  0  0  0  0  0  0
    3.0939   -3.1405    3.2823 H   0  0  0  0  0  0  0  0  0  0  0  0
    2.2773   -1.4530    1.6357 H   0  0  0  0  0  0  0  0  0  0  0  0
   -3.5577   -2.8073    3.5775 H   0  0  0  0  0  0  0  0  0  0  0  0
   -2.9738   -4.3557    2.8823 H   0  0  0  0  0  0  0  0  0  0  0  0
   -3.9908   -3.2721    1.8962 H   0  0  0  0  0  0  0  0  0  0  0  0
   -3.9497    2.0126    0.1310 H   0  0  0  0  0  0  0  0  0  0  0  0
   -5.1423    0.6587    0.3243 H   0  0  0  0  0  0  0  0  0  0  0  0
   -4.0874    0.7270   -1.1384 H   0  0  0  0  0  0  0  0  0  0  0  0
  1  2  2  0  0  0  0
  1  4  1  0  0  0  0
  1 17  1  0  0  0  0
  3  1  2  0  0  0  0
  4  5  1  0  0  0  0
  5  7  1  0  0  0  0
  5  6  2  0  0  0  0
  7 32  1  0  0  0  0
  8  7  1  0  0  0  0
  8  9  2  0  0  0  0
 10  9  2  0  0  0  0
 10 11  1  0  0  0  0
 11 12  1  0  0  0  0
 12 34  1  0  0  0  0
 12 33  1  0  0  0  0
 12 35  1  0  0  0  0
 13 10  2  0  0  0  0
 14 15  2  0  0  0  0
 14 13  2  0  0  0  0
 15  8  2  0  0  0  0
 16 14  1  0  0  0  0
 17 18  2  0  0  0  0
 17 25  1  0  0  0  0
 18 19  1  0  0  0  0
 19 20  1  0  0  0  0
 19 26  1  0  0  0  0
 20 21  2  0  0  0  0
 21 22  1  0  0  0  0
 21 39  1  0  0  0  0
 22 40  1  0  0  0  0
 23 41  1  0  0  0  0
 23 22  2  0  0  0  0
 24 23  1  0  0  0  0
 25 24  2  0  0  0  0
 25 20  1  0  0  0  0
 26 44  1  0  0  0  0
 26 43  1  0  0  0  0
 27 18  1  0  0  0  0
 28 27  2  0  0  0  0
 29 27  1  0  0  0  0
 30 46  1  0  0  0  0
 30 47  1  0  0  0  0
 30 29  1  0  0  0  0
 31  4  1  0  0  0  0
 36 16  1  0  0  0  0
 37 16  1  0  0  0  0
 38 16  1  0  0  0  0
 42 24  1  0  0  0  0
 45 26  1  0  0  0  0
 48 30  1  0  0  0  0
M  END
$$$$
