rmsd69.gzmat
 OpenBabel08211713413D

 48 50  0  0  0  0  0  0  0  0999 V2000
    0.0000    0.0000    0.0000 S   0  0  0  0  0  0  0  0  0  0  0  0
    1.4370    0.0000    0.0000 O   0  0  0  0  0  0  0  0  0  0  0  0
   -0.7333    0.0000   -1.2420 O   0  0  0  0  0  0  0  0  0  0  0  0
   -0.5482    1.5212    0.7324 N   0  0  0  0  0  0  0  0  0  0  0  0
   -0.3934    1.8321    2.0540 C   0  0  0  0  0  0  0  0  0  0  0  0
    0.1658    1.1448    2.8834 O   0  0  0  0  0  0  0  0  0  0  0  0
   -0.9157    3.0802    2.5575 N   0  0  0  0  0  0  0  0  0  0  0  0
   -1.7089    4.0062    1.9300 C   0  0  0  0  0  0  0  0  0  0  0  0
   -2.0518    5.1067    2.6816 N   0  0  0  0  0  0  0  0  0  0  0  0
   -2.8353    6.0209    2.0535 C   0  0  0  0  0  0  0  0  0  0  0  0
   -3.2227    7.1381    2.6735 O   0  0  0  0  0  0  0  0  0  0  0  0
   -2.7424    7.3054    4.0174 C   0  0  0  0  0  0  0  0  0  0  0  0
   -3.2982    5.9133    0.7713 N   0  0  0  0  0  0  0  0  0  0  0  0
   -2.9156    4.8028    0.0997 C   0  0  0  0  0  0  0  0  0  0  0  0
   -2.1289    3.8333    0.6366 N   0  0  0  0  0  0  0  0  0  0  0  0
   -3.3881    4.6235   -1.3001 C   0  0  0  0  0  0  0  0  0  0  0  0
   -0.6033   -1.2102    1.0557 C   0  0  0  0  0  0  0  0  0  0  0  0
   -1.9301   -1.5965    1.2658 C   0  0  0  0  0  0  0  0  0  0  0  0
   -1.9763   -2.6386    2.1723 N   0  0  0  0  0  0  0  0  0  0  0  0
   -0.6758   -2.9266    2.5890 C   0  0  0  0  0  0  0  0  0  0  0  0
   -0.2065   -3.8746    3.5127 C   0  0  0  0  0  0  0  0  0  0  0  0
    1.1545   -3.9260    3.7277 C   0  0  0  0  0  0  0  0  0  0  0  0
    2.0427   -3.0593    3.0469 C   0  0  0  0  0  0  0  0  0  0  0  0
    1.5895   -2.1253    2.1397 C   0  0  0  0  0  0  0  0  0  0  0  0
    0.2087   -2.0413    1.8923 C   0  0  0  0  0  0  0  0  0  0  0  0
   -3.1763   -3.3000    2.6458 C   0  0  0  0  0  0  0  0  0  0  0  0
   -3.1711   -1.0542    0.6700 C   0  0  0  0  0  0  0  0  0  0  0  0
   -4.1158   -1.6939    0.2830 O   0  0  0  0  0  0  0  0  0  0  0  0
   -3.1194    0.2935    0.6684 O   0  0  0  0  0  0  0  0  0  0  0  0
   -4.2055    0.9570    0.0211 C   0  0  0  0  0  0  0  0  0  0  0  0
   -1.0999    2.1651    0.1426 H   0  0  0  0  0  0  0  0  0  0  0  0
   -0.6768    3.2726    3.5435 H   0  0  0  0  0  0  0  0  0  0  0  0
   -3.1503    8.2930    4.2684 H   0  0  0  0  0  0  0  0  0  0  0  0
   -1.6470    7.3020    4.0464 H   0  0  0  0  0  0  0  0  0  0  0  0
   -3.1439    6.5222    4.6692 H   0  0  0  0  0  0  0  0  0  0  0  0
   -2.8286    3.8329   -1.8295 H   0  0  0  0  0  0  0  0  0  0  0  0
   -3.2869    5.5612   -1.8769 H   0  0  0  0  0  0  0  0  0  0  0  0
   -4.4591    4.3581   -1.3225 H   0  0  0  0  0  0  0  0  0  0  0  0
   -0.8904   -4.5318    4.0373 H   0  0  0  0  0  0  0  0  0  0  0  0
    1.5669   -4.6424    4.4376 H   0  0  0  0  0  0  0  0  0  0  0  0
    3.1080   -3.1385    3.2591 H   0  0  0  0  0  0  0  0  0  0  0  0
    2.2805   -1.4493    1.6225 H   0  0  0  0  0  0  0  0  0  0  0  0
   -3.6438   -2.7281    3.4707 H   0  0  0  0  0  0  0  0  0  0  0  0
   -2.9468   -4.3163    3.0152 H   0  0  0  0  0  0  0  0  0  0  0  0
   -3.9240   -3.4053    1.8299 H   0  0  0  0  0  0  0  0  0  0  0  0
   -5.1322    0.7872    0.5757 H   0  0  0  0  0  0  0  0  0  0  0  0
   -4.3006    0.6112   -1.0147 H   0  0  0  0  0  0  0  0  0  0  0  0
   -3.8914    2.0094    0.0623 H   0  0  0  0  0  0  0  0  0  0  0  0
  1  4  1  0  0  0  0
  1 17  1  0  0  0  0
  2  1  2  0  0  0  0
  3  1  2  0  0  0  0
  4  5  1  0  0  0  0
  5  7  1  0  0  0  0
  5  6  2  0  0  0  0
  7 32  1  0  0  0  0
  8  7  1  0  0  0  0
  8  9  2  0  0  0  0
 10 11  1  0  0  0  0
 10  9  2  0  0  0  0
 11 12  1  0  0  0  0
 12 34  1  0  0  0  0
 12 33  1  0  0  0  0
 12 35  1  0  0  0  0
 13 10  2  0  0  0  0
 14 15  2  0  0  0  0
 14 13  2  0  0  0  0
 15  8  2  0  0  0  0
 16 14  1  0  0  0  0
 17 18  2  0  0  0  0
 17 25  1  0  0  0  0
 18 19  1  0  0  0  0
 19 20  1  0  0  0  0
 19 26  1  0  0  0  0
 20 21  2  0  0  0  0
 21 22  1  0  0  0  0
 21 39  1  0  0  0  0
 22 40  1  0  0  0  0
 23 41  1  0  0  0  0
 23 22  2  0  0  0  0
 24 23  1  0  0  0  0
 25 24  2  0  0  0  0
 25 20  1  0  0  0  0
 26 44  1  0  0  0  0
 26 43  1  0  0  0  0
 27 18  1  0  0  0  0
 28 27  2  0  0  0  0
 29 27  1  0  0  0  0
 30 48  1  0  0  0  0
 30 46  1  0  0  0  0
 30 29  1  0  0  0  0
 31  4  1  0  0  0  0
 36 16  1  0  0  0  0
 37 16  1  0  0  0  0
 38 16  1  0  0  0  0
 42 24  1  0  0  0  0
 45 26  1  0  0  0  0
 47 30  1  0  0  0  0
M  END
$$$$
