rmsd161.gzmat
 OpenBabel08211713413D

 48 50  0  0  0  0  0  0  0  0999 V2000
    0.0000    0.0000    0.0000 S   0  0  0  0  0  0  0  0  0  0  0  0
    1.4370    0.0000    0.0000 O   0  0  0  0  0  0  0  0  0  0  0  0
   -0.7323    0.0000   -1.2428 O   0  0  0  0  0  0  0  0  0  0  0  0
   -0.5493    1.5208    0.7312 N   0  0  0  0  0  0  0  0  0  0  0  0
   -0.4511    1.8094    2.0631 C   0  0  0  0  0  0  0  0  0  0  0  0
    0.0825    1.1133    2.9019 O   0  0  0  0  0  0  0  0  0  0  0  0
   -1.0263    3.0323    2.5714 N   0  0  0  0  0  0  0  0  0  0  0  0
   -1.7717    3.9776    1.9151 C   0  0  0  0  0  0  0  0  0  0  0  0
   -2.2309    5.0214    2.6847 N   0  0  0  0  0  0  0  0  0  0  0  0
   -2.9680    5.9516    2.0246 C   0  0  0  0  0  0  0  0  0  0  0  0
   -3.4756    7.0079    2.6644 O   0  0  0  0  0  0  0  0  0  0  0  0
   -3.1700    7.0966    4.0654 C   0  0  0  0  0  0  0  0  0  0  0  0
   -3.2672    5.9193    0.6909 N   0  0  0  0  0  0  0  0  0  0  0  0
   -2.7723    4.8644    0.0028 C   0  0  0  0  0  0  0  0  0  0  0  0
   -2.0366    3.8756    0.5741 N   0  0  0  0  0  0  0  0  0  0  0  0
   -3.0418    4.7757   -1.4579 C   0  0  0  0  0  0  0  0  0  0  0  0
   -0.6027   -1.2107    1.0551 C   0  0  0  0  0  0  0  0  0  0  0  0
   -1.9291   -1.5959    1.2709 C   0  0  0  0  0  0  0  0  0  0  0  0
   -1.9721   -2.6380    2.1769 N   0  0  0  0  0  0  0  0  0  0  0  0
   -0.6695   -2.9276    2.5871 C   0  0  0  0  0  0  0  0  0  0  0  0
   -0.1965   -3.8779    3.5063 C   0  0  0  0  0  0  0  0  0  0  0  0
    1.1655   -3.9315    3.7134 C   0  0  0  0  0  0  0  0  0  0  0  0
    2.0515   -3.0661    3.0286 C   0  0  0  0  0  0  0  0  0  0  0  0
    1.5947   -2.1298    2.1257 C   0  0  0  0  0  0  0  0  0  0  0  0
    0.2126   -2.0430    1.8869 C   0  0  0  0  0  0  0  0  0  0  0  0
   -3.1668   -3.2968    2.6672 C   0  0  0  0  0  0  0  0  0  0  0  0
   -3.1680   -1.0511    0.6726 C   0  0  0  0  0  0  0  0  0  0  0  0
   -4.1113   -1.6876    0.2781 O   0  0  0  0  0  0  0  0  0  0  0  0
   -3.1137    0.2969    0.6779 O   0  0  0  0  0  0  0  0  0  0  0  0
   -4.1713    0.9673   -0.0082 C   0  0  0  0  0  0  0  0  0  0  0  0
   -1.0614    2.1839    0.1263 H   0  0  0  0  0  0  0  0  0  0  0  0
   -0.8742    3.1859    3.5807 H   0  0  0  0  0  0  0  0  0  0  0  0
   -3.7030    8.0159    4.3415 H   0  0  0  0  0  0  0  0  0  0  0  0
   -2.0895    7.1930    4.2199 H   0  0  0  0  0  0  0  0  0  0  0  0
   -3.5569    6.2256    4.6057 H   0  0  0  0  0  0  0  0  0  0  0  0
   -2.7723    3.7889   -1.8721 H   0  0  0  0  0  0  0  0  0  0  0  0
   -2.4558    5.5354   -2.0073 H   0  0  0  0  0  0  0  0  0  0  0  0
   -4.1035    4.9750   -1.6842 H   0  0  0  0  0  0  0  0  0  0  0  0
   -0.8777   -4.5363    4.0330 H   0  0  0  0  0  0  0  0  0  0  0  0
    1.5812   -4.6491    4.4201 H   0  0  0  0  0  0  0  0  0  0  0  0
    3.1180   -3.1494    3.2336 H   0  0  0  0  0  0  0  0  0  0  0  0
    2.2841   -1.4551    1.6050 H   0  0  0  0  0  0  0  0  0  0  0  0
   -3.5631   -2.7800    3.5628 H   0  0  0  0  0  0  0  0  0  0  0  0
   -2.9522   -4.3473    2.9384 H   0  0  0  0  0  0  0  0  0  0  0  0
   -3.9649   -3.3143    1.8944 H   0  0  0  0  0  0  0  0  0  0  0  0
   -3.8938    2.0235    0.1110 H   0  0  0  0  0  0  0  0  0  0  0  0
   -5.1328    0.7447    0.4620 H   0  0  0  0  0  0  0  0  0  0  0  0
   -4.1742    0.6752   -1.0649 H   0  0  0  0  0  0  0  0  0  0  0  0
  1  2  2  0  0  0  0
  1  4  1  0  0  0  0
  1 17  1  0  0  0  0
  3  1  2  0  0  0  0
  4  5  1  0  0  0  0
  5  7  1  0  0  0  0
  5  6  2  0  0  0  0
  7 32  1  0  0  0  0
  8  7  1  0  0  0  0
  8  9  2  0  0  0  0
 10 11  1  0  0  0  0
 10  9  2  0  0  0  0
 11 12  1  0  0  0  0
 12 34  1  0  0  0  0
 12 33  1  0  0  0  0
 12 35  1  0  0  0  0
 13 10  2  0  0  0  0
 14 15  2  0  0  0  0
 14 13  2  0  0  0  0
 15  8  2  0  0  0  0
 16 14  1  0  0  0  0
 17 18  2  0  0  0  0
 17 25  1  0  0  0  0
 18 19  1  0  0  0  0
 19 20  1  0  0  0  0
 19 26  1  0  0  0  0
 20 21  2  0  0  0  0
 21 22  1  0  0  0  0
 21 39  1  0  0  0  0
 22 40  1  0  0  0  0
 23 41  1  0  0  0  0
 23 22  2  0  0  0  0
 24 23  1  0  0  0  0
 25 24  2  0  0  0  0
 25 20  1  0  0  0  0
 26 44  1  0  0  0  0
 26 43  1  0  0  0  0
 27 29  1  0  0  0  0
 27 18  1  0  0  0  0
 28 27  2  0  0  0  0
 30 46  1  0  0  0  0
 30 47  1  0  0  0  0
 30 29  1  0  0  0  0
 31  4  1  0  0  0  0
 36 16  1  0  0  0  0
 37 16  1  0  0  0  0
 38 16  1  0  0  0  0
 42 24  1  0  0  0  0
 45 26  1  0  0  0  0
 48 30  1  0  0  0  0
M  END
$$$$
