48
rmsd141.gzmat
S          0.00000        0.00000        0.00000
O          1.44220        0.00000        0.00000
O         -0.72840        0.00000       -1.23860
N         -0.35250        1.52070        0.84360
C         -1.56620        1.82530        1.39220
O         -2.56540        1.13920        1.32640
N         -1.72640        3.05380        2.13310
C         -0.78890        3.99760        2.46450
N         -1.24700        5.05960        3.21020
C         -0.31460        5.99420        3.52800
O         -0.63770        7.07210        4.24700
C         -2.01600        7.17010        4.64060
N          1.00390        5.94580        3.16910
C          1.37480        4.86970        2.43710
N          0.51980        3.87800        2.07380
C          2.79390        4.76150        2.00310
C         -0.60100       -1.21590        1.05290
C         -0.13430       -1.58240        2.31910
N         -0.86770       -2.65330        2.79510
C         -1.84560       -2.97920        1.85460
C         -2.83910       -3.97160        1.88450
C         -3.67760       -4.05870        0.79390
C         -3.54520       -3.18250       -0.31000
C         -2.57220       -2.20660       -0.34680
C         -1.69440       -2.08730        0.74460
C         -0.68810       -3.31120        4.07470
C          0.96440       -1.00310        3.12240
O          1.74890       -1.61460        3.80280
O          0.93900        0.34220        3.02920
C          2.01950        1.02950        3.66200
H          0.43220        2.17320        1.00380
H         -2.68570        3.21870        2.47750
H         -2.02150        8.13550        5.16360
H         -2.28360        6.34490        5.30940
H         -2.67480        7.18110        3.76490
H          3.03580        5.55050        1.26730
H          3.01350        3.78850        1.53150
H          3.48520        4.90570        2.85160
H         -2.94100       -4.63600        2.73450
H         -4.46490       -4.81180        0.77060
H         -4.23950       -3.29020       -1.14220
H         -2.48040       -1.52430       -1.20000
H          0.38440       -3.33940        4.36670
H         -1.04230       -4.35780        4.03170
H         -1.25010       -2.78650        4.87160
H          2.97850        0.67670        3.26590
H          1.96950        0.89120        4.74540
H          1.83180        2.07340        3.37490
