48
rmsd19.gzmat
S          0.00000        0.00000        0.00000
O          1.44270        0.00000        0.00000
O         -0.73900        0.00000       -1.23030
N         -0.37510        1.49480        0.88090
C         -1.64670        1.91440        1.14840
O         -2.66820        1.36500        0.79240
N         -1.85350        3.11840        1.92130
C         -0.93970        3.88780        2.59020
N          0.39830        3.58900        2.55310
C          1.19410        4.42280        3.27310
O          2.49140        4.09600        3.21150
C          3.37120        4.88260        4.02880
N          0.76550        5.49030        3.99520
C         -0.57630        5.73170        3.97030
N         -1.45210        4.95860        3.29190
C         -1.09610        6.90720        4.71910
C         -0.57930       -1.20980        1.07030
C          0.05300       -1.70480        2.21460
N         -0.71630       -2.70070        2.78100
C         -1.88310       -2.84660        2.02540
C         -2.98230       -3.70030        2.20660
C         -4.01160       -3.60600        1.29310
C         -3.96420       -2.68690        0.21810
C         -2.88620       -1.84740        0.03130
C         -1.81660       -1.91620        0.93900
C         -0.40120       -3.46280        3.97300
C          1.35150       -1.27890        2.78810
O          2.22040       -2.00290        3.20120
O          1.38960        0.06740        2.82620
C          2.67360        0.65860        3.03160
H          0.41730        2.01220        1.29760
H         -2.84340        3.40050        2.01300
H          4.34250        4.42260        3.80600
H          3.10510        4.78580        5.08690
H          3.34220        5.93600        3.72620
H         -2.14280        6.75820        5.03660
H         -1.07570        7.81050        4.08370
H         -0.48600        7.12510        5.61160
H         -3.01750       -4.39900        3.03410
H         -4.88750       -4.24660        1.39390
H         -4.80870       -2.64650       -0.46850
H         -2.85560       -1.12710       -0.79500
H          0.68070       -3.40850        4.21610
H         -0.64870       -4.53220        3.82940
H         -0.97250       -3.08610        4.84300
H          3.25090        0.55660        2.10230
H          3.19400        0.20500        3.87720
H          2.42030        1.71040        3.22410
