48
rmsd171.gzmat
S          0.00000        0.00000        0.00000
O          1.43610        0.00000        0.00000
O         -0.73920        0.00000       -1.23860
N         -0.55160        1.50720        0.75740
C         -0.23490        1.87690        2.03290
O          0.48190        1.26280        2.79510
N         -0.76760        3.10810        2.57350
C         -1.70410        3.95250        2.04040
N         -2.27570        3.68900        0.82280
C         -3.18860        4.60440        0.40170
O         -3.73540        4.28240       -0.77660
C         -4.64900        5.23790       -1.33360
N         -3.54790        5.72470        1.07840
C         -2.93810        5.91620        2.28420
N         -2.02570        5.06140        2.79540
C         -3.30030        7.12520        3.07140
C         -0.61230       -1.21450        1.04570
C         -1.92940       -1.67330        1.14540
N         -1.99940       -2.69900        2.06640
C         -0.72620       -2.90150        2.60580
C         -0.28760       -3.80200        3.58930
C          1.04860       -3.76370        3.92910
C          1.94260       -2.85510        3.31410
C          1.51990       -1.96770        2.34710
C          0.16610       -1.97730        1.97290
C         -3.18680       -3.44140        2.44140
C         -3.11780       -1.18970        0.40470
O         -3.98300       -1.87240       -0.08070
O         -3.10710        0.15780        0.39630
C         -3.99790        0.79150       -0.52290
H         -1.22560        2.08470        0.22650
H         -0.40710        3.35420        3.50960
H         -4.98490        4.71110       -2.23650
H         -4.12330        6.16760       -1.57630
H         -5.47890        5.44000       -0.64720
H         -3.04760        8.04690        2.51920
H         -2.77460        7.15540        4.04200
H         -4.38540        7.16040        3.26850
H         -0.97530       -4.49300        4.06280
H          1.43570       -4.44110        4.68990
H          2.98620       -2.86290        3.62540
H          2.21090       -1.25690        1.87900
H         -3.63390       -3.03020        3.36720
H         -2.94310       -4.50680        2.61580
H         -3.95540       -3.40910        1.64000
H         -5.02450        0.44870       -0.37850
H         -3.64880        0.59640       -1.54550
H         -3.88170        1.85440       -0.26560
