20
rmsd141.gzmat
O          0.00000        0.00000        0.00000
C          1.34820        0.00000        0.00000
O          1.94240        0.00000        1.04260
C          2.02490       -0.05220       -1.37780
H          2.11670       -1.14140       -1.65730
N          1.13280        0.59700       -2.35330
C          3.43310        0.56930       -1.27720
C          4.20920        0.31420       -2.49590
C          5.42910       -0.24410       -2.77710
Br         6.69290       -0.92220       -1.62330
C          5.52830       -0.18380       -4.22200
O          6.57480       -0.63610       -4.91080
N          4.42830        0.37730       -4.73740
O          3.60010        0.70610       -3.67740
H         -0.39360        0.05090       -0.91880
H          1.41190        0.38290       -3.30200
H          1.12190        1.60400       -2.25100
H          3.95770        0.15490       -0.37590
H          3.36870        1.66210       -1.06550
H          6.44700       -0.48690       -5.89750
