20
rmsd232.gzmat
O          0.00000        0.00000        0.00000
C          1.34450        0.00000        0.00000
O          1.94040        0.00000        1.04230
C          2.05650       -0.05920       -1.36640
H          2.48860       -1.09540       -1.44780
N          1.05760        0.14140       -2.42900
C          3.21820        0.96270       -1.36830
C          2.73150        2.34570       -1.45090
C          2.46110        3.35040       -0.56020
Br         2.65240        3.37130        1.26910
C          1.95510        4.43260       -1.38320
O          1.57240        5.61180       -0.89590
N          1.93460        4.06480       -2.66940
O          2.42590        2.77320       -2.73650
H         -0.39070       -0.00220       -0.92230
H          1.23250       -0.43300       -3.23890
H          1.00490        1.10740       -2.71940
H          3.91810        0.73790       -2.20460
H          3.82830        0.82170       -0.43730
H          1.25480        6.21890       -1.63200
