rmsd108.gzmat
 OpenBabel08211713423D

 20 20  0  0  1  0  0  0  0  0999 V2000
    0.0000    0.0000    0.0000 O   0  0  0  0  0  0  0  0  0  0  0  0
    1.3453    0.0000    0.0000 C   0  0  0  0  0  0  0  0  0  0  0  0
    1.9412    0.0000    1.0422 O   0  0  0  0  0  0  0  0  0  0  0  0
    2.0543   -0.0578   -1.3678 C   0  0  1  0  0  0  0  0  0  0  0  0
    2.4564   -1.1045   -1.4689 H   0  0  0  0  0  0  0  0  0  0  0  0
    1.0591    0.1898   -2.4236 N   0  0  0  0  0  0  0  0  0  0  0  0
    3.2458    0.9291   -1.3559 C   0  0  0  0  0  0  0  0  0  0  0  0
    2.8037    2.3294   -1.3756 C   0  0  0  0  0  0  0  0  0  0  0  0
    2.6370    3.3234   -0.4482 C   0  0  0  0  0  0  0  0  0  0  0  0
    2.9599    3.2964    1.3628 Br  0  0  0  0  0  0  0  0  0  0  0  0
    2.1184    4.4428   -1.2120 C   0  0  0  0  0  0  0  0  0  0  0  0
    1.8207    5.6263   -0.6780 O   0  0  0  0  0  0  0  0  0  0  0  0
    1.9929    4.1052   -2.5005 N   0  0  0  0  0  0  0  0  0  0  0  0
    2.4277    2.7979   -2.6280 O   0  0  0  0  0  0  0  0  0  0  0  0
   -0.3922   -0.0063   -0.9221 H   0  0  0  0  0  0  0  0  0  0  0  0
    1.2296   -0.3550   -3.2551 H   0  0  0  0  0  0  0  0  0  0  0  0
    1.0139    1.1671   -2.6758 H   0  0  0  0  0  0  0  0  0  0  0  0
    3.9208    0.7162   -2.2157 H   0  0  0  0  0  0  0  0  0  0  0  0
    3.8690    0.7332   -0.4434 H   0  0  0  0  0  0  0  0  0  0  0  0
    1.4716    6.2586   -1.3785 H   0  0  0  0  0  0  0  0  0  0  0  0
  1  2  1  0  0  0  0
  2  3  2  0  0  0  0
  4  5  1  6  0  0  0
  4  7  1  0  0  0  0
  4  2  1  0  0  0  0
  6  4  1  0  0  0  0
  7 19  1  0  0  0  0
  8  7  1  0  0  0  0
  8  9  2  0  0  0  0
  9 10  1  0  0  0  0
 11 12  1  0  0  0  0
 11  9  1  0  0  0  0
 13 11  2  0  0  0  0
 14 13  1  0  0  0  0
 14  8  1  0  0  0  0
 15  1  1  0  0  0  0
 16  6  1  0  0  0  0
 17  6  1  0  0  0  0
 18  7  1  0  0  0  0
 20 12  1  0  0  0  0
M  END
$$$$
