20

O          0.03690        0.10200       -0.09560
C          1.35720        0.12630        0.06910
O          1.90520        0.26560        1.13090
C          2.12960       -0.07880       -1.25310
H          2.40070       -1.14860       -1.26610
N          1.23720        0.16590       -2.38530
C          3.43350        0.74300       -1.23740
C          4.22480        0.53890       -2.47550
C          5.13430       -0.40870       -2.85850
Br         5.81710       -1.82930       -1.85260
C          5.43810       -0.07140       -4.21550
O          6.29450       -0.72600       -4.99650
N          4.76280        0.97970       -4.61410
O          3.99400        1.36390       -3.51680
H         -0.08930        0.02830       -1.07420
H          1.46870       -0.41450       -3.18900
H          1.29030        1.13650       -2.69860
H          4.01960        0.44810       -0.35680
H          3.19570        1.81340       -1.13310
H          6.32360       -0.28220       -5.85920
