20
rmsd13.gzmat
O          0.00000        0.00000        0.00000
C          1.35220        0.00000        0.00000
O          1.92680        0.00000        1.05290
C          2.06170        0.04110       -1.36170
H          1.57810        0.81340       -2.02060
N          3.47890        0.39750       -1.21380
C          1.99360       -1.35110       -2.02510
C          0.67110       -1.67730       -2.56330
C          0.01590       -2.84220       -2.86650
Br         0.59420       -4.57980       -2.68080
C         -1.27550       -2.41140       -3.36730
O         -2.22120       -3.25050       -3.78370
N         -1.35780       -1.07640       -3.34260
O         -0.14690       -0.59810       -2.86370
H         -0.42510       -0.07560       -0.88520
H          3.94930       -0.18030       -0.52830
H          3.60330        1.36630       -0.95730
H          2.33820       -2.13760       -1.31050
H          2.75850       -1.38320       -2.85060
H         -3.04800       -2.75150       -4.06720
