
     RDKit          3D

 20 20  0  0  0  0  0  0  0  0999 V2000
   -0.1332   -0.1576   -0.2516 O   0  0  0  0  0  0  0  0  0  0  0  0
    1.1553    0.0999   -0.0486 C   0  0  0  0  0  0  0  0  0  0  0  0
    1.6312    0.3886    1.0180 O   0  0  0  0  0  0  0  0  0  0  0  0
    2.0065   -0.0519   -1.3329 C   0  0  1  0  0  0  0  0  0  0  0  0
    2.4695   -1.0496   -1.2470 H   0  0  0  0  0  0  0  0  0  0  0  0
    1.1246   -0.0661   -2.4995 N   0  0  0  0  0  0  0  0  0  0  0  0
    3.1504    0.9840   -1.3448 C   0  0  0  0  0  0  0  0  0  0  0  0
    2.6666    2.3867   -1.4323 C   0  0  0  0  0  0  0  0  0  0  0  0
    2.6729    3.4436   -0.5653 C   0  0  0  0  0  0  0  0  0  0  0  0
    3.3838    3.5507    1.1558 Br  0  0  0  0  0  0  0  0  0  0  0  0
    1.9984    4.4851   -1.2829 C   0  0  0  0  0  0  0  0  0  0  0  0
    1.7755    5.7117   -0.8177 O   0  0  0  0  0  0  0  0  0  0  0  0
    1.6167    4.0910   -2.4727 N   0  0  0  0  0  0  0  0  0  0  0  0
    2.0390    2.7651   -2.5725 O   0  0  0  0  0  0  0  0  0  0  0  0
   -0.1993   -0.3180   -1.2270 H   0  0  0  0  0  0  0  0  0  0  0  0
    1.4850   -0.6556   -3.2469 H   0  0  0  0  0  0  0  0  0  0  0  0
    1.0031    0.8742   -2.8801 H   0  0  0  0  0  0  0  0  0  0  0  0
    3.8214    0.7718   -2.1932 H   0  0  0  0  0  0  0  0  0  0  0  0
    3.7227    0.8818   -0.4136 H   0  0  0  0  0  0  0  0  0  0  0  0
    1.2967    6.2147   -1.4957 H   0  0  0  0  0  0  0  0  0  0  0  0
  1  2  1  0
  1 15  1  0
  2  3  2  0
  2  4  1  0
  4  5  1  1
  4  6  1  0
  4  7  1  0
  6 16  1  0
  6 17  1  0
  7  8  1  0
  7 18  1  0
  7 19  1  0
  8  9  2  0
  8 14  1  0
  9 10  1  0
  9 11  1  0
 11 12  1  0
 11 13  2  0
 12 20  1  0
 13 14  1  0
M  END

