20

O         -0.13320       -0.15760       -0.25160
C          1.15530        0.09990       -0.04860
O          1.63120        0.38860        1.01800
C          2.00650       -0.05190       -1.33290
H          2.46950       -1.04960       -1.24700
N          1.12460       -0.06610       -2.49950
C          3.15040        0.98400       -1.34480
C          2.66660        2.38670       -1.43230
C          2.67290        3.44360       -0.56530
Br         3.38380        3.55070        1.15580
C          1.99840        4.48510       -1.28290
O          1.77550        5.71170       -0.81770
N          1.61670        4.09100       -2.47270
O          2.03900        2.76510       -2.57250
H         -0.19930       -0.31800       -1.22700
H          1.48500       -0.65560       -3.24690
H          1.00310        0.87420       -2.88010
H          3.82140        0.77180       -2.19320
H          3.72270        0.88180       -0.41360
H          1.29670        6.21470       -1.49570
