rmsd250.gzmat
 OpenBabel08211713423D

 20 20  0  0  1  0  0  0  0  0999 V2000
    0.0000    0.0000    0.0000 O   0  0  0  0  0  0  0  0  0  0  0  0
    1.3450    0.0000    0.0000 C   0  0  0  0  0  0  0  0  0  0  0  0
    1.9420    0.0000    1.0415 O   0  0  0  0  0  0  0  0  0  0  0  0
    2.0525   -0.0564   -1.3685 C   0  0  1  0  0  0  0  0  0  0  0  0
    2.4503   -1.1042   -1.4736 H   0  0  0  0  0  0  0  0  0  0  0  0
    1.0562    0.1977   -2.4219 N   0  0  0  0  0  0  0  0  0  0  0  0
    3.2466    0.9273   -1.3551 C   0  0  0  0  0  0  0  0  0  0  0  0
    2.8065    2.3285   -1.3652 C   0  0  0  0  0  0  0  0  0  0  0  0
    2.6349    3.3188   -0.4346 C   0  0  0  0  0  0  0  0  0  0  0  0
    2.9463    3.2827    1.3781 Br  0  0  0  0  0  0  0  0  0  0  0  0
    2.1181    4.4406   -1.1963 C   0  0  0  0  0  0  0  0  0  0  0  0
    1.8133    5.6222   -0.6617 O   0  0  0  0  0  0  0  0  0  0  0  0
    1.9988    4.1081   -2.4867 N   0  0  0  0  0  0  0  0  0  0  0  0
    2.4356    2.8023   -2.6176 O   0  0  0  0  0  0  0  0  0  0  0  0
   -0.3916    0.0008   -0.9225 H   0  0  0  0  0  0  0  0  0  0  0  0
    1.2181   -0.3521   -3.2517 H   0  0  0  0  0  0  0  0  0  0  0  0
    1.0191    1.1743   -2.6775 H   0  0  0  0  0  0  0  0  0  0  0  0
    3.9160    0.7184   -2.2206 H   0  0  0  0  0  0  0  0  0  0  0  0
    3.8739    0.7238   -0.4470 H   0  0  0  0  0  0  0  0  0  0  0  0
    1.4533    6.2490   -1.3614 H   0  0  0  0  0  0  0  0  0  0  0  0
  1  2  1  0  0  0  0
  2  3  2  0  0  0  0
  4  5  1  6  0  0  0
  4  7  1  0  0  0  0
  4  2  1  0  0  0  0
  6  4  1  0  0  0  0
  7 19  1  0  0  0  0
  8  7  1  0  0  0  0
  8  9  2  0  0  0  0
  9 10  1  0  0  0  0
 11 12  1  0  0  0  0
 11  9  1  0  0  0  0
 13 11  2  0  0  0  0
 14 13  1  0  0  0  0
 14  8  1  0  0  0  0
 15  1  1  0  0  0  0
 16  6  1  0  0  0  0
 17  6  1  0  0  0  0
 18  7  1  0  0  0  0
 20 12  1  0  0  0  0
M  END
$$$$
