rmsd12.gzmat
 OpenBabel08211713423D

 20 20  0  0  1  0  0  0  0  0999 V2000
    0.0000    0.0000    0.0000 O   0  0  0  0  0  0  0  0  0  0  0  0
    1.3518    0.0000    0.0000 C   0  0  0  0  0  0  0  0  0  0  0  0
    1.9277    0.0000    1.0523 O   0  0  0  0  0  0  0  0  0  0  0  0
    2.0619    0.0361   -1.3614 C   0  0  1  0  0  0  0  0  0  0  0  0
    1.5735    0.7972   -2.0294 H   0  0  0  0  0  0  0  0  0  0  0  0
    3.4760    0.4036   -1.2124 N   0  0  0  0  0  0  0  0  0  0  0  0
    2.0033   -1.3629   -2.0117 C   0  0  0  0  0  0  0  0  0  0  0  0
    0.6817   -1.6955   -2.5484 C   0  0  0  0  0  0  0  0  0  0  0  0
    0.0292   -2.8607   -2.8554 C   0  0  0  0  0  0  0  0  0  0  0  0
    0.6155   -4.5967   -2.6810 Br  0  0  0  0  0  0  0  0  0  0  0  0
   -1.2673   -2.4313   -3.3451 C   0  0  0  0  0  0  0  0  0  0  0  0
   -2.2138   -3.2695   -3.7606 O   0  0  0  0  0  0  0  0  0  0  0  0
   -1.3552   -1.0972   -3.3111 N   0  0  0  0  0  0  0  0  0  0  0  0
   -0.1429   -0.6177   -2.8367 O   0  0  0  0  0  0  0  0  0  0  0  0
   -0.4254   -0.0822   -0.8848 H   0  0  0  0  0  0  0  0  0  0  0  0
    3.9394   -0.1408   -0.4955 H   0  0  0  0  0  0  0  0  0  0  0  0
    3.5930    1.3832   -0.9983 H   0  0  0  0  0  0  0  0  0  0  0  0
    2.3498   -2.1425   -1.2909 H   0  0  0  0  0  0  0  0  0  0  0  0
    2.7706   -1.3993   -2.8338 H   0  0  0  0  0  0  0  0  0  0  0  0
   -3.0477   -2.7708   -4.0241 H   0  0  0  0  0  0  0  0  0  0  0  0
  2  1  1  0  0  0  0
  2  3  2  0  0  0  0
  4  5  1  6  0  0  0
  4  6  1  0  0  0  0
  4  2  1  0  0  0  0
  6 17  1  0  0  0  0
  6 16  1  0  0  0  0
  7  4  1  0  0  0  0
  7 18  1  0  0  0  0
  8  7  1  0  0  0  0
  9 10  1  0  0  0  0
  9  8  2  0  0  0  0
 11 13  2  0  0  0  0
 11  9  1  0  0  0  0
 12 11  1  0  0  0  0
 13 14  1  0  0  0  0
 14  8  1  0  0  0  0
 15  1  1  0  0  0  0
 19  7  1  0  0  0  0
 20 12  1  0  0  0  0
M  END
$$$$
