20

O         -0.04390        0.04810       -0.17470
C          1.29160       -0.03350       -0.05320
O          1.81230       -0.17870        1.02080
C          2.11480        0.04640       -1.35850
H          1.66480        0.81670       -2.00700
N          3.50220        0.38780       -1.12270
C          2.06250       -1.29970       -2.11990
C          0.70150       -1.73740       -2.52430
C          0.08970       -2.95430       -2.61040
Br         0.78860       -4.64170       -2.22130
C         -1.23610       -2.65220       -3.06670
O         -2.18630       -3.55350       -3.29090
N         -1.41300       -1.36560       -3.23550
O         -0.18500       -0.78160       -2.89760
H         -0.30450        0.13210       -1.10810
H          3.83390       -0.16590       -0.32910
H          3.56610        1.35610       -0.80840
H          2.51160       -2.09510       -1.50500
H          2.70470       -1.18540       -3.00880
H         -2.99040       -3.09240       -3.57930
