48
rmsd217.gzmat
N          0.00000        0.00000        0.00000
C          1.31980        0.00000        0.00000
C          2.09370        0.00000        1.19900
C          1.44320        0.01820        2.40420
C          0.01870        0.03020        2.43970
C         -0.71490        0.07140        3.64970
C         -2.08870        0.09970        3.61440
C         -2.79590        0.06300        2.39770
C         -2.11550       -0.01630        1.19100
N         -2.73250       -0.13810       -0.03920
C         -4.17400       -0.21240       -0.19360
H         -4.64600       -0.76730        0.67550
N         -4.72130        1.16540       -0.20690
C         -6.02220        1.38040       -0.65200
C         -7.04480        0.46250       -0.46500
C         -8.36450        0.76990       -0.84850
C         -8.68170        1.97900       -1.41910
C         -7.66610        2.94030       -1.64040
C         -7.92470        4.20720       -2.23920
C         -6.89260        5.08220       -2.45060
C         -5.57250        4.69310       -2.07150
N         -5.30190        3.53060       -1.50880
C         -6.33140        2.65090       -1.27270
C         -4.47400       -0.93950       -1.51290
N         -5.11280       -2.11600       -1.37050
C         -5.43690       -2.80470       -2.47890
C         -5.13860       -2.33940       -3.76740
C         -4.47360       -1.12260       -3.90080
C         -4.12730       -0.40400       -2.75760
C         -0.66530        0.00400        1.20160
H          1.81220        0.00000       -0.97940
H          3.17780       -0.01340        1.13200
H          1.99180        0.02320        3.34550
H         -0.17810        0.08660        4.59310
H         -2.65880        0.15060        4.54370
H         -3.88280        0.11160        2.42250
H         -2.15000       -0.10550       -0.87130
H         -4.04620        1.90200       -0.43570
H         -6.84480       -0.50890       -0.01520
H         -9.14030        0.02090       -0.68040
H         -9.70230        2.21140       -1.70870
H         -8.94780        4.45610       -2.51890
H         -7.04990        6.05820       -2.90000
H         -4.72430        5.36630       -2.24370
H         -5.95360       -3.75670       -2.31330
H         -5.42510       -2.91840       -4.64020
H         -4.22880       -0.73300       -4.88900
H         -3.61870        0.55510       -2.83230
