rmsd109.gzmat
 OpenBabel08211713383D

 48 52  0  0  1  0  0  0  0  0999 V2000
    0.0000    0.0000    0.0000 N   0  0  0  0  0  0  0  0  0  0  0  0
    1.3195    0.0000    0.0000 C   0  0  0  0  0  0  0  0  0  0  0  0
    2.0946    0.0000    1.1990 C   0  0  0  0  0  0  0  0  0  0  0  0
    1.4454    0.0059    2.4047 C   0  0  0  0  0  0  0  0  0  0  0  0
    0.0215    0.0148    2.4392 C   0  0  1  0  0  0  0  0  0  0  0  0
   -0.7126    0.0398    3.6514 C   0  0  0  0  0  0  0  0  0  0  0  0
   -2.0847    0.0546    3.6199 C   0  0  0  0  0  0  0  0  0  0  0  0
   -2.7899    0.0522    2.3984 C   0  0  0  0  0  0  0  0  0  0  0  0
   -2.1103    0.0400    1.1913 C   0  0  0  0  0  0  0  0  0  0  0  0
   -2.7840   -0.0244   -0.0354 N   0  0  0  0  0  0  0  0  0  0  0  0
   -3.8995    0.9111   -0.2666 C   0  0  1  0  0  0  0  0  0  0  0  0
   -4.4088    1.1579    0.7089 H   0  0  0  0  0  0  0  0  0  0  0  0
   -3.4817    2.1606   -0.9155 N   0  0  0  0  0  0  0  0  0  0  0  0
   -2.6837    3.0786   -0.2395 C   0  0  0  0  0  0  0  0  0  0  0  0
   -2.6481    3.1967    1.1412 C   0  0  0  0  0  0  0  0  0  0  0  0
   -1.8674    4.1925    1.7610 C   0  0  0  0  0  0  0  0  0  0  0  0
   -1.1323    5.0881    1.0246 C   0  0  0  0  0  0  0  0  0  0  0  0
   -1.1540    5.0184   -0.3900 C   0  0  1  0  0  0  0  0  0  0  0  0
   -0.4320    5.9301   -1.2123 C   0  0  0  0  0  0  0  0  0  0  0  0
   -0.4756    5.7982   -2.5748 C   0  0  0  0  0  0  0  0  0  0  0  0
   -1.2423    4.7344   -3.1370 C   0  0  0  0  0  0  0  0  0  0  0  0
   -1.9283    3.8802   -2.4017 N   0  0  0  0  0  0  0  0  0  0  0  0
   -1.9094    4.0117   -1.0350 C   0  0  0  0  0  0  0  0  0  0  0  0
   -4.8784    0.1981   -1.2087 C   0  0  0  0  0  0  0  0  0  0  0  0
   -4.4383   -0.0700   -2.4530 N   0  0  0  0  0  0  0  0  0  0  0  0
   -5.2589   -0.7157   -3.2997 C   0  0  0  0  0  0  0  0  0  0  0  0
   -6.5534   -1.1113   -2.9366 C   0  0  0  0  0  0  0  0  0  0  0  0
   -7.0016   -0.8218   -1.6494 C   0  0  0  0  0  0  0  0  0  0  0  0
   -6.1571   -0.1562   -0.7624 C   0  0  0  0  0  0  0  0  0  0  0  0
   -0.6648    0.0094    1.2022 C   0  0  0  0  0  0  0  0  0  0  0  0
    1.8127   -0.0007   -0.9802 H   0  0  0  0  0  0  0  0  0  0  0  0
    3.1785   -0.0040    1.1302 H   0  0  0  0  0  0  0  0  0  0  0  0
    1.9936    0.0050    3.3456 H   0  0  0  0  0  0  0  0  0  0  0  0
   -0.1733    0.0475    4.5944 H   0  0  0  0  0  0  0  0  0  0  0  0
   -2.6570    0.0684    4.5478 H   0  0  0  0  0  0  0  0  0  0  0  0
   -3.8761    0.0381    2.4238 H   0  0  0  0  0  0  0  0  0  0  0  0
   -2.1761   -0.1501   -0.8569 H   0  0  0  0  0  0  0  0  0  0  0  0
   -3.3161    2.0920   -1.9293 H   0  0  0  0  0  0  0  0  0  0  0  0
   -3.2158    2.5222    1.7765 H   0  0  0  0  0  0  0  0  0  0  0  0
   -1.8574    4.2362    2.8512 H   0  0  0  0  0  0  0  0  0  0  0  0
   -0.5293    5.8507    1.5080 H   0  0  0  0  0  0  0  0  0  0  0  0
    0.1441    6.7225   -0.7364 H   0  0  0  0  0  0  0  0  0  0  0  0
    0.0572    6.4757   -3.2346 H   0  0  0  0  0  0  0  0  0  0  0  0
   -1.2845    4.5927   -4.2231 H   0  0  0  0  0  0  0  0  0  0  0  0
   -4.8508   -0.9146   -4.2973 H   0  0  0  0  0  0  0  0  0  0  0  0
   -7.1894   -1.6316   -3.6458 H   0  0  0  0  0  0  0  0  0  0  0  0
   -8.0038   -1.1136   -1.3376 H   0  0  0  0  0  0  0  0  0  0  0  0
   -6.4844    0.0790    0.2458 H   0  0  0  0  0  0  0  0  0  0  0  0
  1  2  2  0  0  0  0
  1 30  2  0  0  0  0
  2  3  1  0  0  0  0
  3  4  2  0  0  0  0
  4 33  1  0  0  0  0
  5  4  1  6  0  0  0
  5 30  1  0  0  0  0
  5  6  1  0  0  0  0
  6 34  1  0  0  0  0
  7  6  2  0  0  0  0
  7 35  1  0  0  0  0
  8 36  1  0  0  0  0
  8  7  1  0  0  0  0
  9 30  1  0  0  0  0
  9  8  2  0  0  0  0
 10  9  1  0  0  0  0
 11 10  1  0  0  0  0
 11 12  1  1  0  0  0
 13 11  1  0  0  0  0
 13 14  1  0  0  0  0
 14 15  2  0  0  0  0
 15 16  1  0  0  0  0
 15 39  1  0  0  0  0
 16 40  1  0  0  0  0
 17 41  1  0  0  0  0
 17 16  2  0  0  0  0
 18 19  1  1  0  0  0
 18 17  1  0  0  0  0
 19 42  1  0  0  0  0
 20 19  2  0  0  0  0
 21 20  1  0  0  0  0
 21 22  2  0  0  0  0
 22 23  2  0  0  0  0
 23 18  1  0  0  0  0
 23 14  1  0  0  0  0
 24 29  1  0  0  0  0
 24 11  1  0  0  0  0
 25 24  2  0  0  0  0
 26 27  1  0  0  0  0
 26 25  2  0  0  0  0
 27 28  1  0  0  0  0
 28 47  1  0  0  0  0
 28 29  2  0  0  0  0
 29 48  1  0  0  0  0
 31  2  1  0  0  0  0
 32  3  1  0  0  0  0
 37 10  1  0  0  0  0
 38 13  1  0  0  0  0
 43 20  1  0  0  0  0
 44 21  1  0  0  0  0
 45 26  1  0  0  0  0
 46 27  1  0  0  0  0
M  RAD  3   5   2  18   2  27   2
M  END
$$$$
