
     RDKit          3D

 48 52  0  0  0  0  0  0  0  0999 V2000
   -0.2586   -0.6455    0.2755 N   0  0  0  0  0  0  0  0  0  0  0  0
    0.9916   -0.8022    0.6558 C   0  0  0  0  0  0  0  0  0  0  0  0
    1.4888   -0.3345    1.8977 C   0  0  0  0  0  0  0  0  0  0  0  0
    0.6247    0.3106    2.7562 C   0  0  0  0  0  0  0  0  0  0  0  0
   -0.7331    0.4965    2.3852 C   0  0  0  0  0  0  0  0  0  0  0  0
   -1.6933    1.1385    3.2126 C   0  0  0  0  0  0  0  0  0  0  0  0
   -2.9925    1.2609    2.7661 C   0  0  0  0  0  0  0  0  0  0  0  0
   -3.3987    0.7741    1.5025 C   0  0  0  0  0  0  0  0  0  0  0  0
   -2.4861    0.1453    0.6566 C   0  0  0  0  0  0  0  0  0  0  0  0
   -2.7882   -0.3413   -0.5866 N   0  0  0  0  0  0  0  0  0  0  0  0
   -4.1202   -0.4643   -1.0847 C   0  0  0  0  0  0  0  0  0  0  0  0
   -4.7820   -0.9044   -0.3095 H   0  0  0  0  0  0  0  0  0  0  0  0
   -4.6823    0.8302   -1.4255 N   0  0  0  0  0  0  0  0  0  0  0  0
   -5.8749    1.3262   -0.9835 C   0  0  0  0  0  0  0  0  0  0  0  0
   -6.9224    0.5594   -0.4727 C   0  0  0  0  0  0  0  0  0  0  0  0
   -8.1180    1.1712   -0.0294 C   0  0  0  0  0  0  0  0  0  0  0  0
   -8.3083    2.5353   -0.0976 C   0  0  0  0  0  0  0  0  0  0  0  0
   -7.2720    3.3548   -0.6221 C   0  0  0  0  0  0  0  0  0  0  0  0
   -7.3654    4.7672   -0.7323 C   0  0  0  0  0  0  0  0  0  0  0  0
   -6.3053    5.4881   -1.2393 C   0  0  0  0  0  0  0  0  0  0  0  0
   -5.1377    4.7931   -1.6403 C   0  0  0  0  0  0  0  0  0  0  0  0
   -5.0167    3.4847   -1.5569 N   0  0  0  0  0  0  0  0  0  0  0  0
   -6.0498    2.7602   -1.0647 C   0  0  0  0  0  0  0  0  0  0  0  0
   -4.1304   -1.4139   -2.2866 C   0  0  0  0  0  0  0  0  0  0  0  0
   -3.0635   -2.1919   -2.4633 N   0  0  0  0  0  0  0  0  0  0  0  0
   -3.0492   -3.0455   -3.4911 C   0  0  0  0  0  0  0  0  0  0  0  0
   -4.1097   -3.1697   -4.3892 C   0  0  0  0  0  0  0  0  0  0  0  0
   -5.2286   -2.3513   -4.2064 C   0  0  0  0  0  0  0  0  0  0  0  0
   -5.2403   -1.4515   -3.1428 C   0  0  0  0  0  0  0  0  0  0  0  0
   -1.1212   -0.0081    1.1040 C   0  0  0  0  0  0  0  0  0  0  0  0
    1.6608   -1.3238   -0.0391 H   0  0  0  0  0  0  0  0  0  0  0  0
    2.5376   -0.4910    2.1589 H   0  0  0  0  0  0  0  0  0  0  0  0
    0.9674    0.6828    3.7256 H   0  0  0  0  0  0  0  0  0  0  0  0
   -1.3904    1.5231    4.1888 H   0  0  0  0  0  0  0  0  0  0  0  0
   -3.7391    1.7504    3.3967 H   0  0  0  0  0  0  0  0  0  0  0  0
   -4.4344    0.9093    1.1946 H   0  0  0  0  0  0  0  0  0  0  0  0
   -2.0825   -0.9339   -1.0239 H   0  0  0  0  0  0  0  0  0  0  0  0
   -4.0240    1.5463   -1.7262 H   0  0  0  0  0  0  0  0  0  0  0  0
   -6.8344   -0.5263   -0.4222 H   0  0  0  0  0  0  0  0  0  0  0  0
   -8.9107    0.5327    0.3688 H   0  0  0  0  0  0  0  0  0  0  0  0
   -9.2388    2.9954    0.2413 H   0  0  0  0  0  0  0  0  0  0  0  0
   -8.2825    5.2671   -0.4090 H   0  0  0  0  0  0  0  0  0  0  0  0
   -6.3512    6.5751   -1.3328 H   0  0  0  0  0  0  0  0  0  0  0  0
   -4.2807    5.3474   -2.0407 H   0  0  0  0  0  0  0  0  0  0  0  0
   -2.1479   -3.6581   -3.6034 H   0  0  0  0  0  0  0  0  0  0  0  0
   -4.0567   -3.8846   -5.2126 H   0  0  0  0  0  0  0  0  0  0  0  0
   -6.0791   -2.4098   -4.8900 H   0  0  0  0  0  0  0  0  0  0  0  0
   -6.0843   -0.7806   -2.9766 H   0  0  0  0  0  0  0  0  0  0  0  0
  1  2  2  0
  1 30  1  0
  2  3  1  0
  2 31  1  0
  3  4  2  0
  3 32  1  0
  4  5  1  0
  4 33  1  0
  5  6  1  0
  5 30  2  0
  6  7  2  0
  6 34  1  0
  7  8  1  0
  7 35  1  0
  8  9  2  0
  8 36  1  0
  9 10  1  0
  9 30  1  0
 10 11  1  0
 10 37  1  0
 11 12  1  0
 11 13  1  0
 11 24  1  0
 13 14  1  0
 13 38  1  0
 14 15  2  0
 14 23  1  0
 15 16  1  0
 15 39  1  0
 16 17  2  0
 16 40  1  0
 17 18  1  0
 17 41  1  0
 18 19  1  0
 18 23  2  0
 19 20  2  0
 19 42  1  0
 20 21  1  0
 20 43  1  0
 21 22  2  0
 21 44  1  0
 22 23  1  0
 24 25  2  0
 24 29  1  0
 25 26  1  0
 26 27  2  0
 26 45  1  0
 27 28  1  0
 27 46  1  0
 28 29  2  0
 28 47  1  0
 29 48  1  0
M  END

