48
rmsd80.gzmat
N          0.00000        0.00000        0.00000
C          1.31960        0.00000        0.00000
C          2.09340        0.00000        1.19880
C          1.44240        0.01110        2.40380
C          0.01840        0.01800        2.43740
C         -0.71550        0.04230        3.64910
C         -2.08790        0.02780        3.61430
C         -2.79390       -0.00880        2.39500
C         -2.11720       -0.00850        1.18400
N         -2.74940       -0.11710       -0.04740
C         -4.10010        0.41290       -0.27060
H         -4.68120        0.43180        0.69560
N         -4.09680        1.75110       -0.86410
C         -3.87790        2.89180       -0.10690
C         -4.03580        2.94920        1.26980
C         -3.90610        4.16960        1.96110
C         -3.61890        5.34010        1.30310
C         -3.43100        5.32730       -0.10040
C         -3.11700        6.50320       -0.84020
C         -2.92290        6.42340       -2.19360
C         -3.03750        5.15160       -2.82990
N         -3.33820        4.04720       -2.17330
C         -3.54480        4.11290       -0.81750
C         -4.77640       -0.53800       -1.27110
N         -4.28650       -0.54890       -2.52540
C         -4.84650       -1.37430       -3.42680
C         -5.91950       -2.21790       -3.10790
C         -6.41780       -2.19930       -1.80680
C         -5.84090       -1.35030       -0.86340
C         -0.66650        0.00230        1.20050
H          1.81180       -0.00070       -0.97980
H          3.17690       -0.00610        1.13140
H          1.99050        0.01370        3.34490
H         -0.17820        0.07160        4.59200
H         -2.66000        0.04180        4.54300
H         -3.87770       -0.05790        2.43060
H         -2.13700       -0.10610       -0.87280
H         -3.82810        1.79940       -1.85530
H         -4.25690        2.05650        1.84660
H         -4.03920        4.16650        3.04400
H         -3.52610        6.27820        1.84100
H         -3.03390        7.45040       -0.30890
H         -2.68380        7.29770       -2.79140
H         -2.87300        5.05220       -3.90910
H         -4.41080       -1.34560       -4.43220
H         -6.34920       -2.87050       -3.86110
H         -7.25250       -2.84200       -1.52900
H         -6.20770       -1.32420        0.15830
