rmsd151.gzmat
 OpenBabel08211713383D

 48 52  0  0  1  0  0  0  0  0999 V2000
    0.0000    0.0000    0.0000 N   0  0  0  0  0  0  0  0  0  0  0  0
    1.3200    0.0000    0.0000 C   0  0  0  0  0  0  0  0  0  0  0  0
    2.0931    0.0000    1.1991 C   0  0  0  0  0  0  0  0  0  0  0  0
    1.4410   -0.0061    2.4040 C   0  0  0  0  0  0  0  0  0  0  0  0
    0.0171   -0.0114    2.4378 C   0  0  2  0  0  0  0  0  0  0  0  0
   -0.7171   -0.0357    3.6490 C   0  0  0  0  0  0  0  0  0  0  0  0
   -2.0898   -0.0520    3.6123 C   0  0  0  0  0  0  0  0  0  0  0  0
   -2.7971   -0.0392    2.3944 C   0  0  0  0  0  0  0  0  0  0  0  0
   -2.1187    0.0040    1.1825 C   0  0  0  0  0  0  0  0  0  0  0  0
   -2.7366    0.1041   -0.0449 N   0  0  0  0  0  0  0  0  0  0  0  0
   -4.1627   -0.1878   -0.2464 C   0  0  1  0  0  0  0  0  0  0  0  0
   -4.7365   -0.0090    0.7091 H   0  0  0  0  0  0  0  0  0  0  0  0
   -4.7044    0.6665   -1.3021 N   0  0  0  0  0  0  0  0  0  0  0  0
   -4.8647    2.0338   -1.0767 C   0  0  0  0  0  0  0  0  0  0  0  0
   -5.0970    2.5817    0.1752 C   0  0  0  0  0  0  0  0  0  0  0  0
   -5.4037    3.9503    0.3157 C   0  0  0  0  0  0  0  0  0  0  0  0
   -5.4688    4.7861   -0.7721 C   0  0  0  0  0  0  0  0  0  0  0  0
   -5.2043    4.2759   -2.0663 C   0  0  1  0  0  0  0  0  0  0  0  0
   -5.2238    5.0956   -3.2310 C   0  0  0  0  0  0  0  0  0  0  0  0
   -4.9320    4.5489   -4.4523 C   0  0  0  0  0  0  0  0  0  0  0  0
   -4.6104    3.1603   -4.5233 C   0  0  0  0  0  0  0  0  0  0  0  0
   -4.5921    2.3745   -3.4637 N   0  0  0  0  0  0  0  0  0  0  0  0
   -4.8917    2.9063   -2.2330 C   0  0  0  0  0  0  0  0  0  0  0  0
   -4.3122   -1.6524   -0.6866 C   0  0  0  0  0  0  0  0  0  0  0  0
   -3.7958   -1.9752   -1.8875 N   0  0  0  0  0  0  0  0  0  0  0  0
   -3.8639   -3.2548   -2.2929 C   0  0  0  0  0  0  0  0  0  0  0  0
   -4.4519   -4.2599   -1.5118 C   0  0  0  0  0  0  0  0  0  0  0  0
   -4.9879   -3.9136   -0.2736 C   0  0  0  0  0  0  0  0  0  0  0  0
   -4.9228   -2.5884    0.1553 C   0  0  0  0  0  0  0  0  0  0  0  0
   -0.6658    0.0008    1.1997 C   0  0  0  0  0  0  0  0  0  0  0  0
    1.8118    0.0003   -0.9800 H   0  0  0  0  0  0  0  0  0  0  0  0
    3.1768    0.0030    1.1330 H   0  0  0  0  0  0  0  0  0  0  0  0
    1.9871   -0.0063    3.3463 H   0  0  0  0  0  0  0  0  0  0  0  0
   -0.1802   -0.0447    4.5920 H   0  0  0  0  0  0  0  0  0  0  0  0
   -2.6614   -0.0734    4.5417 H   0  0  0  0  0  0  0  0  0  0  0  0
   -3.8805   -0.0511    2.4302 H   0  0  0  0  0  0  0  0  0  0  0  0
   -2.1437    0.0465   -0.8794 H   0  0  0  0  0  0  0  0  0  0  0  0
   -4.4224    0.4029   -2.2570 H   0  0  0  0  0  0  0  0  0  0  0  0
   -5.0438    1.9705    1.0718 H   0  0  0  0  0  0  0  0  0  0  0  0
   -5.5917    4.3387    1.3176 H   0  0  0  0  0  0  0  0  0  0  0  0
   -5.7123    5.8381   -0.6578 H   0  0  0  0  0  0  0  0  0  0  0  0
   -5.4706    6.1514   -3.1258 H   0  0  0  0  0  0  0  0  0  0  0  0
   -4.9352    5.1414   -5.3623 H   0  0  0  0  0  0  0  0  0  0  0  0
   -4.3612    2.6961   -5.4849 H   0  0  0  0  0  0  0  0  0  0  0  0
   -3.4280   -3.4658   -3.2765 H   0  0  0  0  0  0  0  0  0  0  0  0
   -4.4836   -5.2852   -1.8675 H   0  0  0  0  0  0  0  0  0  0  0  0
   -5.4529   -4.6717    0.3561 H   0  0  0  0  0  0  0  0  0  0  0  0
   -5.3325   -2.2961    1.1177 H   0  0  0  0  0  0  0  0  0  0  0  0
  1  2  2  0  0  0  0
  1 30  2  0  0  0  0
  2  3  1  0  0  0  0
  3  4  2  0  0  0  0
  4 33  1  0  0  0  0
  5  4  1  6  0  0  0
  5 30  1  0  0  0  0
  5  6  1  0  0  0  0
  6 34  1  0  0  0  0
  7  6  2  0  0  0  0
  7 35  1  0  0  0  0
  8 36  1  0  0  0  0
  8  7  1  0  0  0  0
  9 30  1  0  0  0  0
  9  8  2  0  0  0  0
 10  9  1  0  0  0  0
 11 10  1  0  0  0  0
 11 12  1  1  0  0  0
 13 14  1  0  0  0  0
 13 11  1  0  0  0  0
 14 15  2  0  0  0  0
 15 16  1  0  0  0  0
 15 39  1  0  0  0  0
 16 40  1  0  0  0  0
 17 41  1  0  0  0  0
 17 16  2  0  0  0  0
 18 19  1  1  0  0  0
 18 17  1  0  0  0  0
 19 42  1  0  0  0  0
 20 19  2  0  0  0  0
 21 20  1  0  0  0  0
 21 22  2  0  0  0  0
 22 23  2  0  0  0  0
 23 18  1  0  0  0  0
 23 14  1  0  0  0  0
 24 11  1  0  0  0  0
 24 29  1  0  0  0  0
 25 24  2  0  0  0  0
 26 25  2  0  0  0  0
 26 27  1  0  0  0  0
 27 28  1  0  0  0  0
 28 29  2  0  0  0  0
 28 47  1  0  0  0  0
 29 48  1  0  0  0  0
 31  2  1  0  0  0  0
 32  3  1  0  0  0  0
 37 10  1  0  0  0  0
 38 13  1  0  0  0  0
 43 20  1  0  0  0  0
 44 21  1  0  0  0  0
 45 26  1  0  0  0  0
 46 27  1  0  0  0  0
M  RAD  3   5   2  18   2  27   2
M  END
$$$$
