48
rmsd170.gzmat
N          0.00000        0.00000        0.00000
C          1.31950        0.00000        0.00000
C          2.09430        0.00000        1.19850
C          1.44370        0.02090        2.40340
C          0.01960        0.03270        2.43800
C         -0.71110        0.08850        3.64940
C         -2.08370        0.13140        3.61480
C         -2.79040        0.08840        2.39710
C         -2.11530       -0.01270        1.18940
N         -2.74090       -0.21900       -0.03470
C         -4.17290        0.00930       -0.17850
H         -4.71660       -0.55250        0.63720
N         -4.47320        1.45200       -0.07340
C         -5.75600        1.87620        0.24090
C         -6.62780        1.14570        1.03630
C         -7.88370        1.67270        1.39800
C         -8.29110        2.91310        0.97350
C         -7.43930        3.68900        0.14920
C         -7.80760        4.97590       -0.33830
C         -6.95080        5.66320       -1.15640
C         -5.70130        5.06560       -1.50060
N         -5.32800        3.88050       -1.05560
C         -6.17450        3.18250       -0.22980
C         -4.63100       -0.48790       -1.55740
N         -3.91670       -0.07120       -2.61990
C         -4.32890       -0.42540       -3.84900
C         -5.47490       -1.20480       -4.06100
C         -6.20220       -1.63660       -2.95410
C         -5.77870       -1.27940       -1.67460
C         -0.66620        0.00170        1.20090
H          1.81110        0.00120       -0.97970
H          3.17790       -0.01160        1.13190
H          1.99150        0.03190        3.34480
H         -0.17200        0.10820        4.59160
H         -2.65390        0.20200        4.54230
H         -3.87490        0.15730        2.42680
H         -2.17440       -0.05690       -0.87600
H         -3.94480        2.05210       -0.71830
H         -6.35510        0.16480        1.41190
H         -8.53460        1.06920        2.03240
H         -9.26040        3.31270        1.25550
H         -8.77300        5.39020       -0.04970
H         -7.19730        6.64520       -1.54970
H         -4.99820        5.58640       -2.16180
H         -3.71320       -0.06230       -4.68030
H         -5.78470       -1.46360       -5.06880
H         -7.09500       -2.24730       -3.08580
H         -6.33140       -1.60080       -0.79630
