39
rmsd111.gzmat
N          0.00000        0.00000        0.00000
C          1.38510        0.00000        0.00000
O          2.02440        0.00000        1.02840
C          2.03980        0.03690       -1.37390
O          1.21920       -0.55490       -2.35960
C          1.08130       -1.91930       -2.34060
C          1.72080       -2.78300       -1.45680
C          1.45890       -4.14950       -1.56300
C          0.57860       -4.62810       -2.52880
C         -0.04980       -3.74150       -3.40740
C          0.19540       -2.37720       -3.32510
C         -0.71290       -0.10420        1.23290
H         -0.02710       -0.06610        2.11580
C         -1.80830       -1.23830        1.36310
H         -1.66240       -1.91710        2.22240
N         -2.84020       -0.18130        1.62850
C         -4.05360       -0.32770        0.90890
C         -5.16620        0.38160        1.22520
C         -5.15170        1.36560        2.33570
C         -6.43180        0.21250        0.47110
C         -3.98120       -1.33550       -0.15960
O         -4.81220       -1.62970       -0.96220
S         -2.32230       -2.15530       -0.13690
C         -1.91800        0.90280        1.36640
O         -2.08870        2.07290        1.33760
H         -0.51430       -0.06320       -0.87290
H          3.04730       -0.41970       -1.34910
H          2.13380        1.08280       -1.74000
H          2.40340       -2.42280       -0.69320
H          1.94810       -4.84360       -0.87960
H          0.37510       -5.69380       -2.59870
H         -0.73930       -4.12410       -4.15990
H         -0.28390       -1.67130       -3.99810
H         -6.14470        1.74610        2.60270
H         -4.51920        2.23880        2.08250
H         -4.70320        0.93540        3.24980
H         -7.17960        0.98470        0.69700
H         -6.89620       -0.76690        0.68450
H         -6.27220        0.22810       -0.62280
