39
rmsd240.gzmat
N          0.00000        0.00000        0.00000
C          1.38170        0.00000        0.00000
O          2.00430        0.00000        1.04360
C          2.07370       -0.00780       -1.35110
O          1.19650       -0.36910       -2.39770
C          0.93660       -1.70240       -2.57880
C          0.25760       -1.95830       -3.77730
C         -0.10100       -3.26860       -4.06720
C          0.21310       -4.30030       -3.17940
C          0.88860       -4.02110       -1.99390
C          1.26010       -2.71420       -1.67960
C         -0.72100        0.07760        1.23690
H         -1.73150       -0.36780        1.14410
C         -0.71800        1.47360        1.98670
H         -1.72100        1.83490        2.27590
N          0.00210        0.84160        3.14580
C          1.18560        1.51800        3.54610
C          1.88960        1.15660        4.64720
C          1.46740        0.01220        5.49220
C          3.12980        1.87400        5.03530
C          1.56580        2.63070        2.66370
O          2.50810        3.35700        2.74330
S          0.30850        2.82590        1.31790
C          0.08460       -0.45160        2.49010
O          0.46240       -1.50250        2.87640
H         -0.52420        0.00660       -0.86490
H          2.98040       -0.64330       -1.32870
H          2.37180        1.02720       -1.63640
H          0.02790       -1.14320       -4.45850
H         -0.62780       -3.49250       -4.99430
H         -0.06920       -5.32330       -3.41650
H          1.13010       -4.82810       -1.30150
H          1.78010       -2.51060       -0.74680
H          1.86910        0.05390        6.51140
H          1.79730       -0.94340        5.04060
H          0.36850       -0.06350        5.56920
H          3.64850        1.41550        5.88690
H          2.92500        2.92710        5.29610
H          3.85300        1.91540        4.19880
