rmsd156.gzmat
 OpenBabel08211713403D

 39 41  0  0  1  0  0  0  0  0999 V2000
    0.0000    0.0000    0.0000 N   0  0  0  0  0  0  0  0  0  0  0  0
    1.3845    0.0000    0.0000 C   0  0  0  0  0  0  0  0  0  0  0  0
    2.0214    0.0000    1.0304 O   0  0  0  0  0  0  0  0  0  0  0  0
    2.0471    0.0399   -1.3694 C   0  0  0  0  0  0  0  0  0  0  0  0
    1.1619   -0.3418   -2.4012 O   0  0  0  0  0  0  0  0  0  0  0  0
    0.8536   -1.6720   -2.5295 C   0  0  0  0  0  0  0  0  0  0  0  0
    1.3882   -2.7047   -1.7659 C   0  0  0  0  0  0  0  0  0  0  0  0
    0.9549   -4.0068   -2.0210 C   0  0  0  0  0  0  0  0  0  0  0  0
    0.0132   -4.2578   -3.0150 C   0  0  0  0  0  0  0  0  0  0  0  0
   -0.5118   -3.2032   -3.7665 C   0  0  0  0  0  0  0  0  0  0  0  0
   -0.0956   -1.8986   -3.5352 C   0  0  0  0  0  0  0  0  0  0  0  0
   -0.7126   -0.1409    1.2306 C   0  0  2  0  0  0  0  0  0  0  0  0
   -0.0775    0.1188    2.1121 H   0  0  0  0  0  0  0  0  0  0  0  0
   -1.5447   -1.4714    1.4504 C   0  0  1  0  0  0  0  0  0  0  0  0
   -1.3050   -2.0101    2.3844 H   0  0  0  0  0  0  0  0  0  0  0  0
   -2.7934   -0.6460    1.5608 N   0  0  0  0  0  0  0  0  0  0  0  0
   -3.8955   -1.1170    0.8021 C   0  0  0  0  0  0  0  0  0  0  0  0
   -5.1513   -0.6352    0.9790 C   0  0  0  0  0  0  0  0  0  0  0  0
   -5.4265    0.4332    1.9710 C   0  0  0  0  0  0  0  0  0  0  0  0
   -6.2910   -1.1439    0.1777 C   0  0  0  0  0  0  0  0  0  0  0  0
   -3.5415   -2.1896   -0.1411 C   0  0  0  0  0  0  0  0  0  0  0  0
   -4.2399   -2.7372   -0.9377 O   0  0  0  0  0  0  0  0  0  0  0  0
   -1.7552   -2.6230    0.0439 S   0  0  0  0  0  0  0  0  0  0  0  0
   -2.1086    0.5848    1.2325 C   0  0  0  0  0  0  0  0  0  0  0  0
   -2.5182    1.6854    1.0886 O   0  0  0  0  0  0  0  0  0  0  0  0
   -0.5140   -0.0652   -0.8727 H   0  0  0  0  0  0  0  0  0  0  0  0
    2.9765   -0.5599   -1.3784 H   0  0  0  0  0  0  0  0  0  0  0  0
    2.2983    1.0866   -1.6516 H   0  0  0  0  0  0  0  0  0  0  0  0
    2.1179   -2.5228   -0.9839 H   0  0  0  0  0  0  0  0  0  0  0  0
    1.3559   -4.8301   -1.4300 H   0  0  0  0  0  0  0  0  0  0  0  0
   -0.3212   -5.2747   -3.2062 H   0  0  0  0  0  0  0  0  0  0  0  0
   -1.2571   -3.4051   -4.5356 H   0  0  0  0  0  0  0  0  0  0  0  0
   -0.4881   -1.0664   -4.1131 H   0  0  0  0  0  0  0  0  0  0  0  0
   -6.4942    0.5919    2.1634 H   0  0  0  0  0  0  0  0  0  0  0  0
   -5.0017    1.3998    1.6371 H   0  0  0  0  0  0  0  0  0  0  0  0
   -4.9421    0.2211    2.9419 H   0  0  0  0  0  0  0  0  0  0  0  0
   -7.2126   -0.5611    0.3087 H   0  0  0  0  0  0  0  0  0  0  0  0
   -6.5248   -2.1925    0.4355 H   0  0  0  0  0  0  0  0  0  0  0  0
   -6.0664   -1.1533   -0.9050 H   0  0  0  0  0  0  0  0  0  0  0  0
  1  2  1  0  0  0  0
  1 12  1  0  0  0  0
  2  3  2  0  0  0  0
  4  2  1  0  0  0  0
  5  4  1  0  0  0  0
  6  5  1  0  0  0  0
  6  7  2  0  0  0  0
  7 29  1  0  0  0  0
  8  7  1  0  0  0  0
  8 30  1  0  0  0  0
  9  8  2  0  0  0  0
 10 11  2  0  0  0  0
 10  9  1  0  0  0  0
 11  6  1  0  0  0  0
 12 24  1  0  0  0  0
 12 14  1  0  0  0  0
 12 13  1  1  0  0  0
 14 16  1  0  0  0  0
 14 15  1  1  0  0  0
 17 18  2  0  0  0  0
 17 16  1  0  0  0  0
 18 19  1  0  0  0  0
 19 34  1  0  0  0  0
 19 36  1  0  0  0  0
 20 37  1  0  0  0  0
 20 38  1  0  0  0  0
 20 18  1  0  0  0  0
 21 23  1  0  0  0  0
 21 17  1  0  0  0  0
 22 21  2  0  0  0  0
 23 14  1  0  0  0  0
 24 16  1  0  0  0  0
 25 24  2  0  0  0  0
 26  1  1  0  0  0  0
 27  4  1  0  0  0  0
 28  4  1  0  0  0  0
 31  9  1  0  0  0  0
 32 10  1  0  0  0  0
 33 11  1  0  0  0  0
 35 19  1  0  0  0  0
 39 20  1  0  0  0  0
M  END
$$$$
