39
rmsd234.gzmat
N          0.00000        0.00000        0.00000
C          1.38520        0.00000        0.00000
O          2.02410        0.00000        1.02880
C          2.04140        0.03910       -1.37340
O          1.17420       -0.41290       -2.39260
C          0.86030       -1.74830       -2.42380
C         -0.15960       -2.03300       -3.34110
C         -0.59120       -3.34800       -3.46000
C         -0.01060       -4.35550       -2.68530
C          1.00840       -4.04860       -1.78750
C          1.45740       -2.73500       -1.64540
C         -0.71840       -0.13860        1.22750
H         -0.07700        0.08420        2.11390
C         -1.59890       -1.44160        1.42050
H         -1.39350       -1.99470        2.35460
N         -2.82190       -0.57670        1.51940
C         -3.92060       -0.99750        0.72730
C         -5.16230       -0.46920        0.86780
C         -5.42830        0.61140        1.84850
C         -6.29190       -0.93800        0.02850
C         -3.58710       -2.07790       -0.21410
O         -4.29010       -2.59280       -1.02850
S         -1.82390       -2.57820        0.00470
C         -2.08890        0.63630        1.23060
O         -2.45770        1.75390        1.10890
H         -0.51120       -0.07200       -0.87400
H          2.99800       -0.51670       -1.37210
H          2.23900        1.08890       -1.68430
H         -0.59720       -1.23710       -3.93760
H         -1.39280       -3.59390       -4.15680
H         -0.36060       -5.38070       -2.78000
H          1.45740       -4.83720       -1.18370
H          2.24590       -2.50620       -0.93610
H         -6.49510        0.79640        2.02130
H         -4.97690        1.56660        1.51560
H         -4.96470        0.39410        2.82840
H         -7.23500       -0.41360        0.23050
H         -6.48050       -2.01850        0.16700
H         -6.07740       -0.81880       -1.04970
