39
rmsd108.gzmat
N          0.00000        0.00000        0.00000
C          1.38380        0.00000        0.00000
O          2.02120        0.00000        1.03040
C          2.05580       -0.01380       -1.36500
O          1.16070        0.26540       -2.42030
C          0.75720        1.56250       -2.60450
C          1.02640        2.62280       -1.74520
C          0.48230        3.87180       -2.04660
C         -0.30010        4.04740       -3.18460
C         -0.54470        2.97070       -4.04090
C         -0.01910        1.71590       -3.76080
C         -0.71410        0.13810        1.22970
H         -0.05060       -0.01020        2.11690
C         -2.09370       -0.61740        1.35470
H         -2.16790       -1.28150        2.23530
N         -2.77870        0.70250        1.57020
C         -3.96110        0.89760        0.81280
C         -4.81840        1.92190        1.05250
C         -4.53560        2.93120        2.10200
C         -6.05830        2.08330        0.25450
C         -4.17430       -0.13080       -0.21650
O         -5.04810       -0.20060       -1.02500
S         -2.82890       -1.39460       -0.13110
C         -1.57090        1.46150        1.32890
O         -1.38600        2.62890        1.28600
H         -0.51630        0.02260       -0.87410
H          2.39720       -1.04240       -1.61850
H          2.93170        0.66320       -1.37750
H          1.63040        2.50080       -0.85110
H          0.66930        4.71150       -1.37660
H         -0.72320        5.02360       -3.40880
H         -1.15310        3.11560       -4.93350
H         -0.19690        0.86510       -4.41390
H         -5.38290        3.59250        2.31890
H         -3.68100        3.57300        1.81050
H         -4.23380        2.45630        3.05310
H         -6.66470        2.94660        0.55790
H         -6.70510        1.18930        0.32050
H         -5.83690        2.20120       -0.82270
