39

N          0.81040       -0.59320        0.26330
C          1.86540        0.22800        0.54980
O          2.27570        0.45110        1.67040
C          2.51350        0.86190       -0.68940
O          1.71970        0.79390       -1.85450
C          0.54050        1.49390       -1.90870
C          0.10160        2.37630       -0.91530
C         -1.15800        2.97470       -1.03970
C         -1.97180        2.71090       -2.14060
C         -1.51890        1.83410       -3.13430
C         -0.27090        1.22720       -3.02200
C         -0.17550       -0.91580        1.25280
H          0.28170       -1.36250        2.14750
C         -1.43380       -1.65430        0.69530
H         -1.69650       -2.59320        1.20230
N         -2.25870       -0.50010        1.07740
C         -3.26150       -0.06930        0.17890
C         -4.20800        0.84240        0.51390
C         -4.30130        1.34430        1.92660
C         -5.17030        1.44070       -0.46650
C         -3.04240       -0.66650       -1.17170
O         -3.64910       -0.47920       -2.18920
S         -1.63220       -1.85530       -1.11370
C         -1.16490        0.25850        1.53320
O         -1.09050        1.40100        1.87660
H          0.50000       -0.62870       -0.70470
H          3.44140        0.31820       -0.92110
H          2.78860        1.89530       -0.42130
H          0.69510        2.57600       -0.02420
H         -1.50220        3.63890       -0.24440
H         -2.95810        3.17160       -2.22230
H         -2.15340        1.60310       -3.99220
H          0.09200        0.52400       -3.77340
H         -5.34540        1.57770        2.18700
H         -3.70960        2.26820        2.03850
H         -3.89560        0.61820        2.64460
H         -5.10570        2.54130       -0.41180
H         -6.20340        1.17820       -0.17870
H         -4.99310        1.11540       -1.49520
