
     RDKit          3D

 39 41  0  0  0  0  0  0  0  0999 V2000
    0.2169    0.1788    0.0004 N   0  0  0  0  0  0  0  0  0  0  0  0
    1.5722    0.0325    0.0990 C   0  0  0  0  0  0  0  0  0  0  0  0
    2.1808   -0.0231    1.1498 O   0  0  0  0  0  0  0  0  0  0  0  0
    2.2858   -0.0401   -1.2546 C   0  0  0  0  0  0  0  0  0  0  0  0
    1.4601   -0.4988   -2.3015 O   0  0  0  0  0  0  0  0  0  0  0  0
    1.0560   -1.8095   -2.2937 C   0  0  0  0  0  0  0  0  0  0  0  0
    1.4204   -2.7386   -1.3106 C   0  0  0  0  0  0  0  0  0  0  0  0
    0.9146   -4.0423   -1.3813 C   0  0  0  0  0  0  0  0  0  0  0  0
    0.0571   -4.4239   -2.4120 C   0  0  0  0  0  0  0  0  0  0  0  0
   -0.2968   -3.4873   -3.3906 C   0  0  0  0  0  0  0  0  0  0  0  0
    0.1995   -2.1876   -3.3366 C   0  0  0  0  0  0  0  0  0  0  0  0
   -0.6325    0.0785    1.1357 C   0  0  2  0  0  0  0  0  0  0  0  0
   -0.0136    0.1996    2.0371 H   0  0  0  0  0  0  0  0  0  0  0  0
   -1.6240   -1.1280    1.2483 C   0  0  1  0  0  0  0  0  0  0  0  0
   -1.4617   -1.8264    2.0815 H   0  0  0  0  0  0  0  0  0  0  0  0
   -2.7179   -0.1699    1.4404 N   0  0  0  0  0  0  0  0  0  0  0  0
   -3.9666   -0.4883    0.8579 C   0  0  0  0  0  0  0  0  0  0  0  0
   -5.1134    0.1586    1.1800 C   0  0  0  0  0  0  0  0  0  0  0  0
   -5.1034    1.2035    2.2600 C   0  0  0  0  0  0  0  0  0  0  0  0
   -6.4229   -0.0717    0.4883 C   0  0  0  0  0  0  0  0  0  0  0  0
   -3.7862   -1.5264   -0.2074 C   0  0  0  0  0  0  0  0  0  0  0  0
   -4.6100   -1.9886   -0.9493 O   0  0  0  0  0  0  0  0  0  0  0  0
   -2.0232   -2.0499   -0.2837 S   0  0  0  0  0  0  0  0  0  0  0  0
   -1.9176    0.9466    1.1285 C   0  0  0  0  0  0  0  0  0  0  0  0
   -2.2055    2.0800    0.8789 O   0  0  0  0  0  0  0  0  0  0  0  0
   -0.1966    0.1333   -0.9255 H   0  0  0  0  0  0  0  0  0  0  0  0
    3.1905   -0.6552   -1.1249 H   0  0  0  0  0  0  0  0  0  0  0  0
    2.6025    0.9752   -1.5379 H   0  0  0  0  0  0  0  0  0  0  0  0
    2.0784   -2.4663   -0.4857 H   0  0  0  0  0  0  0  0  0  0  0  0
    1.1962   -4.7614   -0.6084 H   0  0  0  0  0  0  0  0  0  0  0  0
   -0.3391   -5.4404   -2.4525 H   0  0  0  0  0  0  0  0  0  0  0  0
   -0.9707   -3.7710   -4.2024 H   0  0  0  0  0  0  0  0  0  0  0  0
   -0.0704   -1.4405   -4.0851 H   0  0  0  0  0  0  0  0  0  0  0  0
   -6.0712    1.2335    2.7840 H   0  0  0  0  0  0  0  0  0  0  0  0
   -4.9290    2.1987    1.8169 H   0  0  0  0  0  0  0  0  0  0  0  0
   -4.2963    1.0297    2.9852 H   0  0  0  0  0  0  0  0  0  0  0  0
   -6.8271    0.8929    0.1357 H   0  0  0  0  0  0  0  0  0  0  0  0
   -7.1566   -0.4654    1.2136 H   0  0  0  0  0  0  0  0  0  0  0  0
   -6.3464   -0.7668   -0.3529 H   0  0  0  0  0  0  0  0  0  0  0  0
  1  2  1  0
  1 12  1  0
  1 26  1  0
  2  3  2  0
  2  4  1  0
  4  5  1  0
  4 27  1  0
  4 28  1  0
  5  6  1  0
  6  7  2  0
  6 11  1  0
  7  8  1  0
  7 29  1  0
  8  9  2  0
  8 30  1  0
  9 10  1  0
  9 31  1  0
 10 11  2  0
 10 32  1  0
 11 33  1  0
 12 13  1  1
 12 14  1  0
 12 24  1  0
 14 15  1  1
 14 16  1  0
 14 23  1  0
 16 17  1  0
 16 24  1  0
 17 18  2  3
 17 21  1  0
 18 19  1  0
 18 20  1  0
 19 34  1  0
 19 35  1  0
 19 36  1  0
 20 37  1  0
 20 38  1  0
 20 39  1  0
 21 22  2  0
 21 23  1  0
 24 25  2  0
M  END

