rmsd240.gzmat
 OpenBabel08211713403D

 39 41  0  0  1  0  0  0  0  0999 V2000
    0.0000    0.0000    0.0000 N   0  0  0  0  0  0  0  0  0  0  0  0
    1.3817    0.0000    0.0000 C   0  0  0  0  0  0  0  0  0  0  0  0
    2.0043    0.0000    1.0436 O   0  0  0  0  0  0  0  0  0  0  0  0
    2.0737   -0.0078   -1.3511 C   0  0  0  0  0  0  0  0  0  0  0  0
    1.1965   -0.3691   -2.3977 O   0  0  0  0  0  0  0  0  0  0  0  0
    0.9366   -1.7024   -2.5788 C   0  0  0  0  0  0  0  0  0  0  0  0
    0.2576   -1.9583   -3.7773 C   0  0  0  0  0  0  0  0  0  0  0  0
   -0.1010   -3.2686   -4.0672 C   0  0  0  0  0  0  0  0  0  0  0  0
    0.2131   -4.3003   -3.1794 C   0  0  0  0  0  0  0  0  0  0  0  0
    0.8886   -4.0211   -1.9939 C   0  0  0  0  0  0  0  0  0  0  0  0
    1.2601   -2.7142   -1.6796 C   0  0  0  0  0  0  0  0  0  0  0  0
   -0.7210    0.0776    1.2369 C   0  0  2  0  0  0  0  0  0  0  0  0
   -1.7315   -0.3678    1.1441 H   0  0  0  0  0  0  0  0  0  0  0  0
   -0.7180    1.4736    1.9867 C   0  0  1  0  0  0  0  0  0  0  0  0
   -1.7210    1.8349    2.2759 H   0  0  0  0  0  0  0  0  0  0  0  0
    0.0021    0.8416    3.1458 N   0  0  0  0  0  0  0  0  0  0  0  0
    1.1856    1.5180    3.5461 C   0  0  0  0  0  0  0  0  0  0  0  0
    1.8896    1.1566    4.6472 C   0  0  0  0  0  0  0  0  0  0  0  0
    1.4674    0.0122    5.4922 C   0  0  0  0  0  0  0  0  0  0  0  0
    3.1298    1.8740    5.0353 C   0  0  0  0  0  0  0  0  0  0  0  0
    1.5658    2.6307    2.6637 C   0  0  0  0  0  0  0  0  0  0  0  0
    2.5081    3.3570    2.7433 O   0  0  0  0  0  0  0  0  0  0  0  0
    0.3085    2.8259    1.3179 S   0  0  0  0  0  0  0  0  0  0  0  0
    0.0846   -0.4516    2.4901 C   0  0  0  0  0  0  0  0  0  0  0  0
    0.4624   -1.5025    2.8764 O   0  0  0  0  0  0  0  0  0  0  0  0
   -0.5242    0.0066   -0.8649 H   0  0  0  0  0  0  0  0  0  0  0  0
    2.9804   -0.6433   -1.3287 H   0  0  0  0  0  0  0  0  0  0  0  0
    2.3718    1.0272   -1.6364 H   0  0  0  0  0  0  0  0  0  0  0  0
    0.0279   -1.1432   -4.4585 H   0  0  0  0  0  0  0  0  0  0  0  0
   -0.6278   -3.4925   -4.9943 H   0  0  0  0  0  0  0  0  0  0  0  0
   -0.0692   -5.3233   -3.4165 H   0  0  0  0  0  0  0  0  0  0  0  0
    1.1301   -4.8281   -1.3015 H   0  0  0  0  0  0  0  0  0  0  0  0
    1.7801   -2.5106   -0.7468 H   0  0  0  0  0  0  0  0  0  0  0  0
    1.8691    0.0539    6.5114 H   0  0  0  0  0  0  0  0  0  0  0  0
    1.7973   -0.9434    5.0406 H   0  0  0  0  0  0  0  0  0  0  0  0
    0.3685   -0.0635    5.5692 H   0  0  0  0  0  0  0  0  0  0  0  0
    3.6485    1.4155    5.8869 H   0  0  0  0  0  0  0  0  0  0  0  0
    2.9250    2.9271    5.2961 H   0  0  0  0  0  0  0  0  0  0  0  0
    3.8530    1.9154    4.1988 H   0  0  0  0  0  0  0  0  0  0  0  0
  1 12  1  0  0  0  0
  2  1  1  0  0  0  0
  2  3  2  0  0  0  0
  4 27  1  0  0  0  0
  4  2  1  0  0  0  0
  5  4  1  0  0  0  0
  6  5  1  0  0  0  0
  6 11  2  0  0  0  0
  7  6  1  0  0  0  0
  8  7  2  0  0  0  0
  8  9  1  0  0  0  0
  9 10  2  0  0  0  0
 10 11  1  0  0  0  0
 10 32  1  0  0  0  0
 11 33  1  0  0  0  0
 12 14  1  0  0  0  0
 12 24  1  0  0  0  0
 12 13  1  6  0  0  0
 14 15  1  1  0  0  0
 14 16  1  0  0  0  0
 16 17  1  0  0  0  0
 17 18  2  0  0  0  0
 18 20  1  0  0  0  0
 18 19  1  0  0  0  0
 19 36  1  0  0  0  0
 19 34  1  0  0  0  0
 20 38  1  0  0  0  0
 20 37  1  0  0  0  0
 21 22  2  0  0  0  0
 21 17  1  0  0  0  0
 23 14  1  0  0  0  0
 23 21  1  0  0  0  0
 24 25  2  0  0  0  0
 24 16  1  0  0  0  0
 26  1  1  0  0  0  0
 28  4  1  0  0  0  0
 29  7  1  0  0  0  0
 30  8  1  0  0  0  0
 31  9  1  0  0  0  0
 35 19  1  0  0  0  0
 39 20  1  0  0  0  0
M  END
$$$$
