39
rmsd145.gzmat
N          0.00000        0.00000        0.00000
C          1.38530        0.00000        0.00000
O          2.02440        0.00000        1.02840
C          2.03950        0.02970       -1.37430
O          1.19070       -0.49990       -2.37160
C          0.93830       -1.84830       -2.34600
C         -0.05980       -2.21940       -3.25680
C         -0.42130       -3.55850       -3.32870
C          0.20360       -4.50510       -2.51200
C          1.19460       -4.11170       -1.61690
C          1.57450       -2.77200       -1.52240
C         -0.71520       -0.13990        1.22830
H         -0.04210       -0.05410        2.11640
C         -1.73960       -1.34120        1.35080
H         -1.57500       -1.99180        2.22830
N         -2.84520       -0.34930        1.56520
C         -4.01590       -0.57290        0.79570
C         -5.17380        0.09010        1.04080
C         -5.26020        1.09540        2.12860
C         -6.39120       -0.14610        0.22720
C         -3.84760       -1.60300       -0.24040
O         -4.63250       -1.96880       -1.06010
S         -2.14690       -2.32150       -0.14060
C         -1.98280        0.78870        1.32880
O         -2.22220        1.94650        1.29420
H         -0.51320       -0.05810       -0.87410
H          3.02130       -0.47990       -1.35830
H          2.18670        1.07610       -1.72100
H         -0.53530       -1.46850       -3.88260
H         -1.20340       -3.87160       -4.02120
H         -0.09080       -5.55000       -2.57280
H          1.67590       -4.85140       -0.97790
H          2.34220       -2.47700       -0.81380
H         -6.28880        1.36420        2.39810
H         -4.73560        2.02800        1.84430
H         -4.75720        0.74570        3.04870
H         -7.15940        0.62770        0.36190
H         -6.85500       -1.11660        0.47750
H         -6.17220       -0.19570       -0.85540
