rmsd234.gzmat
 OpenBabel08211713403D

 39 41  0  0  1  0  0  0  0  0999 V2000
    0.0000    0.0000    0.0000 N   0  0  0  0  0  0  0  0  0  0  0  0
    1.3852    0.0000    0.0000 C   0  0  0  0  0  0  0  0  0  0  0  0
    2.0241    0.0000    1.0288 O   0  0  0  0  0  0  0  0  0  0  0  0
    2.0414    0.0391   -1.3734 C   0  0  0  0  0  0  0  0  0  0  0  0
    1.1742   -0.4129   -2.3926 O   0  0  0  0  0  0  0  0  0  0  0  0
    0.8603   -1.7483   -2.4238 C   0  0  0  0  0  0  0  0  0  0  0  0
   -0.1596   -2.0330   -3.3411 C   0  0  0  0  0  0  0  0  0  0  0  0
   -0.5912   -3.3480   -3.4600 C   0  0  0  0  0  0  0  0  0  0  0  0
   -0.0106   -4.3555   -2.6853 C   0  0  0  0  0  0  0  0  0  0  0  0
    1.0084   -4.0486   -1.7875 C   0  0  0  0  0  0  0  0  0  0  0  0
    1.4574   -2.7350   -1.6454 C   0  0  0  0  0  0  0  0  0  0  0  0
   -0.7184   -0.1386    1.2275 C   0  0  2  0  0  0  0  0  0  0  0  0
   -0.0770    0.0842    2.1139 H   0  0  0  0  0  0  0  0  0  0  0  0
   -1.5989   -1.4416    1.4205 C   0  0  1  0  0  0  0  0  0  0  0  0
   -1.3935   -1.9947    2.3546 H   0  0  0  0  0  0  0  0  0  0  0  0
   -2.8219   -0.5767    1.5194 N   0  0  0  0  0  0  0  0  0  0  0  0
   -3.9206   -0.9975    0.7273 C   0  0  0  0  0  0  0  0  0  0  0  0
   -5.1623   -0.4692    0.8678 C   0  0  0  0  0  0  0  0  0  0  0  0
   -5.4283    0.6114    1.8485 C   0  0  0  0  0  0  0  0  0  0  0  0
   -6.2919   -0.9380    0.0285 C   0  0  0  0  0  0  0  0  0  0  0  0
   -3.5871   -2.0779   -0.2141 C   0  0  0  0  0  0  0  0  0  0  0  0
   -4.2901   -2.5928   -1.0285 O   0  0  0  0  0  0  0  0  0  0  0  0
   -1.8239   -2.5782    0.0047 S   0  0  0  0  0  0  0  0  0  0  0  0
   -2.0889    0.6363    1.2306 C   0  0  0  0  0  0  0  0  0  0  0  0
   -2.4577    1.7539    1.1089 O   0  0  0  0  0  0  0  0  0  0  0  0
   -0.5112   -0.0720   -0.8740 H   0  0  0  0  0  0  0  0  0  0  0  0
    2.9980   -0.5167   -1.3721 H   0  0  0  0  0  0  0  0  0  0  0  0
    2.2390    1.0889   -1.6843 H   0  0  0  0  0  0  0  0  0  0  0  0
   -0.5972   -1.2371   -3.9376 H   0  0  0  0  0  0  0  0  0  0  0  0
   -1.3928   -3.5939   -4.1568 H   0  0  0  0  0  0  0  0  0  0  0  0
   -0.3606   -5.3807   -2.7800 H   0  0  0  0  0  0  0  0  0  0  0  0
    1.4574   -4.8372   -1.1837 H   0  0  0  0  0  0  0  0  0  0  0  0
    2.2459   -2.5062   -0.9361 H   0  0  0  0  0  0  0  0  0  0  0  0
   -6.4951    0.7964    2.0213 H   0  0  0  0  0  0  0  0  0  0  0  0
   -4.9769    1.5666    1.5156 H   0  0  0  0  0  0  0  0  0  0  0  0
   -4.9647    0.3941    2.8284 H   0  0  0  0  0  0  0  0  0  0  0  0
   -7.2350   -0.4136    0.2305 H   0  0  0  0  0  0  0  0  0  0  0  0
   -6.4805   -2.0185    0.1670 H   0  0  0  0  0  0  0  0  0  0  0  0
   -6.0774   -0.8188   -1.0497 H   0  0  0  0  0  0  0  0  0  0  0  0
  1  2  1  0  0  0  0
  1 12  1  0  0  0  0
  2  3  2  0  0  0  0
  4 27  1  0  0  0  0
  4  2  1  0  0  0  0
  5  4  1  0  0  0  0
  6  5  1  0  0  0  0
  6 11  2  0  0  0  0
  7  6  1  0  0  0  0
  8  7  2  0  0  0  0
  8  9  1  0  0  0  0
  9 10  2  0  0  0  0
 10 11  1  0  0  0  0
 10 32  1  0  0  0  0
 11 33  1  0  0  0  0
 12 24  1  0  0  0  0
 12 14  1  0  0  0  0
 12 13  1  1  0  0  0
 14 16  1  0  0  0  0
 14 15  1  1  0  0  0
 17 18  2  0  0  0  0
 17 16  1  0  0  0  0
 18 19  1  0  0  0  0
 19 34  1  0  0  0  0
 19 36  1  0  0  0  0
 20 38  1  0  0  0  0
 20 37  1  0  0  0  0
 20 18  1  0  0  0  0
 21 23  1  0  0  0  0
 21 17  1  0  0  0  0
 22 21  2  0  0  0  0
 23 14  1  0  0  0  0
 24 16  1  0  0  0  0
 25 24  2  0  0  0  0
 26  1  1  0  0  0  0
 28  4  1  0  0  0  0
 29  7  1  0  0  0  0
 30  8  1  0  0  0  0
 31  9  1  0  0  0  0
 35 19  1  0  0  0  0
 39 20  1  0  0  0  0
M  END
$$$$
