46

O          0.03650       -0.08020       -0.04470
C          1.42200       -0.08750        0.00870
O          1.99590       -0.12540        1.06250
C          1.90400       -0.04470       -1.40850
C          3.20840       -0.03880       -1.80100
C          4.37320       -0.09970       -0.85050
C          5.28000       -1.30320       -1.17790
C          5.71640       -1.30180       -2.64500
C          4.50820       -1.23600       -3.58270
C          3.60550       -0.03030       -3.25300
C          0.69340       -0.01380       -2.21130
C         -0.36870       -0.03650       -1.36690
C         -1.80560       -0.02490       -1.59740
C         -2.33420        0.01190       -2.90020
C         -3.70700        0.02150       -3.13460
C         -4.58070       -0.00640       -2.03720
O         -5.96110        0.00100       -2.10470
C         -6.71400        0.00380       -3.23840
O         -6.27450        0.00340       -4.35810
C         -8.17960        0.00770       -2.87010
C         -9.10920        0.00480       -4.07950
C        -10.58390        0.00940       -3.68320
C         -4.07490       -0.04220       -0.73240
C         -2.70270       -0.05160       -0.51240
H          4.03490       -0.13020        0.19040
H          4.96550        0.82630       -0.98350
H          6.15700       -1.29310       -0.51080
H          4.72690       -2.23330       -0.95880
H          6.36810       -0.42830       -2.83070
H          6.32180       -2.19610       -2.86670
H          4.83190       -1.17850       -4.63470
H          3.91410       -2.16130       -3.48230
H          4.17760        0.89680       -3.44750
H          2.73130       -0.01060       -3.91740
H          0.63550        0.02230       -3.29490
H         -1.66040        0.03300       -3.75880
H         -4.09950        0.04810       -4.14610
H         -8.35750        0.88670       -2.22570
H         -8.36090       -0.86520       -2.21860
H         -8.88330       -0.87570       -4.70300
H         -8.87960        0.87930       -4.71010
H        -10.84060       -0.87610       -3.07800
H        -11.23590        0.00700       -4.57020
H        -10.83710        0.90100       -3.08550
H         -4.78010       -0.06260        0.10010
H         -2.30880       -0.08010        0.50360
