46
rmsd53.gzmat
O          0.00000        0.00000        0.00000
C          1.41340        0.00000        0.00000
O          1.97360        0.00000        1.05530
C          1.86350        0.00620       -1.40960
C          3.13890        0.00570       -1.83650
C          4.31220       -0.00010       -0.91060
C          5.26150       -1.15640       -1.26000
C          5.68020       -1.09220       -2.73290
C          4.44120       -1.12440       -3.63470
C          3.48890        0.03210       -3.29270
C          0.62810        0.01000       -2.18870
C         -0.41970        0.00590       -1.32710
C         -1.85460        0.01170       -1.49540
C         -2.40690       -0.08840       -2.77810
C         -3.78720       -0.07820       -2.95430
C         -4.59410        0.02650       -1.82430
O         -5.96090        0.13280       -1.87370
C         -6.70420       -0.55510       -2.80130
O         -6.21790       -1.27240       -3.62710
C         -8.14520       -0.24300       -2.54510
C         -8.92680       -0.28460       -3.86280
C        -10.41480       -0.05930       -3.60750
C         -4.07050        0.12520       -0.53020
C         -2.69170        0.11950       -0.37430
H          4.01040       -0.08060        0.15750
H          4.84810        0.97010       -0.98490
H          6.15160       -1.12160       -0.60520
H          4.76530       -2.12350       -1.04700
H          6.26880       -0.17580       -2.92350
H          6.35020       -1.93750       -2.97530
H          4.73720       -1.06700       -4.69780
H          3.91260       -2.09050       -3.51720
H          3.96830        1.00390       -3.53790
H          2.59000       -0.02240       -3.93840
H          0.59770        0.01310       -3.25770
H         -1.75440       -0.17660       -3.64750
H         -4.21990       -0.16030       -3.95010
H         -8.26050        0.74570       -2.04920
H         -8.55380       -0.98300       -1.82160
H         -8.76660       -1.25890       -4.37040
H         -8.53760        0.48140       -4.56250
H        -10.83320       -0.82920       -2.94880
H        -10.98490       -0.08880       -4.54400
H        -10.60410        0.91470       -3.14160
H         -4.73910        0.20770        0.32370
H         -2.25370        0.19800        0.62520
