46
rmsd190.gzmat
O          0.00000        0.00000        0.00000
C          1.41360        0.00000        0.00000
O          1.97360        0.00000        1.05540
C          1.86450        0.00220       -1.40950
C          3.14020       -0.00360       -1.83570
C          4.31360       -0.00220       -0.90930
C          5.26270       -1.16270       -1.24550
C          5.68110       -1.11480       -2.71910
C          4.44160       -1.15500       -3.61990
C          3.49400        0.00950       -3.29110
C          0.62880        0.00470       -2.18860
C         -0.41930        0.00440       -1.32730
C         -1.85440        0.00690       -1.49590
C         -2.40740        0.21940       -2.76410
C         -3.78800        0.22430       -2.94080
C         -4.59550        0.00900       -1.82700
O         -5.96600        0.06120       -1.85050
C         -6.69110       -0.37150       -2.93290
O         -6.18600       -0.77420       -3.94080
C         -8.14410       -0.23820       -2.59270
C         -8.83670       -1.59330       -2.78750
C         -8.34340       -2.62610       -1.77710
C         -4.07000       -0.20440       -0.54700
C         -2.69150       -0.20010       -0.38910
H          4.01200       -0.06980        0.15940
H          4.85130        0.96640       -0.99380
H          6.15270       -1.12020       -0.59080
H          4.76710       -2.12710       -1.02140
H          6.26930       -0.20040       -2.91960
H          6.35080       -1.96230       -2.95410
H          4.73720       -1.11060       -4.68380
H          3.91020       -2.11770       -3.49050
H          3.98140        0.97620       -3.54130
H          2.59790       -0.04410       -3.94050
H          0.59820       -0.00320       -3.25710
H         -1.75580        0.38540       -3.62290
H         -4.21830        0.38440       -3.92810
H         -8.60050        0.53250       -3.25040
H         -8.28760        0.12710       -1.55230
H         -8.66350       -1.96070       -3.82060
H         -9.93250       -1.46320       -2.69260
H         -7.27130       -2.82760       -1.89710
H         -8.86600       -3.58230       -1.89890
H         -8.50090       -2.29500       -0.74450
H         -4.73810       -0.36430        0.29620
H         -2.25370       -0.35980        0.60060
