46
rmsd95.gzmat
O          0.00000        0.00000        0.00000
C          1.41380        0.00000        0.00000
O          1.97450        0.00000        1.05500
C          1.86410        0.00220       -1.40940
C          3.13880       -0.01940       -1.83760
C          4.31540       -0.04190       -0.91560
C          5.21550       -1.24400       -1.24210
C          5.63460       -1.22640       -2.71640
C          4.39500       -1.21780       -3.61860
C          3.49050       -0.01800       -3.29380
C          0.62830        0.01530       -2.18820
C         -0.41980        0.00770       -1.32710
C         -1.85520        0.01450       -1.49550
C         -2.41140       -0.20070       -2.76230
C         -3.79170       -0.17930       -2.93900
C         -4.59500        0.05990       -1.82630
O         -5.95620        0.21830       -1.89960
C         -6.72620       -0.55880       -2.73200
O         -6.27140       -1.44170       -3.40010
C         -8.13960       -0.08170       -2.61320
C         -9.10560       -1.13940       -3.15750
C        -10.54020       -0.61800       -3.12640
C         -4.06760        0.26320       -0.54680
C         -2.68860        0.24000       -0.38970
H          4.01780       -0.08240        0.15560
H          4.88890        0.90380       -1.01880
H          6.10630       -1.23400       -0.58710
H          4.67840       -2.18490       -1.01100
H          6.26560       -0.34280       -2.92450
H          6.26360       -2.10710       -2.94310
H          4.69330       -1.18620       -4.68210
H          3.82720       -2.15970       -3.48830
H          4.01010        0.93020       -3.54840
H          2.59210       -0.04240       -3.94180
H          0.59930        0.02950       -3.25680
H         -1.76120       -0.38820       -3.61770
H         -4.22960       -0.35540       -3.91990
H         -8.25200        0.87570       -3.16900
H         -8.38360        0.16730       -1.55710
H         -9.02300       -2.07350       -2.56640
H         -8.82060       -1.42250       -4.19210
H        -10.85580       -0.35560       -2.10990
H        -11.24310       -1.37370       -3.49820
H        -10.66110        0.27390       -3.75210
H         -4.73220        0.43940        0.29560
H         -2.24720        0.39860        0.59870
