rmsd53.gzmat
 OpenBabel08211713403D

 46 48  0  0  0  0  0  0  0  0999 V2000
    0.0000    0.0000    0.0000 O   0  0  0  0  0  0  0  0  0  0  0  0
    1.4134    0.0000    0.0000 C   0  0  0  0  0  0  0  0  0  0  0  0
    1.9736    0.0000    1.0553 O   0  0  0  0  0  0  0  0  0  0  0  0
    1.8635    0.0062   -1.4096 C   0  0  0  0  0  0  0  0  0  0  0  0
    3.1389    0.0057   -1.8365 C   0  0  0  0  0  0  0  0  0  0  0  0
    4.3122   -0.0001   -0.9106 C   0  0  0  0  0  0  0  0  0  0  0  0
    5.2615   -1.1564   -1.2600 C   0  0  0  0  0  0  0  0  0  0  0  0
    5.6802   -1.0922   -2.7329 C   0  0  0  0  0  0  0  0  0  0  0  0
    4.4412   -1.1244   -3.6347 C   0  0  0  0  0  0  0  0  0  0  0  0
    3.4889    0.0321   -3.2927 C   0  0  0  0  0  0  0  0  0  0  0  0
    0.6281    0.0100   -2.1887 C   0  0  0  0  0  0  0  0  0  0  0  0
   -0.4197    0.0059   -1.3271 C   0  0  0  0  0  0  0  0  0  0  0  0
   -1.8546    0.0117   -1.4954 C   0  0  0  0  0  0  0  0  0  0  0  0
   -2.4069   -0.0884   -2.7781 C   0  0  0  0  0  0  0  0  0  0  0  0
   -3.7872   -0.0782   -2.9543 C   0  0  0  0  0  0  0  0  0  0  0  0
   -4.5941    0.0265   -1.8243 C   0  0  0  0  0  0  0  0  0  0  0  0
   -5.9609    0.1328   -1.8737 O   0  0  0  0  0  0  0  0  0  0  0  0
   -6.7042   -0.5551   -2.8013 C   0  0  0  0  0  0  0  0  0  0  0  0
   -6.2179   -1.2724   -3.6271 O   0  0  0  0  0  0  0  0  0  0  0  0
   -8.1452   -0.2430   -2.5451 C   0  0  0  0  0  0  0  0  0  0  0  0
   -8.9268   -0.2846   -3.8628 C   0  0  0  0  0  0  0  0  0  0  0  0
  -10.4148   -0.0593   -3.6075 C   0  0  0  0  0  0  0  0  0  0  0  0
   -4.0705    0.1252   -0.5302 C   0  0  0  0  0  0  0  0  0  0  0  0
   -2.6917    0.1195   -0.3743 C   0  0  0  0  0  0  0  0  0  0  0  0
    4.0104   -0.0806    0.1575 H   0  0  0  0  0  0  0  0  0  0  0  0
    4.8481    0.9701   -0.9849 H   0  0  0  0  0  0  0  0  0  0  0  0
    6.1516   -1.1216   -0.6052 H   0  0  0  0  0  0  0  0  0  0  0  0
    4.7653   -2.1235   -1.0470 H   0  0  0  0  0  0  0  0  0  0  0  0
    6.2688   -0.1758   -2.9235 H   0  0  0  0  0  0  0  0  0  0  0  0
    6.3502   -1.9375   -2.9753 H   0  0  0  0  0  0  0  0  0  0  0  0
    4.7372   -1.0670   -4.6978 H   0  0  0  0  0  0  0  0  0  0  0  0
    3.9126   -2.0905   -3.5172 H   0  0  0  0  0  0  0  0  0  0  0  0
    3.9683    1.0039   -3.5379 H   0  0  0  0  0  0  0  0  0  0  0  0
    2.5900   -0.0224   -3.9384 H   0  0  0  0  0  0  0  0  0  0  0  0
    0.5977    0.0131   -3.2577 H   0  0  0  0  0  0  0  0  0  0  0  0
   -1.7544   -0.1766   -3.6475 H   0  0  0  0  0  0  0  0  0  0  0  0
   -4.2199   -0.1603   -3.9501 H   0  0  0  0  0  0  0  0  0  0  0  0
   -8.2605    0.7457   -2.0492 H   0  0  0  0  0  0  0  0  0  0  0  0
   -8.5538   -0.9830   -1.8216 H   0  0  0  0  0  0  0  0  0  0  0  0
   -8.7666   -1.2589   -4.3704 H   0  0  0  0  0  0  0  0  0  0  0  0
   -8.5376    0.4814   -4.5625 H   0  0  0  0  0  0  0  0  0  0  0  0
  -10.8332   -0.8292   -2.9488 H   0  0  0  0  0  0  0  0  0  0  0  0
  -10.9849   -0.0888   -4.5440 H   0  0  0  0  0  0  0  0  0  0  0  0
  -10.6041    0.9147   -3.1416 H   0  0  0  0  0  0  0  0  0  0  0  0
   -4.7391    0.2077    0.3237 H   0  0  0  0  0  0  0  0  0  0  0  0
   -2.2537    0.1980    0.6252 H   0  0  0  0  0  0  0  0  0  0  0  0
  1  2  1  0  0  0  0
  2  3  2  0  0  0  0
  4  2  1  0  0  0  0
  5  4  2  0  0  0  0
  5  6  1  0  0  0  0
  6 25  1  0  0  0  0
  7 28  1  0  0  0  0
  7  6  1  0  0  0  0
  7 27  1  0  0  0  0
  8  7  1  0  0  0  0
  9 32  1  0  0  0  0
  9 10  1  0  0  0  0
  9  8  1  0  0  0  0
 10  5  1  0  0  0  0
 11  4  1  0  0  0  0
 11 12  2  0  0  0  0
 12  1  1  0  0  0  0
 13 12  1  0  0  0  0
 13 24  2  0  0  0  0
 14 13  1  0  0  0  0
 15 14  2  0  0  0  0
 15 16  1  0  0  0  0
 16 23  2  0  0  0  0
 17 16  1  0  0  0  0
 18 20  1  0  0  0  0
 18 17  1  0  0  0  0
 19 18  2  0  0  0  0
 20 38  1  0  0  0  0
 20 39  1  0  0  0  0
 21 22  1  0  0  0  0
 21 20  1  0  0  0  0
 22 44  1  0  0  0  0
 22 42  1  0  0  0  0
 23 24  1  0  0  0  0
 23 45  1  0  0  0  0
 24 46  1  0  0  0  0
 26  6  1  0  0  0  0
 29  8  1  0  0  0  0
 30  8  1  0  0  0  0
 31  9  1  0  0  0  0
 33 10  1  0  0  0  0
 34 10  1  0  0  0  0
 35 11  1  0  0  0  0
 36 14  1  0  0  0  0
 37 15  1  0  0  0  0
 40 21  1  0  0  0  0
 41 21  1  0  0  0  0
 43 22  1  0  0  0  0
M  END
$$$$
