46

O          0.04540       -0.20780       -0.00550
C          1.43090       -0.18290        0.04150
O          2.01060       -0.21680        1.09220
C          1.90500       -0.11600       -1.37750
C          3.20700       -0.07490       -1.77590
C          4.37740       -0.11530       -0.83100
C          5.31310       -1.29200       -1.17370
C          5.74260       -1.26580       -2.64260
C          4.52870       -1.22250       -3.57430
C          3.59680       -0.04340       -3.22950
C          0.69020       -0.10680       -2.17450
C         -0.36700       -0.16190       -1.32550
C         -1.80490       -0.18140       -1.54920
C         -2.34060       -0.14580       -2.84920
C         -3.71430       -0.16520       -3.07700
C         -4.58180       -0.22160       -1.97580
O         -5.96240       -0.24490       -2.03680
C         -6.72080       -0.24560       -3.16670
O         -6.28710       -0.22330       -4.28850
C         -8.18430       -0.27830       -2.79150
C         -9.11970       -0.28630       -3.99620
C        -10.59220       -0.31920       -3.59280
C         -4.06900       -0.25710       -0.67370
C         -2.69590       -0.23750       -0.46030
H          4.04470       -0.16410        0.21100
H          4.94520        0.82680       -0.95770
H          6.19260       -1.26570       -0.51030
H          4.78500       -2.23800       -0.96100
H          6.37070       -0.37410       -2.82290
H          6.36980       -2.14210       -2.87540
H          4.84600       -1.14700       -4.62710
H          3.95910       -2.16370       -3.47990
H          4.14390        0.89980       -3.41820
H          2.71920       -0.04040       -3.88970
H          0.62620       -0.06220       -3.25740
H         -1.67160       -0.10240       -3.71080
H         -4.11230       -0.13890       -4.08640
H         -8.37800        0.58840       -2.13500
H         -8.34320       -1.16320       -2.15020
H         -8.87780       -1.15360       -4.63200
H         -8.91260        0.60090       -4.61670
H        -10.82620       -1.21780       -2.99780
H        -11.24840       -0.32470       -4.47660
H        -10.86170        0.55890       -2.98260
H         -4.76940       -0.30030        0.16190
H         -2.29650       -0.26550        0.55350
