
     RDKit          3D

 46 48  0  0  0  0  0  0  0  0999 V2000
    0.0454   -0.2078   -0.0055 O   0  0  0  0  0  0  0  0  0  0  0  0
    1.4309   -0.1829    0.0415 C   0  0  0  0  0  0  0  0  0  0  0  0
    2.0106   -0.2168    1.0922 O   0  0  0  0  0  0  0  0  0  0  0  0
    1.9050   -0.1160   -1.3775 C   0  0  0  0  0  0  0  0  0  0  0  0
    3.2070   -0.0749   -1.7759 C   0  0  0  0  0  0  0  0  0  0  0  0
    4.3774   -0.1153   -0.8310 C   0  0  0  0  0  0  0  0  0  0  0  0
    5.3131   -1.2920   -1.1737 C   0  0  0  0  0  0  0  0  0  0  0  0
    5.7426   -1.2658   -2.6426 C   0  0  0  0  0  0  0  0  0  0  0  0
    4.5287   -1.2225   -3.5743 C   0  0  0  0  0  0  0  0  0  0  0  0
    3.5968   -0.0434   -3.2295 C   0  0  0  0  0  0  0  0  0  0  0  0
    0.6902   -0.1068   -2.1745 C   0  0  0  0  0  0  0  0  0  0  0  0
   -0.3670   -0.1619   -1.3255 C   0  0  0  0  0  0  0  0  0  0  0  0
   -1.8049   -0.1814   -1.5492 C   0  0  0  0  0  0  0  0  0  0  0  0
   -2.3406   -0.1458   -2.8492 C   0  0  0  0  0  0  0  0  0  0  0  0
   -3.7143   -0.1652   -3.0770 C   0  0  0  0  0  0  0  0  0  0  0  0
   -4.5818   -0.2216   -1.9758 C   0  0  0  0  0  0  0  0  0  0  0  0
   -5.9624   -0.2449   -2.0368 O   0  0  0  0  0  0  0  0  0  0  0  0
   -6.7208   -0.2456   -3.1667 C   0  0  0  0  0  0  0  0  0  0  0  0
   -6.2871   -0.2233   -4.2885 O   0  0  0  0  0  0  0  0  0  0  0  0
   -8.1843   -0.2783   -2.7915 C   0  0  0  0  0  0  0  0  0  0  0  0
   -9.1197   -0.2863   -3.9962 C   0  0  0  0  0  0  0  0  0  0  0  0
  -10.5922   -0.3192   -3.5928 C   0  0  0  0  0  0  0  0  0  0  0  0
   -4.0690   -0.2571   -0.6737 C   0  0  0  0  0  0  0  0  0  0  0  0
   -2.6959   -0.2375   -0.4603 C   0  0  0  0  0  0  0  0  0  0  0  0
    4.0447   -0.1641    0.2110 H   0  0  0  0  0  0  0  0  0  0  0  0
    4.9452    0.8268   -0.9577 H   0  0  0  0  0  0  0  0  0  0  0  0
    6.1926   -1.2657   -0.5103 H   0  0  0  0  0  0  0  0  0  0  0  0
    4.7850   -2.2380   -0.9610 H   0  0  0  0  0  0  0  0  0  0  0  0
    6.3707   -0.3741   -2.8229 H   0  0  0  0  0  0  0  0  0  0  0  0
    6.3698   -2.1421   -2.8754 H   0  0  0  0  0  0  0  0  0  0  0  0
    4.8460   -1.1470   -4.6271 H   0  0  0  0  0  0  0  0  0  0  0  0
    3.9591   -2.1637   -3.4799 H   0  0  0  0  0  0  0  0  0  0  0  0
    4.1439    0.8998   -3.4182 H   0  0  0  0  0  0  0  0  0  0  0  0
    2.7192   -0.0404   -3.8897 H   0  0  0  0  0  0  0  0  0  0  0  0
    0.6262   -0.0622   -3.2574 H   0  0  0  0  0  0  0  0  0  0  0  0
   -1.6716   -0.1024   -3.7108 H   0  0  0  0  0  0  0  0  0  0  0  0
   -4.1123   -0.1389   -4.0864 H   0  0  0  0  0  0  0  0  0  0  0  0
   -8.3780    0.5884   -2.1350 H   0  0  0  0  0  0  0  0  0  0  0  0
   -8.3432   -1.1632   -2.1502 H   0  0  0  0  0  0  0  0  0  0  0  0
   -8.8778   -1.1536   -4.6320 H   0  0  0  0  0  0  0  0  0  0  0  0
   -8.9126    0.6009   -4.6167 H   0  0  0  0  0  0  0  0  0  0  0  0
  -10.8262   -1.2178   -2.9978 H   0  0  0  0  0  0  0  0  0  0  0  0
  -11.2484   -0.3247   -4.4766 H   0  0  0  0  0  0  0  0  0  0  0  0
  -10.8617    0.5589   -2.9826 H   0  0  0  0  0  0  0  0  0  0  0  0
   -4.7694   -0.3003    0.1619 H   0  0  0  0  0  0  0  0  0  0  0  0
   -2.2965   -0.2655    0.5535 H   0  0  0  0  0  0  0  0  0  0  0  0
  1  2  1  0
  1 12  1  0
  2  3  2  0
  2  4  1  0
  4  5  2  3
  4 11  1  0
  5  6  1  0
  5 10  1  0
  6  7  1  0
  6 25  1  0
  6 26  1  0
  7  8  1  0
  7 27  1  0
  7 28  1  0
  8  9  1  0
  8 29  1  0
  8 30  1  0
  9 10  1  0
  9 31  1  0
  9 32  1  0
 10 33  1  0
 10 34  1  0
 11 12  2  0
 11 35  1  0
 12 13  1  0
 13 14  2  0
 13 24  1  0
 14 15  1  0
 14 36  1  0
 15 16  2  0
 15 37  1  0
 16 17  1  0
 16 23  1  0
 17 18  1  0
 18 19  2  0
 18 20  1  0
 20 21  1  0
 20 38  1  0
 20 39  1  0
 21 22  1  0
 21 40  1  0
 21 41  1  0
 22 42  1  0
 22 43  1  0
 22 44  1  0
 23 24  2  0
 23 45  1  0
 24 46  1  0
M  END

