rmsd25.gzmat
 OpenBabel08211713403D

 46 48  0  0  0  0  0  0  0  0999 V2000
    0.0000    0.0000    0.0000 O   0  0  0  0  0  0  0  0  0  0  0  0
    1.4133    0.0000    0.0000 C   0  0  0  0  0  0  0  0  0  0  0  0
    1.9737    0.0000    1.0552 O   0  0  0  0  0  0  0  0  0  0  0  0
    1.8642   -0.0034   -1.4093 C   0  0  0  0  0  0  0  0  0  0  0  0
    3.1403   -0.0138   -1.8338 C   0  0  0  0  0  0  0  0  0  0  0  0
    4.3121    0.0152   -0.9063 C   0  0  0  0  0  0  0  0  0  0  0  0
    5.2796   -1.1362   -1.2200 C   0  0  0  0  0  0  0  0  0  0  0  0
    5.6896   -1.1205   -2.6965 C   0  0  0  0  0  0  0  0  0  0  0  0
    4.4462   -1.1993   -3.5887 C   0  0  0  0  0  0  0  0  0  0  0  0
    3.4916   -0.0326   -3.2896 C   0  0  0  0  0  0  0  0  0  0  0  0
    0.6288   -0.0019   -2.1891 C   0  0  0  0  0  0  0  0  0  0  0  0
   -0.4181    0.0040   -1.3270 C   0  0  0  0  0  0  0  0  0  0  0  0
   -1.8533    0.0113   -1.4938 C   0  0  0  0  0  0  0  0  0  0  0  0
   -2.6843   -0.3292   -0.4165 C   0  0  0  0  0  0  0  0  0  0  0  0
   -4.0636   -0.3292   -0.5716 C   0  0  0  0  0  0  0  0  0  0  0  0
   -4.5926    0.0294   -1.8160 C   0  0  0  0  0  0  0  0  0  0  0  0
   -5.9631    0.0948   -1.8343 O   0  0  0  0  0  0  0  0  0  0  0  0
   -6.6870   -0.2580   -2.9453 C   0  0  0  0  0  0  0  0  0  0  0  0
   -6.1821   -0.6283   -3.9657 O   0  0  0  0  0  0  0  0  0  0  0  0
   -8.1379   -0.1006   -2.6103 C   0  0  0  0  0  0  0  0  0  0  0  0
   -8.8217   -1.4720   -2.6877 C   0  0  0  0  0  0  0  0  0  0  0  0
  -10.2949   -1.3554   -2.3058 C   0  0  0  0  0  0  0  0  0  0  0  0
   -3.7905    0.3744   -2.9012 C   0  0  0  0  0  0  0  0  0  0  0  0
   -2.4096    0.3592   -2.7304 C   0  0  0  0  0  0  0  0  0  0  0  0
    4.0090   -0.0410    0.1630 H   0  0  0  0  0  0  0  0  0  0  0  0
    4.8351    0.9905   -1.0045 H   0  0  0  0  0  0  0  0  0  0  0  0
    6.1734   -1.0610   -0.5735 H   0  0  0  0  0  0  0  0  0  0  0  0
    4.8025   -2.1029   -0.9662 H   0  0  0  0  0  0  0  0  0  0  0  0
    6.2638   -0.2035   -2.9240 H   0  0  0  0  0  0  0  0  0  0  0  0
    6.3699   -1.9646   -2.9126 H   0  0  0  0  0  0  0  0  0  0  0  0
    4.7363   -1.1862   -4.6547 H   0  0  0  0  0  0  0  0  0  0  0  0
    3.9226   -2.1616   -3.4259 H   0  0  0  0  0  0  0  0  0  0  0  0
    3.9696    0.9312   -3.5663 H   0  0  0  0  0  0  0  0  0  0  0  0
    2.5943   -0.1110   -3.9347 H   0  0  0  0  0  0  0  0  0  0  0  0
    0.5961   -0.0124   -3.2581 H   0  0  0  0  0  0  0  0  0  0  0  0
   -2.2420   -0.5968    0.5470 H   0  0  0  0  0  0  0  0  0  0  0  0
   -4.7266   -0.5954    0.2481 H   0  0  0  0  0  0  0  0  0  0  0  0
   -8.6039    0.6105   -3.3259 H   0  0  0  0  0  0  0  0  0  0  0  0
   -8.2772    0.3469   -1.6017 H   0  0  0  0  0  0  0  0  0  0  0  0
   -8.3136   -2.1920   -2.0153 H   0  0  0  0  0  0  0  0  0  0  0  0
   -8.7210   -1.8892   -3.7109 H   0  0  0  0  0  0  0  0  0  0  0  0
  -10.4180   -0.9930   -1.2783 H   0  0  0  0  0  0  0  0  0  0  0  0
  -10.7969   -2.3285   -2.3693 H   0  0  0  0  0  0  0  0  0  0  0  0
  -10.8331   -0.6668   -2.9670 H   0  0  0  0  0  0  0  0  0  0  0  0
   -4.2285    0.6417   -3.8611 H   0  0  0  0  0  0  0  0  0  0  0  0
   -1.7598    0.6242   -3.5652 H   0  0  0  0  0  0  0  0  0  0  0  0
  2  1  1  0  0  0  0
  2  3  2  0  0  0  0
  4  2  1  0  0  0  0
  5  4  2  0  0  0  0
  5  6  1  0  0  0  0
  6 25  1  0  0  0  0
  7 28  1  0  0  0  0
  7  6  1  0  0  0  0
  7 27  1  0  0  0  0
  8  7  1  0  0  0  0
  9 32  1  0  0  0  0
  9 10  1  0  0  0  0
  9  8  1  0  0  0  0
 10  5  1  0  0  0  0
 11  4  1  0  0  0  0
 11 12  2  0  0  0  0
 12  1  1  0  0  0  0
 13 12  1  0  0  0  0
 13 14  2  0  0  0  0
 14 36  1  0  0  0  0
 15 14  1  0  0  0  0
 15 37  1  0  0  0  0
 16 15  2  0  0  0  0
 17 16  1  0  0  0  0
 18 20  1  0  0  0  0
 18 17  1  0  0  0  0
 19 18  2  0  0  0  0
 20 39  1  0  0  0  0
 21 20  1  0  0  0  0
 21 22  1  0  0  0  0
 21 40  1  0  0  0  0
 22 42  1  0  0  0  0
 23 24  2  0  0  0  0
 23 16  1  0  0  0  0
 24 13  1  0  0  0  0
 26  6  1  0  0  0  0
 29  8  1  0  0  0  0
 30  8  1  0  0  0  0
 31  9  1  0  0  0  0
 33 10  1  0  0  0  0
 34 10  1  0  0  0  0
 35 11  1  0  0  0  0
 38 20  1  0  0  0  0
 41 21  1  0  0  0  0
 43 22  1  0  0  0  0
 44 22  1  0  0  0  0
 45 23  1  0  0  0  0
 46 24  1  0  0  0  0
M  END
$$$$
