46
rmsd20.gzmat
O          0.00000        0.00000        0.00000
C          1.41400        0.00000        0.00000
O          1.97490        0.00000        1.05500
C          1.86440        0.00120       -1.40950
C          3.13970        0.00180       -1.83720
C          4.31170        0.02050       -0.90960
C          5.29110       -1.11140       -1.25500
C          5.71070       -1.03300       -2.72680
C          4.47430       -1.11240       -3.62870
C          3.48690        0.01700       -3.29450
C          0.62890        0.00190       -2.18810
C         -0.41940        0.00210       -1.32680
C         -1.85440        0.00540       -1.49820
C         -2.40110       -0.11110       -2.78400
C         -3.77850       -0.11360       -2.96240
C         -4.59390       -0.00210       -1.83220
O         -5.93640       -0.12880       -2.08990
C         -6.85810        0.63130       -1.40750
O         -6.54230        1.47580       -0.62060
C         -8.22050        0.20250       -1.85090
C         -9.28540        0.83330       -0.94700
C        -10.68070        0.36660       -1.35230
C         -4.07810        0.12140       -0.54350
C         -2.69630        0.12380       -0.38410
H          4.01110       -0.06600        0.15840
H          4.82350        1.00420       -0.98390
H          6.17760       -1.05440       -0.59650
H          4.82000       -2.09140       -1.04400
H          6.26140       -0.09320       -2.91710
H          6.41400       -1.85020       -2.96880
H          4.77030       -1.05260       -4.69170
H          3.97660       -2.09380       -3.50630
H          3.93620        1.00060       -3.55170
H          2.58880       -0.07350       -3.93710
H          0.59900        0.00390       -3.25670
H         -1.74390       -0.20060       -3.64920
H         -4.22300       -0.20490       -3.94970
H         -8.29900       -0.90690       -1.84210
H         -8.38100        0.49440       -2.91150
H         -9.21890        1.93970       -0.99760
H         -9.08640        0.57790        0.11350
H        -10.91260        0.63140       -2.39040
H        -11.44960        0.82790       -0.72040
H        -10.79040       -0.71980       -1.25580
H         -4.73740        0.22330        0.31740
H         -2.26370        0.21740        0.61700
