rmsd3.gzmat
 OpenBabel08211713403D

 46 48  0  0  0  0  0  0  0  0999 V2000
    0.0000    0.0000    0.0000 O   0  0  0  0  0  0  0  0  0  0  0  0
    1.4134    0.0000    0.0000 C   0  0  0  0  0  0  0  0  0  0  0  0
    1.9742    0.0000    1.0551 O   0  0  0  0  0  0  0  0  0  0  0  0
    1.8644   -0.0052   -1.4089 C   0  0  0  0  0  0  0  0  0  0  0  0
    3.1401    0.0099   -1.8373 C   0  0  0  0  0  0  0  0  0  0  0  0
    4.3077    0.1133   -0.9097 C   0  0  0  0  0  0  0  0  0  0  0  0
    5.3844   -0.9320   -1.2336 C   0  0  0  0  0  0  0  0  0  0  0  0
    5.7798   -0.8691   -2.7124 C   0  0  0  0  0  0  0  0  0  0  0  0
    4.5433   -1.0830   -3.5916 C   0  0  0  0  0  0  0  0  0  0  0  0
    3.4779   -0.0171   -3.2963 C   0  0  0  0  0  0  0  0  0  0  0  0
    0.6283   -0.0152   -2.1881 C   0  0  0  0  0  0  0  0  0  0  0  0
   -0.4197    0.0013   -1.3274 C   0  0  0  0  0  0  0  0  0  0  0  0
   -1.8551    0.0377   -1.4907 C   0  0  0  0  0  0  0  0  0  0  0  0
   -2.6901   -0.1955   -0.3873 C   0  0  0  0  0  0  0  0  0  0  0  0
   -4.0686   -0.1410   -0.5314 C   0  0  0  0  0  0  0  0  0  0  0  0
   -4.5981    0.1581   -1.7933 C   0  0  0  0  0  0  0  0  0  0  0  0
   -5.9627    0.2823   -1.7822 O   0  0  0  0  0  0  0  0  0  0  0  0
   -6.7413    0.0792   -2.8940 C   0  0  0  0  0  0  0  0  0  0  0  0
   -6.2985   -0.2392   -3.9594 O   0  0  0  0  0  0  0  0  0  0  0  0
   -8.1645    0.3081   -2.4886 C   0  0  0  0  0  0  0  0  0  0  0  0
   -8.9564    0.8796   -3.6700 C   0  0  0  0  0  0  0  0  0  0  0  0
  -10.4172    1.0916   -3.2809 C   0  0  0  0  0  0  0  0  0  0  0  0
   -3.7926    0.3873   -2.9055 C   0  0  0  0  0  0  0  0  0  0  0  0
   -2.4114    0.3219   -2.7431 C   0  0  0  0  0  0  0  0  0  0  0  0
    4.0084    0.0095    0.1577 H   0  0  0  0  0  0  0  0  0  0  0  0
    4.7374    1.1364   -0.9862 H   0  0  0  0  0  0  0  0  0  0  0  0
    6.2699   -0.7680   -0.5913 H   0  0  0  0  0  0  0  0  0  0  0  0
    5.0131   -1.9441   -0.9812 H   0  0  0  0  0  0  0  0  0  0  0  0
    6.2485    0.1057   -2.9421 H   0  0  0  0  0  0  0  0  0  0  0  0
    6.5462   -1.6335   -2.9360 H   0  0  0  0  0  0  0  0  0  0  0  0
    4.8204   -1.0517   -4.6608 H   0  0  0  0  0  0  0  0  0  0  0  0
    4.1232   -2.0924   -3.4149 H   0  0  0  0  0  0  0  0  0  0  0  0
    3.8474    0.9846   -3.6045 H   0  0  0  0  0  0  0  0  0  0  0  0
    2.5843   -0.2059   -3.9252 H   0  0  0  0  0  0  0  0  0  0  0  0
    0.5982   -0.0285   -3.2566 H   0  0  0  0  0  0  0  0  0  0  0  0
   -2.2499   -0.4190    0.5890 H   0  0  0  0  0  0  0  0  0  0  0  0
   -4.7339   -0.3166    0.3106 H   0  0  0  0  0  0  0  0  0  0  0  0
   -8.2278    0.9847   -1.6081 H   0  0  0  0  0  0  0  0  0  0  0  0
   -8.6049   -0.6554   -2.1485 H   0  0  0  0  0  0  0  0  0  0  0  0
   -8.8848    0.1973   -4.5425 H   0  0  0  0  0  0  0  0  0  0  0  0
   -8.5074    1.8356   -4.0050 H   0  0  0  0  0  0  0  0  0  0  0  0
  -10.8951    0.1545   -2.9735 H   0  0  0  0  0  0  0  0  0  0  0  0
  -10.9969    1.4899   -4.1227 H   0  0  0  0  0  0  0  0  0  0  0  0
  -10.5176    1.8019   -2.4519 H   0  0  0  0  0  0  0  0  0  0  0  0
   -4.2230    0.6104   -3.8811 H   0  0  0  0  0  0  0  0  0  0  0  0
   -1.7606    0.5012   -3.5997 H   0  0  0  0  0  0  0  0  0  0  0  0
  2  1  1  0  0  0  0
  2  3  2  0  0  0  0
  4  2  1  0  0  0  0
  5  4  2  0  0  0  0
  5  6  1  0  0  0  0
  6 25  1  0  0  0  0
  7 28  1  0  0  0  0
  7  6  1  0  0  0  0
  7 27  1  0  0  0  0
  8  7  1  0  0  0  0
  9 32  1  0  0  0  0
  9 10  1  0  0  0  0
  9  8  1  0  0  0  0
 10  5  1  0  0  0  0
 11  4  1  0  0  0  0
 11 12  2  0  0  0  0
 12  1  1  0  0  0  0
 13 12  1  0  0  0  0
 13 14  2  0  0  0  0
 14 36  1  0  0  0  0
 15 14  1  0  0  0  0
 15 37  1  0  0  0  0
 16 17  1  0  0  0  0
 16 15  2  0  0  0  0
 18 20  1  0  0  0  0
 18 17  1  0  0  0  0
 19 18  2  0  0  0  0
 20 39  1  0  0  0  0
 20 38  1  0  0  0  0
 21 22  1  0  0  0  0
 21 20  1  0  0  0  0
 22 42  1  0  0  0  0
 22 44  1  0  0  0  0
 23 24  2  0  0  0  0
 23 16  1  0  0  0  0
 24 13  1  0  0  0  0
 26  6  1  0  0  0  0
 29  8  1  0  0  0  0
 30  8  1  0  0  0  0
 31  9  1  0  0  0  0
 33 10  1  0  0  0  0
 34 10  1  0  0  0  0
 35 11  1  0  0  0  0
 40 21  1  0  0  0  0
 41 21  1  0  0  0  0
 43 22  1  0  0  0  0
 45 23  1  0  0  0  0
 46 24  1  0  0  0  0
M  END
$$$$
