
     RDKit          3D

 46 48  0  0  0  0  0  0  0  0999 V2000
    0.0365   -0.0802   -0.0447 O   0  0  0  0  0  0  0  0  0  0  0  0
    1.4220   -0.0875    0.0087 C   0  0  0  0  0  0  0  0  0  0  0  0
    1.9959   -0.1254    1.0625 O   0  0  0  0  0  0  0  0  0  0  0  0
    1.9040   -0.0447   -1.4085 C   0  0  0  0  0  0  0  0  0  0  0  0
    3.2084   -0.0388   -1.8010 C   0  0  0  0  0  0  0  0  0  0  0  0
    4.3732   -0.0997   -0.8505 C   0  0  0  0  0  0  0  0  0  0  0  0
    5.2800   -1.3032   -1.1779 C   0  0  0  0  0  0  0  0  0  0  0  0
    5.7164   -1.3018   -2.6450 C   0  0  0  0  0  0  0  0  0  0  0  0
    4.5082   -1.2360   -3.5827 C   0  0  0  0  0  0  0  0  0  0  0  0
    3.6055   -0.0303   -3.2530 C   0  0  0  0  0  0  0  0  0  0  0  0
    0.6934   -0.0138   -2.2113 C   0  0  0  0  0  0  0  0  0  0  0  0
   -0.3687   -0.0365   -1.3669 C   0  0  0  0  0  0  0  0  0  0  0  0
   -1.8056   -0.0249   -1.5974 C   0  0  0  0  0  0  0  0  0  0  0  0
   -2.3342    0.0119   -2.9002 C   0  0  0  0  0  0  0  0  0  0  0  0
   -3.7070    0.0215   -3.1346 C   0  0  0  0  0  0  0  0  0  0  0  0
   -4.5807   -0.0064   -2.0372 C   0  0  0  0  0  0  0  0  0  0  0  0
   -5.9611    0.0010   -2.1047 O   0  0  0  0  0  0  0  0  0  0  0  0
   -6.7140    0.0038   -3.2384 C   0  0  0  0  0  0  0  0  0  0  0  0
   -6.2745    0.0034   -4.3581 O   0  0  0  0  0  0  0  0  0  0  0  0
   -8.1796    0.0077   -2.8701 C   0  0  0  0  0  0  0  0  0  0  0  0
   -9.1092    0.0048   -4.0795 C   0  0  0  0  0  0  0  0  0  0  0  0
  -10.5839    0.0094   -3.6832 C   0  0  0  0  0  0  0  0  0  0  0  0
   -4.0749   -0.0422   -0.7324 C   0  0  0  0  0  0  0  0  0  0  0  0
   -2.7027   -0.0516   -0.5124 C   0  0  0  0  0  0  0  0  0  0  0  0
    4.0349   -0.1302    0.1904 H   0  0  0  0  0  0  0  0  0  0  0  0
    4.9655    0.8263   -0.9835 H   0  0  0  0  0  0  0  0  0  0  0  0
    6.1570   -1.2931   -0.5108 H   0  0  0  0  0  0  0  0  0  0  0  0
    4.7269   -2.2333   -0.9588 H   0  0  0  0  0  0  0  0  0  0  0  0
    6.3681   -0.4283   -2.8307 H   0  0  0  0  0  0  0  0  0  0  0  0
    6.3218   -2.1961   -2.8667 H   0  0  0  0  0  0  0  0  0  0  0  0
    4.8319   -1.1785   -4.6347 H   0  0  0  0  0  0  0  0  0  0  0  0
    3.9141   -2.1613   -3.4823 H   0  0  0  0  0  0  0  0  0  0  0  0
    4.1776    0.8968   -3.4475 H   0  0  0  0  0  0  0  0  0  0  0  0
    2.7313   -0.0106   -3.9174 H   0  0  0  0  0  0  0  0  0  0  0  0
    0.6355    0.0223   -3.2949 H   0  0  0  0  0  0  0  0  0  0  0  0
   -1.6604    0.0330   -3.7588 H   0  0  0  0  0  0  0  0  0  0  0  0
   -4.0995    0.0481   -4.1461 H   0  0  0  0  0  0  0  0  0  0  0  0
   -8.3575    0.8867   -2.2257 H   0  0  0  0  0  0  0  0  0  0  0  0
   -8.3609   -0.8652   -2.2186 H   0  0  0  0  0  0  0  0  0  0  0  0
   -8.8833   -0.8757   -4.7030 H   0  0  0  0  0  0  0  0  0  0  0  0
   -8.8796    0.8793   -4.7101 H   0  0  0  0  0  0  0  0  0  0  0  0
  -10.8406   -0.8761   -3.0780 H   0  0  0  0  0  0  0  0  0  0  0  0
  -11.2359    0.0070   -4.5702 H   0  0  0  0  0  0  0  0  0  0  0  0
  -10.8371    0.9010   -3.0855 H   0  0  0  0  0  0  0  0  0  0  0  0
   -4.7801   -0.0626    0.1001 H   0  0  0  0  0  0  0  0  0  0  0  0
   -2.3088   -0.0801    0.5036 H   0  0  0  0  0  0  0  0  0  0  0  0
  1  2  1  0
  1 12  1  0
  2  3  2  0
  2  4  1  0
  4  5  2  3
  4 11  1  0
  5  6  1  0
  5 10  1  0
  6  7  1  0
  6 25  1  0
  6 26  1  0
  7  8  1  0
  7 27  1  0
  7 28  1  0
  8  9  1  0
  8 29  1  0
  8 30  1  0
  9 10  1  0
  9 31  1  0
  9 32  1  0
 10 33  1  0
 10 34  1  0
 11 12  2  0
 11 35  1  0
 12 13  1  0
 13 14  2  0
 13 24  1  0
 14 15  1  0
 14 36  1  0
 15 16  2  0
 15 37  1  0
 16 17  1  0
 16 23  1  0
 17 18  1  0
 18 19  2  0
 18 20  1  0
 20 21  1  0
 20 38  1  0
 20 39  1  0
 21 22  1  0
 21 40  1  0
 21 41  1  0
 22 42  1  0
 22 43  1  0
 22 44  1  0
 23 24  2  0
 23 45  1  0
 24 46  1  0
M  END

