46
rmsd1.gzmat
O          0.00000        0.00000        0.00000
C          1.41390        0.00000        0.00000
O          1.97470        0.00000        1.05510
C          1.86430       -0.00100       -1.40960
C          3.13920       -0.01600       -1.83670
C          4.31540       -0.01970       -0.91390
C          5.22490       -1.21860       -1.22480
C          5.64000       -1.22130       -2.70060
C          4.39930       -1.22830       -3.60140
C          3.49540       -0.02360       -3.29170
C          0.62900        0.00490       -2.18870
C         -0.41930        0.00460       -1.32730
C         -1.85390        0.00140       -1.49940
C         -2.69860       -0.10560       -0.38450
C         -4.07650       -0.12080       -0.55000
C         -4.59430       -0.03260       -1.84760
O         -5.95900       -0.16060       -1.90100
C         -6.71330        0.45780       -2.86830
O         -6.24130        1.16080       -3.71450
C         -8.14570        0.09810       -2.62410
C         -8.93290        0.16820       -3.93780
C        -10.40300       -0.16890       -3.70220
C         -3.77880        0.08060       -2.97080
C         -2.39980        0.10020       -2.78510
H          4.01740       -0.04830        0.15740
H          4.88070        0.92940       -1.02870
H          6.11820       -1.18940       -0.57360
H          4.69820       -2.16040       -0.97580
H          6.26780       -0.33830       -2.92160
H          6.27160       -2.10290       -2.91630
H          4.69660       -1.21230       -4.66540
H          3.83160       -2.16820       -3.45600
H          4.02090        0.92110       -3.54830
H          2.60010       -0.04960       -3.94350
H          0.59990        0.00420       -3.25740
H         -2.26750       -0.17700        0.61850
H         -4.74880       -0.20500        0.30060
H         -8.57480        0.79630       -1.87150
H         -8.23230       -0.91160       -2.16660
H         -8.49580       -0.52590       -4.68310
H         -8.83700        1.17990       -4.38470
H        -10.52690       -1.16860       -3.27030
H        -10.96830       -0.14870       -4.64210
H        -10.88030        0.54660       -3.02280
H         -4.20180        0.16110       -3.97050
H         -1.74290        0.19370       -3.65080
