31

O         -0.10230        0.17350       -0.21610
C          1.09650        0.16240       -0.12010
O          1.81220        0.12250        0.99540
C          1.13790       -0.26130        2.20430
C          1.18280       -1.75910        2.38900
C          2.26690       -2.50220        1.89880
C          2.31380       -3.88310        2.10390
C          1.28980       -4.53040        2.80180
C          0.20880       -3.79130        3.28980
C          0.15340       -2.41150        3.07850
N          1.94540        0.22950       -1.24530
C          3.30650       -0.07190       -1.38720
N          4.18390       -0.52790       -0.49410
C          5.39480       -0.72300       -1.02570
N          5.78900       -0.51970       -2.28670
C          4.89190       -0.07400       -3.18110
N          5.27040        0.12630       -4.46010
C          3.56870        0.16860       -2.74310
N          2.43420        0.59060       -3.41710
C          1.49650        0.60720       -2.51660
H          0.10360        0.10950        2.18660
H          1.69220        0.25550        3.00180
H          3.06100       -1.99380        1.34540
H          3.15800       -4.45790        1.71480
H          1.33050       -5.61080        2.95990
H         -0.60060       -4.29170        3.82680
H         -0.70160       -1.83810        3.44740
H          6.16330       -1.10030       -0.34130
H          6.22300       -0.07910       -4.72920
H          4.59610        0.44540       -5.14150
H          0.45220        0.88000       -2.66100
