31
rmsd205.gzmat
O          0.00000        0.00000        0.00000
C          1.20310        0.00000        0.00000
O          2.03430        0.00000        1.06040
C          1.44090       -0.40600        2.30610
C          1.46850       -1.89870        2.39060
C          2.54360       -2.59410        1.83510
C          2.57360       -3.98490        1.89600
C          1.53930       -4.67760        2.52410
C          0.47130       -3.97970        3.08660
C          0.43070       -2.58870        3.01630
N          1.95520        0.07010       -1.19460
C          3.32830       -0.12890       -1.38620
N          4.29120       -0.48590       -0.51020
C          5.52510       -0.60200       -1.05950
N          5.85840       -0.40030       -2.35260
C          4.88300       -0.04940       -3.25080
N          5.24610        0.13800       -4.54440
C          3.55190        0.09580       -2.78650
N          2.34310        0.41470       -3.41650
C          1.40900        0.39400       -2.48550
H          0.43070        0.02990        2.41770
H          2.13920        0.06900        3.02960
H          3.35450       -2.04430        1.34490
H          3.40480       -4.52900        1.45140
H          1.56370       -5.76430        2.57370
H         -0.33480       -4.52230        3.57580
H         -0.41210       -2.04860        3.44220
H          6.34460       -0.89130       -0.37750
H          6.20030        0.02550       -4.82910
H          4.55870        0.39720       -5.22640
H          0.34840        0.58240       -2.60480
