31
rmsd76.gzmat
O          0.00000        0.00000        0.00000
C          1.20330        0.00000        0.00000
O          2.03570        0.00000        1.05970
C          1.43840       -0.38310        2.31020
C          1.40900       -1.87550        2.39870
C          0.34090       -2.52420        3.01810
C          0.32830       -3.91550        3.09320
C          1.37370       -4.65470        2.54180
C          2.43930       -4.00300        1.92210
C          2.46230       -2.61240        1.85570
N          1.95550        0.06470       -1.19450
C          3.33420       -0.09770       -1.37840
N          4.30530       -0.40110       -0.49140
C          5.54480       -0.48570       -1.03430
N          5.87580       -0.30160       -2.33090
C          4.89230       -0.00410       -3.23950
N          5.25350        0.17650       -4.53490
C          3.55490        0.10250       -2.78300
N          2.33860        0.36820       -3.42320
C          1.40270        0.34120       -2.49410
H          0.44740        0.09240        2.42960
H          2.16150        0.06630        3.02580
H         -0.48480       -1.95120        3.43490
H         -0.50250       -4.42490        3.57640
H          1.35580       -5.74150        2.59230
H          3.25440       -4.57980        1.48940
H          3.29860       -2.09500        1.37440
H          6.37160       -0.72970       -0.34310
H          6.21120        0.09010       -4.81610
H          4.55700        0.38730       -5.22440
H          0.33710        0.49420       -2.61970
