rmsd250.gzmat
 OpenBabel08211713373D

 31 33  0  0  0  0  0  0  0  0999 V2000
    0.0000    0.0000    0.0000 O   0  0  0  0  0  0  0  0  0  0  0  0
    1.2039    0.0000    0.0000 C   0  0  0  0  0  0  0  0  0  0  0  0
    2.0323    0.0000    1.0622 O   0  0  0  0  0  0  0  0  0  0  0  0
    1.4252   -0.3869    2.3085 C   0  0  0  0  0  0  0  0  0  0  0  0
    1.5062   -1.8744    2.4369 C   0  0  0  0  0  0  0  0  0  0  0  0
    2.6370   -2.5393    1.9596 C   0  0  0  0  0  0  0  0  0  0  0  0
    2.7247   -3.9241    2.0757 C   0  0  0  0  0  0  0  0  0  0  0  0
    1.6913   -4.6410    2.6780 C   0  0  0  0  0  0  0  0  0  0  0  0
    0.5641   -3.9741    3.1554 C   0  0  0  0  0  0  0  0  0  0  0  0
    0.4666   -2.5895    3.0311 C   0  0  0  0  0  0  0  0  0  0  0  0
    1.9504    0.0604   -1.1973 N   0  0  0  0  0  0  0  0  0  0  0  0
    3.3320   -0.0619   -1.3917 C   0  0  0  0  0  0  0  0  0  0  0  0
    4.3247   -0.2887   -0.5061 N   0  0  0  0  0  0  0  0  0  0  0  0
    5.5599   -0.3527   -1.0619 C   0  0  0  0  0  0  0  0  0  0  0  0
    5.8677   -0.2217   -2.3706 N   0  0  0  0  0  0  0  0  0  0  0  0
    4.8627   -0.0018   -3.2779 C   0  0  0  0  0  0  0  0  0  0  0  0
    5.1984    0.1197   -4.5869 N   0  0  0  0  0  0  0  0  0  0  0  0
    3.5292    0.0861   -2.8063 C   0  0  0  0  0  0  0  0  0  0  0  0
    2.2974    0.2857   -3.4417 N   0  0  0  0  0  0  0  0  0  0  0  0
    1.3738    0.2663   -2.5007 C   0  0  0  0  0  0  0  0  0  0  0  0
    0.3980    0.0149    2.3880 H   0  0  0  0  0  0  0  0  0  0  0  0
    2.0883    0.1329    3.0338 H   0  0  0  0  0  0  0  0  0  0  0  0
    3.4450   -1.9708    1.4878 H   0  0  0  0  0  0  0  0  0  0  0  0
    3.6011   -4.4461    1.6966 H   0  0  0  0  0  0  0  0  0  0  0  0
    1.7638   -5.7225    2.7732 H   0  0  0  0  0  0  0  0  0  0  0  0
   -0.2434   -4.5360    3.6202 H   0  0  0  0  0  0  0  0  0  0  0  0
   -0.4219   -2.0743    3.3903 H   0  0  0  0  0  0  0  0  0  0  0  0
    6.4050   -0.5285   -0.3713 H   0  0  0  0  0  0  0  0  0  0  0  0
    6.1532    0.0459   -4.8801 H   0  0  0  0  0  0  0  0  0  0  0  0
    4.4860    0.2829   -5.2738 H   0  0  0  0  0  0  0  0  0  0  0  0
    0.3018    0.3785   -2.6184 H   0  0  0  0  0  0  0  0  0  0  0  0
  1  2  2  0  0  0  0
  2  3  1  0  0  0  0
  3  4  1  0  0  0  0
  4 21  1  0  0  0  0
  4  5  1  0  0  0  0
  4 22  1  0  0  0  0
  5 10  2  0  0  0  0
  6  7  2  0  0  0  0
  6  5  1  0  0  0  0
  7  8  1  0  0  0  0
  8 25  1  0  0  0  0
  8  9  2  0  0  0  0
  9 26  1  0  0  0  0
 10  9  1  0  0  0  0
 10 27  1  0  0  0  0
 11  2  1  0  0  0  0
 12 11  1  0  0  0  0
 12 13  2  0  0  0  0
 14 13  2  0  0  0  0
 14 28  1  0  0  0  0
 15 14  2  0  0  0  0
 16 18  1  0  0  0  0
 16 15  2  0  0  0  0
 17 16  1  0  0  0  0
 18 12  1  0  0  0  0
 19 18  2  0  0  0  0
 19 20  2  0  0  0  0
 20 11  1  0  0  0  0
 23  6  1  0  0  0  0
 24  7  1  0  0  0  0
 29 17  1  0  0  0  0
 30 17  1  0  0  0  0
 31 20  1  0  0  0  0
M  END
$$$$
