
     RDKit          3D

 31 33  0  0  0  0  0  0  0  0999 V2000
   -0.1023    0.1735   -0.2161 O   0  0  0  0  0  0  0  0  0  0  0  0
    1.0965    0.1624   -0.1201 C   0  0  0  0  0  0  0  0  0  0  0  0
    1.8122    0.1225    0.9954 O   0  0  0  0  0  0  0  0  0  0  0  0
    1.1379   -0.2613    2.2043 C   0  0  0  0  0  0  0  0  0  0  0  0
    1.1828   -1.7591    2.3890 C   0  0  0  0  0  0  0  0  0  0  0  0
    2.2669   -2.5022    1.8988 C   0  0  0  0  0  0  0  0  0  0  0  0
    2.3138   -3.8831    2.1039 C   0  0  0  0  0  0  0  0  0  0  0  0
    1.2898   -4.5304    2.8018 C   0  0  0  0  0  0  0  0  0  0  0  0
    0.2088   -3.7913    3.2898 C   0  0  0  0  0  0  0  0  0  0  0  0
    0.1534   -2.4115    3.0785 C   0  0  0  0  0  0  0  0  0  0  0  0
    1.9454    0.2295   -1.2453 N   0  0  0  0  0  0  0  0  0  0  0  0
    3.3065   -0.0719   -1.3872 C   0  0  0  0  0  0  0  0  0  0  0  0
    4.1839   -0.5279   -0.4941 N   0  0  0  0  0  0  0  0  0  0  0  0
    5.3948   -0.7230   -1.0257 C   0  0  0  0  0  0  0  0  0  0  0  0
    5.7890   -0.5197   -2.2867 N   0  0  0  0  0  0  0  0  0  0  0  0
    4.8919   -0.0740   -3.1811 C   0  0  0  0  0  0  0  0  0  0  0  0
    5.2704    0.1263   -4.4601 N   0  0  0  0  0  0  0  0  0  0  0  0
    3.5687    0.1686   -2.7431 C   0  0  0  0  0  0  0  0  0  0  0  0
    2.4342    0.5906   -3.4171 N   0  0  0  0  0  0  0  0  0  0  0  0
    1.4965    0.6072   -2.5166 C   0  0  0  0  0  0  0  0  0  0  0  0
    0.1036    0.1095    2.1866 H   0  0  0  0  0  0  0  0  0  0  0  0
    1.6922    0.2555    3.0018 H   0  0  0  0  0  0  0  0  0  0  0  0
    3.0610   -1.9938    1.3454 H   0  0  0  0  0  0  0  0  0  0  0  0
    3.1580   -4.4579    1.7148 H   0  0  0  0  0  0  0  0  0  0  0  0
    1.3305   -5.6108    2.9599 H   0  0  0  0  0  0  0  0  0  0  0  0
   -0.6006   -4.2917    3.8268 H   0  0  0  0  0  0  0  0  0  0  0  0
   -0.7016   -1.8381    3.4474 H   0  0  0  0  0  0  0  0  0  0  0  0
    6.1633   -1.1003   -0.3413 H   0  0  0  0  0  0  0  0  0  0  0  0
    6.2230   -0.0791   -4.7292 H   0  0  0  0  0  0  0  0  0  0  0  0
    4.5961    0.4454   -5.1415 H   0  0  0  0  0  0  0  0  0  0  0  0
    0.4522    0.8800   -2.6610 H   0  0  0  0  0  0  0  0  0  0  0  0
  1  2  2  0
  2  3  1  0
  2 11  1  0
  3  4  1  0
  4  5  1  0
  4 21  1  0
  4 22  1  0
  5  6  2  0
  5 10  1  0
  6  7  1  0
  6 23  1  0
  7  8  2  0
  7 24  1  0
  8  9  1  0
  8 25  1  0
  9 10  2  0
  9 26  1  0
 10 27  1  0
 11 12  1  0
 11 20  1  0
 12 13  2  0
 12 18  1  0
 13 14  1  0
 14 15  2  0
 14 28  1  0
 15 16  1  0
 16 17  1  0
 16 18  2  0
 17 29  1  0
 17 30  1  0
 18 19  1  0
 19 20  2  0
 20 31  1  0
M  END

