rmsd201.gzmat
 OpenBabel08211713373D

 31 33  0  0  0  0  0  0  0  0999 V2000
    0.0000    0.0000    0.0000 O   0  0  0  0  0  0  0  0  0  0  0  0
    1.2036    0.0000    0.0000 C   0  0  0  0  0  0  0  0  0  0  0  0
    2.0338    0.0000    1.0603 O   0  0  0  0  0  0  0  0  0  0  0  0
    1.4434   -0.4120    2.3060 C   0  0  0  0  0  0  0  0  0  0  0  0
    1.5692   -1.8976    2.4200 C   0  0  0  0  0  0  0  0  0  0  0  0
    2.7207   -2.5208    1.9358 C   0  0  0  0  0  0  0  0  0  0  0  0
    2.8512   -3.9036    2.0335 C   0  0  0  0  0  0  0  0  0  0  0  0
    1.8394   -4.6594    2.6245 C   0  0  0  0  0  0  0  0  0  0  0  0
    0.6918   -4.0336    3.1098 C   0  0  0  0  0  0  0  0  0  0  0  0
    0.5517   -2.6512    3.0044 C   0  0  0  0  0  0  0  0  0  0  0  0
    1.9544    0.0721   -1.1951 N   0  0  0  0  0  0  0  0  0  0  0  0
    3.3256   -0.1310   -1.3931 C   0  0  0  0  0  0  0  0  0  0  0  0
    4.2961   -0.4725   -0.5193 N   0  0  0  0  0  0  0  0  0  0  0  0
    5.5255   -0.5994   -1.0769 C   0  0  0  0  0  0  0  0  0  0  0  0
    5.8486   -0.4204   -2.3760 N   0  0  0  0  0  0  0  0  0  0  0  0
    4.8665   -0.0805   -3.2711 C   0  0  0  0  0  0  0  0  0  0  0  0
    5.2193    0.0931   -4.5695 N   0  0  0  0  0  0  0  0  0  0  0  0
    3.5391    0.0721   -2.7984 C   0  0  0  0  0  0  0  0  0  0  0  0
    2.3263    0.3828   -3.4247 N   0  0  0  0  0  0  0  0  0  0  0  0
    1.3990    0.3779   -2.4869 C   0  0  0  0  0  0  0  0  0  0  0  0
    0.4063   -0.0393    2.3950 H   0  0  0  0  0  0  0  0  0  0  0  0
    2.0970    0.1201    3.0310 H   0  0  0  0  0  0  0  0  0  0  0  0
    3.5112   -1.9214    1.4703 H   0  0  0  0  0  0  0  0  0  0  0  0
    3.7439   -4.3914    1.6465 H   0  0  0  0  0  0  0  0  0  0  0  0
    1.9424   -5.7394    2.7045 H   0  0  0  0  0  0  0  0  0  0  0  0
   -0.0983   -4.6260    3.5657 H   0  0  0  0  0  0  0  0  0  0  0  0
   -0.3525   -2.1688    3.3698 H   0  0  0  0  0  0  0  0  0  0  0  0
    6.3507   -0.8777   -0.3966 H   0  0  0  0  0  0  0  0  0  0  0  0
    6.1702   -0.0240   -4.8617 H   0  0  0  0  0  0  0  0  0  0  0  0
    4.5240    0.3370   -5.2498 H   0  0  0  0  0  0  0  0  0  0  0  0
    0.3382    0.5689   -2.6006 H   0  0  0  0  0  0  0  0  0  0  0  0
  1  2  2  0  0  0  0
  2  3  1  0  0  0  0
  3  4  1  0  0  0  0
  4 21  1  0  0  0  0
  4  5  1  0  0  0  0
  4 22  1  0  0  0  0
  5 10  2  0  0  0  0
  6  7  2  0  0  0  0
  6  5  1  0  0  0  0
  7  8  1  0  0  0  0
  8 25  1  0  0  0  0
  8  9  2  0  0  0  0
  9 26  1  0  0  0  0
 10  9  1  0  0  0  0
 10 27  1  0  0  0  0
 11  2  1  0  0  0  0
 12 11  1  0  0  0  0
 12 13  2  0  0  0  0
 14 13  2  0  0  0  0
 14 28  1  0  0  0  0
 15 14  2  0  0  0  0
 16 18  1  0  0  0  0
 16 15  2  0  0  0  0
 17 16  1  0  0  0  0
 18 12  1  0  0  0  0
 19 18  2  0  0  0  0
 19 20  2  0  0  0  0
 20 11  1  0  0  0  0
 23  6  1  0  0  0  0
 24  7  1  0  0  0  0
 29 17  1  0  0  0  0
 30 17  1  0  0  0  0
 31 20  1  0  0  0  0
M  END
$$$$
