31
rmsd250.gzmat
O          0.00000        0.00000        0.00000
C          1.20390        0.00000        0.00000
O          2.03230        0.00000        1.06220
C          1.42520       -0.38690        2.30850
C          1.50620       -1.87440        2.43690
C          2.63700       -2.53930        1.95960
C          2.72470       -3.92410        2.07570
C          1.69130       -4.64100        2.67800
C          0.56410       -3.97410        3.15540
C          0.46660       -2.58950        3.03110
N          1.95040        0.06040       -1.19730
C          3.33200       -0.06190       -1.39170
N          4.32470       -0.28870       -0.50610
C          5.55990       -0.35270       -1.06190
N          5.86770       -0.22170       -2.37060
C          4.86270       -0.00180       -3.27790
N          5.19840        0.11970       -4.58690
C          3.52920        0.08610       -2.80630
N          2.29740        0.28570       -3.44170
C          1.37380        0.26630       -2.50070
H          0.39800        0.01490        2.38800
H          2.08830        0.13290        3.03380
H          3.44500       -1.97080        1.48780
H          3.60110       -4.44610        1.69660
H          1.76380       -5.72250        2.77320
H         -0.24340       -4.53600        3.62020
H         -0.42190       -2.07430        3.39030
H          6.40500       -0.52850       -0.37130
H          6.15320        0.04590       -4.88010
H          4.48600        0.28290       -5.27380
H          0.30180        0.37850       -2.61840
