rmsd205.gzmat
 OpenBabel08211713373D

 31 33  0  0  0  0  0  0  0  0999 V2000
    0.0000    0.0000    0.0000 O   0  0  0  0  0  0  0  0  0  0  0  0
    1.2031    0.0000    0.0000 C   0  0  0  0  0  0  0  0  0  0  0  0
    2.0343    0.0000    1.0604 O   0  0  0  0  0  0  0  0  0  0  0  0
    1.4409   -0.4060    2.3061 C   0  0  0  0  0  0  0  0  0  0  0  0
    1.4685   -1.8987    2.3906 C   0  0  0  0  0  0  0  0  0  0  0  0
    2.5436   -2.5941    1.8351 C   0  0  0  0  0  0  0  0  0  0  0  0
    2.5736   -3.9849    1.8960 C   0  0  0  0  0  0  0  0  0  0  0  0
    1.5393   -4.6776    2.5241 C   0  0  0  0  0  0  0  0  0  0  0  0
    0.4713   -3.9797    3.0866 C   0  0  0  0  0  0  0  0  0  0  0  0
    0.4307   -2.5887    3.0163 C   0  0  0  0  0  0  0  0  0  0  0  0
    1.9552    0.0701   -1.1946 N   0  0  0  0  0  0  0  0  0  0  0  0
    3.3283   -0.1289   -1.3862 C   0  0  0  0  0  0  0  0  0  0  0  0
    4.2912   -0.4859   -0.5102 N   0  0  0  0  0  0  0  0  0  0  0  0
    5.5251   -0.6020   -1.0595 C   0  0  0  0  0  0  0  0  0  0  0  0
    5.8584   -0.4003   -2.3526 N   0  0  0  0  0  0  0  0  0  0  0  0
    4.8830   -0.0494   -3.2508 C   0  0  0  0  0  0  0  0  0  0  0  0
    5.2461    0.1380   -4.5444 N   0  0  0  0  0  0  0  0  0  0  0  0
    3.5519    0.0958   -2.7865 C   0  0  0  0  0  0  0  0  0  0  0  0
    2.3431    0.4147   -3.4165 N   0  0  0  0  0  0  0  0  0  0  0  0
    1.4090    0.3940   -2.4855 C   0  0  0  0  0  0  0  0  0  0  0  0
    0.4307    0.0299    2.4177 H   0  0  0  0  0  0  0  0  0  0  0  0
    2.1392    0.0690    3.0296 H   0  0  0  0  0  0  0  0  0  0  0  0
    3.3545   -2.0443    1.3449 H   0  0  0  0  0  0  0  0  0  0  0  0
    3.4048   -4.5290    1.4514 H   0  0  0  0  0  0  0  0  0  0  0  0
    1.5637   -5.7643    2.5737 H   0  0  0  0  0  0  0  0  0  0  0  0
   -0.3348   -4.5223    3.5758 H   0  0  0  0  0  0  0  0  0  0  0  0
   -0.4121   -2.0486    3.4422 H   0  0  0  0  0  0  0  0  0  0  0  0
    6.3446   -0.8913   -0.3775 H   0  0  0  0  0  0  0  0  0  0  0  0
    6.2003    0.0255   -4.8291 H   0  0  0  0  0  0  0  0  0  0  0  0
    4.5587    0.3972   -5.2264 H   0  0  0  0  0  0  0  0  0  0  0  0
    0.3484    0.5824   -2.6048 H   0  0  0  0  0  0  0  0  0  0  0  0
  1  2  2  0  0  0  0
  2  3  1  0  0  0  0
  3  4  1  0  0  0  0
  4  5  1  0  0  0  0
  4 21  1  0  0  0  0
  4 22  1  0  0  0  0
  5 10  2  0  0  0  0
  6  7  2  0  0  0  0
  6  5  1  0  0  0  0
  7  8  1  0  0  0  0
  8 25  1  0  0  0  0
  8  9  2  0  0  0  0
  9 26  1  0  0  0  0
 10  9  1  0  0  0  0
 10 27  1  0  0  0  0
 11  2  1  0  0  0  0
 12 11  1  0  0  0  0
 12 13  2  0  0  0  0
 14 13  2  0  0  0  0
 14 28  1  0  0  0  0
 15 14  2  0  0  0  0
 16 18  1  0  0  0  0
 16 15  2  0  0  0  0
 17 16  1  0  0  0  0
 18 12  1  0  0  0  0
 19 18  2  0  0  0  0
 19 20  2  0  0  0  0
 20 11  1  0  0  0  0
 23  6  1  0  0  0  0
 24  7  1  0  0  0  0
 29 17  1  0  0  0  0
 30 17  1  0  0  0  0
 31 20  1  0  0  0  0
M  END
$$$$
