rmsd121.gzmat
 OpenBabel08211713373D

 31 33  0  0  0  0  0  0  0  0999 V2000
    0.0000    0.0000    0.0000 O   0  0  0  0  0  0  0  0  0  0  0  0
    1.2032    0.0000    0.0000 C   0  0  0  0  0  0  0  0  0  0  0  0
    2.0349    0.0000    1.0607 O   0  0  0  0  0  0  0  0  0  0  0  0
    1.4428   -0.4284    2.2994 C   0  0  0  0  0  0  0  0  0  0  0  0
    1.3763   -1.9222    2.3116 C   0  0  0  0  0  0  0  0  0  0  0  0
    2.4350   -2.6534    1.7701 C   0  0  0  0  0  0  0  0  0  0  0  0
    2.3776   -4.0444    1.7539 C   0  0  0  0  0  0  0  0  0  0  0  0
    1.2672   -4.7021    2.2818 C   0  0  0  0  0  0  0  0  0  0  0  0
    0.2146   -3.9694    2.8286 C   0  0  0  0  0  0  0  0  0  0  0  0
    0.2658   -2.5769    2.8426 C   0  0  0  0  0  0  0  0  0  0  0  0
    1.9535    0.0618   -1.1959 N   0  0  0  0  0  0  0  0  0  0  0  0
    3.3317   -0.0999   -1.3840 C   0  0  0  0  0  0  0  0  0  0  0  0
    4.3088   -0.3835   -0.4970 N   0  0  0  0  0  0  0  0  0  0  0  0
    5.5453   -0.4752   -1.0453 C   0  0  0  0  0  0  0  0  0  0  0  0
    5.8686   -0.3181   -2.3474 N   0  0  0  0  0  0  0  0  0  0  0  0
    4.8790   -0.0425   -3.2561 C   0  0  0  0  0  0  0  0  0  0  0  0
    5.2315    0.1026   -4.5583 N   0  0  0  0  0  0  0  0  0  0  0  0
    3.5446    0.0746   -2.7936 C   0  0  0  0  0  0  0  0  0  0  0  0
    2.3243    0.3261   -3.4324 N   0  0  0  0  0  0  0  0  0  0  0  0
    1.3933    0.3134   -2.4981 C   0  0  0  0  0  0  0  0  0  0  0  0
    0.4660    0.0669    2.4515 H   0  0  0  0  0  0  0  0  0  0  0  0
    2.1850   -0.0314    3.0258 H   0  0  0  0  0  0  0  0  0  0  0  0
    3.3003   -2.1298    1.3500 H   0  0  0  0  0  0  0  0  0  0  0  0
    3.2000   -4.6164    1.3276 H   0  0  0  0  0  0  0  0  0  0  0  0
    1.2214   -5.7891    2.2656 H   0  0  0  0  0  0  0  0  0  0  0  0
   -0.6521   -4.4841    3.2392 H   0  0  0  0  0  0  0  0  0  0  0  0
   -0.5632   -2.0074    3.2580 H   0  0  0  0  0  0  0  0  0  0  0  0
    6.3769   -0.7025   -0.3541 H   0  0  0  0  0  0  0  0  0  0  0  0
    6.1875    0.0102   -4.8434 H   0  0  0  0  0  0  0  0  0  0  0  0
    4.5316    0.3000   -5.2484 H   0  0  0  0  0  0  0  0  0  0  0  0
    0.3265    0.4605   -2.6208 H   0  0  0  0  0  0  0  0  0  0  0  0
  1  2  2  0  0  0  0
  2  3  1  0  0  0  0
  3  4  1  0  0  0  0
  4  5  1  0  0  0  0
  4 21  1  0  0  0  0
  4 22  1  0  0  0  0
  5 10  2  0  0  0  0
  6  5  1  0  0  0  0
  7  6  2  0  0  0  0
  7  8  1  0  0  0  0
  8  9  2  0  0  0  0
  9 10  1  0  0  0  0
  9 26  1  0  0  0  0
 10 27  1  0  0  0  0
 11  2  1  0  0  0  0
 12 11  1  0  0  0  0
 12 13  2  0  0  0  0
 14 13  2  0  0  0  0
 14 28  1  0  0  0  0
 15 14  2  0  0  0  0
 16 18  1  0  0  0  0
 16 15  2  0  0  0  0
 17 16  1  0  0  0  0
 18 12  1  0  0  0  0
 19 18  2  0  0  0  0
 19 20  2  0  0  0  0
 20 11  1  0  0  0  0
 23  6  1  0  0  0  0
 24  7  1  0  0  0  0
 25  8  1  0  0  0  0
 29 17  1  0  0  0  0
 30 17  1  0  0  0  0
 31 20  1  0  0  0  0
M  END
$$$$
