31
rmsd121.gzmat
O          0.00000        0.00000        0.00000
C          1.20320        0.00000        0.00000
O          2.03490        0.00000        1.06070
C          1.44280       -0.42840        2.29940
C          1.37630       -1.92220        2.31160
C          2.43500       -2.65340        1.77010
C          2.37760       -4.04440        1.75390
C          1.26720       -4.70210        2.28180
C          0.21460       -3.96940        2.82860
C          0.26580       -2.57690        2.84260
N          1.95350        0.06180       -1.19590
C          3.33170       -0.09990       -1.38400
N          4.30880       -0.38350       -0.49700
C          5.54530       -0.47520       -1.04530
N          5.86860       -0.31810       -2.34740
C          4.87900       -0.04250       -3.25610
N          5.23150        0.10260       -4.55830
C          3.54460        0.07460       -2.79360
N          2.32430        0.32610       -3.43240
C          1.39330        0.31340       -2.49810
H          0.46600        0.06690        2.45150
H          2.18500       -0.03140        3.02580
H          3.30030       -2.12980        1.35000
H          3.20000       -4.61640        1.32760
H          1.22140       -5.78910        2.26560
H         -0.65210       -4.48410        3.23920
H         -0.56320       -2.00740        3.25800
H          6.37690       -0.70250       -0.35410
H          6.18750        0.01020       -4.84340
H          4.53160        0.30000       -5.24840
H          0.32650        0.46050       -2.62080
