rmsd190.gzmat
 OpenBabel08211713423D

 43 45  0  0  1  0  0  0  0  0999 V2000
    0.0000    0.0000    0.0000 N   0  0  0  0  0  0  0  0  0  0  0  0
    1.3961    0.0000    0.0000 C   0  0  0  0  0  0  0  0  0  0  0  0
    2.0377    0.0000    1.0236 O   0  0  0  0  0  0  0  0  0  0  0  0
    2.0694   -0.0221   -1.2523 N   0  0  0  0  0  0  0  0  0  0  0  0
    3.0917   -0.0464   -1.2481 H   0  0  0  0  0  0  0  0  0  0  0  0
    1.4096   -0.0765   -2.4883 C   0  0  0  0  0  0  0  0  0  0  0  0
    2.0543   -0.1237   -3.5115 O   0  0  0  0  0  0  0  0  0  0  0  0
   -0.0628   -0.0691   -2.4423 C   0  0  0  0  0  0  0  0  0  0  0  0
   -0.8133   -0.1584   -3.5770 C   0  0  0  0  0  0  0  0  0  0  0  0
   -2.2316   -0.1634   -3.4777 C   0  0  0  0  0  0  0  0  0  0  0  0
   -3.0350   -0.2874   -4.6369 C   0  0  0  0  0  0  0  0  0  0  0  0
   -4.4055   -0.2995   -4.5564 C   0  0  0  0  0  0  0  0  0  0  0  0
   -5.0012   -0.1874   -3.2778 C   0  0  0  0  0  0  0  0  0  0  0  0
   -6.3393   -0.1972   -3.1178 O   0  0  0  0  0  0  0  0  0  0  0  0
   -4.2615   -0.0634   -2.1122 C   0  0  0  0  0  0  0  0  0  0  0  0
   -2.8546   -0.0453   -2.2009 C   0  0  0  0  0  0  0  0  0  0  0  0
   -2.0715    0.1099   -1.0639 N   0  0  0  0  0  0  0  0  0  0  0  0
   -0.6822    0.0129   -1.1384 C   0  0  0  0  0  0  0  0  0  0  0  0
   -2.6814    0.2774    0.2671 C   0  0  0  0  0  0  0  0  0  0  0  0
   -2.9851   -1.0815    0.9401 C   0  0  1  0  0  0  0  0  0  0  0  0
   -3.8648   -1.5791    0.4655 H   0  0  0  0  0  0  0  0  0  0  0  0
   -1.9656   -2.0168    0.7585 O   0  0  0  0  0  0  0  0  0  0  0  0
   -3.2484   -0.8727    2.4547 C   0  0  2  0  0  0  0  0  0  0  0  0
   -3.6171   -1.8138    2.9201 H   0  0  0  0  0  0  0  0  0  0  0  0
   -4.3078    0.0670    2.4601 O   0  0  0  0  0  0  0  0  0  0  0  0
   -2.0515   -0.3055    3.2473 C   0  0  1  0  0  0  0  0  0  0  0  0
   -1.6468    0.6238    2.7831 H   0  0  0  0  0  0  0  0  0  0  0  0
   -2.6375    0.0592    4.4920 O   0  0  0  0  0  0  0  0  0  0  0  0
   -0.9250   -1.3184    3.5081 C   0  0  0  0  0  0  0  0  0  0  0  0
    0.2968   -0.6273    3.5877 O   0  0  0  0  0  0  0  0  0  0  0  0
   -0.3323   -0.2322   -4.5632 H   0  0  0  0  0  0  0  0  0  0  0  0
   -2.5401   -0.3745   -5.6096 H   0  0  0  0  0  0  0  0  0  0  0  0
   -5.0251   -0.3938   -5.4422 H   0  0  0  0  0  0  0  0  0  0  0  0
   -6.8295   -0.2896   -3.9757 H   0  0  0  0  0  0  0  0  0  0  0  0
   -4.7840    0.0052   -1.1581 H   0  0  0  0  0  0  0  0  0  0  0  0
   -3.6150    0.8845    0.2021 H   0  0  0  0  0  0  0  0  0  0  0  0
   -1.9865    0.8891    0.9017 H   0  0  0  0  0  0  0  0  0  0  0  0
   -1.0736   -1.6094    0.8940 H   0  0  0  0  0  0  0  0  0  0  0  0
   -4.4185    0.4356    3.3676 H   0  0  0  0  0  0  0  0  0  0  0  0
   -1.9518    0.4217    5.0910 H   0  0  0  0  0  0  0  0  0  0  0  0
   -0.8719   -2.1288    2.7621 H   0  0  0  0  0  0  0  0  0  0  0  0
   -1.0298   -1.7784    4.5124 H   0  0  0  0  0  0  0  0  0  0  0  0
    0.6477   -0.4060    2.6903 H   0  0  0  0  0  0  0  0  0  0  0  0
  1  2  2  0  0  0  0
  2  3  2  0  0  0  0
  4  5  1  0  0  0  0
  4  2  1  0  0  0  0
  6  8  1  0  0  0  0
  6  4  1  0  0  0  0
  7  6  2  0  0  0  0
  8 18  1  0  0  0  0
  9 10  1  0  0  0  0
  9  8  2  0  0  0  0
 10 16  2  0  0  0  0
 11 12  2  0  0  0  0
 11 10  1  0  0  0  0
 12 13  1  0  0  0  0
 13 14  1  0  0  0  0
 13 15  2  0  0  0  0
 15 35  1  0  0  0  0
 16 15  1  0  0  0  0
 16 17  1  0  0  0  0
 17 19  1  0  0  0  0
 18 17  1  0  0  0  0
 18  1  2  0  0  0  0
 19 37  1  0  0  0  0
 19 20  1  0  0  0  0
 20 21  1  6  0  0  0
 20 23  1  0  0  0  0
 22 38  1  0  0  0  0
 22 20  1  0  0  0  0
 23 25  1  0  0  0  0
 23 24  1  1  0  0  0
 23 26  1  0  0  0  0
 25 39  1  0  0  0  0
 26 27  1  6  0  0  0
 26 29  1  0  0  0  0
 26 28  1  0  0  0  0
 28 40  1  0  0  0  0
 29 30  1  0  0  0  0
 29 42  1  0  0  0  0
 31  9  1  0  0  0  0
 32 11  1  0  0  0  0
 33 12  1  0  0  0  0
 34 14  1  0  0  0  0
 36 19  1  0  0  0  0
 41 29  1  0  0  0  0
 43 30  1  0  0  0  0
M  END
$$$$
