43

N         -0.02680       -0.11480        0.01970
C          1.35410       -0.15100        0.01590
O          2.02570       -0.17140        1.02480
N          1.99760       -0.16670       -1.24430
H          3.01380       -0.19120       -1.21950
C          1.40380       -0.15560       -2.48870
O          2.03620       -0.16830       -3.52860
C         -0.07600       -0.12540       -2.41720
C         -0.84010       -0.12040       -3.54850
C         -2.25740       -0.10790       -3.46870
C         -3.07120       -0.13280       -4.62320
C         -4.44770       -0.14730       -4.53300
C         -5.05140       -0.15230       -3.25560
O         -6.39000       -0.19310       -3.10210
C         -4.28030       -0.12460       -2.09290
C         -2.87880       -0.08810       -2.17960
N         -2.07340       -0.04060       -1.04610
C         -0.68480       -0.09980       -1.10990
C         -2.64720        0.08960        0.29560
C         -2.73870       -1.24540        1.04740
H         -1.74420       -1.71840        1.02160
O         -3.15270       -0.99570        2.38420
C         -3.78280       -2.18870        0.46230
H         -3.65750       -2.26040       -0.62720
O         -5.08580       -1.65470        0.69430
C         -3.70200       -3.61960        1.01880
H         -3.55900       -3.57310        2.11660
O         -4.90020       -4.29950        0.68770
C         -2.56960       -4.42170        0.37980
O         -2.79310       -4.57220       -1.00240
H         -0.33530       -0.13830       -4.51790
H         -2.58420       -0.14400       -5.60070
H         -5.06850       -0.16790       -5.43250
H         -6.82130       -0.23100       -3.96620
H         -4.81040       -0.19070       -1.14520
H         -3.63570        0.55380        0.22920
H         -1.97910        0.74950        0.86190
H         -2.43540       -0.56070        2.86270
H         -5.07240       -1.31760        1.60640
H         -5.59240       -3.61740        0.68550
H         -2.50070       -5.40030        0.89470
H         -1.60270       -3.91130        0.51540
H         -3.72270       -4.84420       -1.07220
