43

N         -0.30390       -0.08240        0.14440
C          1.06210       -0.09180        0.25360
O          1.64590       -0.16560        1.32620
N          1.81200       -0.02090       -0.93100
H          2.82350       -0.02190       -0.82380
C          1.31930       -0.00850       -2.22590
O          2.04070        0.01640       -3.20350
C         -0.16100       -0.03080       -2.28260
C         -0.83300       -0.07770       -3.47480
C         -2.24820       -0.13450       -3.49950
C         -2.97590       -0.24570       -4.70800
C         -4.35180       -0.32150       -4.71270
C         -5.05000       -0.29430       -3.48170
O         -6.39150       -0.38450       -3.42300
C         -4.36620       -0.17690       -2.27260
C         -2.96530       -0.08850       -2.25970
N         -2.25720        0.04830       -1.07680
C         -0.88000       -0.02210       -1.03970
C         -2.94300        0.24580        0.21050
C         -3.14640       -1.07230        1.01350
H         -4.14960       -1.46430        0.78000
O         -2.24550       -2.08380        0.64320
C         -3.13720       -0.77090        2.52440
H         -3.41700       -1.70490        3.05350
O         -4.11270        0.23340        2.72640
C         -1.78640       -0.29020        3.07840
H         -1.33800        0.43630        2.37920
O         -2.07860        0.35890        4.31160
C         -0.73120       -1.36250        3.34200
O          0.43090       -0.74310        3.84710
H         -0.25480       -0.09220       -4.40210
H         -2.42060       -0.27510       -5.64790
H         -4.90450       -0.41080       -5.65150
H         -6.76060       -0.47700       -4.31170
H         -4.95410       -0.18540       -1.35860
H         -3.90020        0.73990        0.02940
H         -2.32480        0.94490        0.77950
H         -1.35580       -1.69630        0.70890
H         -3.86640        0.66480        3.56140
H         -1.21500        0.52660        4.72160
H         -0.51810       -1.96000        2.44180
H         -1.11570       -2.05320        4.11210
H          0.93130       -0.42470        3.06910
