
     RDKit          3D

 43 45  0  0  0  0  0  0  0  0999 V2000
   -0.0706   -0.0229    0.0284 N   0  0  0  0  0  0  0  0  0  0  0  0
    1.2969   -0.0633    0.0760 C   0  0  0  0  0  0  0  0  0  0  0  0
    1.9297   -0.1246    1.1222 O   0  0  0  0  0  0  0  0  0  0  0  0
    1.9946   -0.0518   -1.1432 N   0  0  0  0  0  0  0  0  0  0  0  0
    3.0096   -0.0677   -1.0826 H   0  0  0  0  0  0  0  0  0  0  0  0
    1.4405   -0.0880   -2.4109 C   0  0  0  0  0  0  0  0  0  0  0  0
    2.1146   -0.1000   -3.4231 O   0  0  0  0  0  0  0  0  0  0  0  0
   -0.0400   -0.1220   -2.3951 C   0  0  0  0  0  0  0  0  0  0  0  0
   -0.7572   -0.1694   -3.5587 C   0  0  0  0  0  0  0  0  0  0  0  0
   -2.1719   -0.2035   -3.5309 C   0  0  0  0  0  0  0  0  0  0  0  0
   -2.9385   -0.2594   -4.7187 C   0  0  0  0  0  0  0  0  0  0  0  0
   -4.3152   -0.2994   -4.6815 C   0  0  0  0  0  0  0  0  0  0  0  0
   -4.9686   -0.3035   -3.4266 C   0  0  0  0  0  0  0  0  0  0  0  0
   -6.3107   -0.3688   -3.3274 O   0  0  0  0  0  0  0  0  0  0  0  0
   -4.2454   -0.2516   -2.2358 C   0  0  0  0  0  0  0  0  0  0  0  0
   -2.8444   -0.1892   -2.2652 C   0  0  0  0  0  0  0  0  0  0  0  0
   -2.0917   -0.0977   -1.0964 N   0  0  0  0  0  0  0  0  0  0  0  0
   -0.7044   -0.0830   -1.1180 C   0  0  0  0  0  0  0  0  0  0  0  0
   -2.7474    0.1125    0.2128 C   0  0  0  0  0  0  0  0  0  0  0  0
   -3.1910   -1.1327    0.9853 C   0  0  1  0  0  0  0  0  0  0  0  0
   -3.4902   -0.7587    1.9874 H   0  0  0  0  0  0  0  0  0  0  0  0
   -4.2894   -1.7281    0.3343 O   0  0  0  0  0  0  0  0  0  0  0  0
   -2.1088   -2.2073    1.2100 C   0  0  2  0  0  0  0  0  0  0  0  0
   -1.6260   -2.4263    0.2439 H   0  0  0  0  0  0  0  0  0  0  0  0
   -2.7542   -3.4016    1.6298 O   0  0  0  0  0  0  0  0  0  0  0  0
   -1.0589   -1.7982    2.2400 C   0  0  1  0  0  0  0  0  0  0  0  0
   -0.8031   -0.7397    2.0935 H   0  0  0  0  0  0  0  0  0  0  0  0
   -1.6480   -1.9942    3.5245 O   0  0  0  0  0  0  0  0  0  0  0  0
    0.2370   -2.5949    2.1394 C   0  0  0  0  0  0  0  0  0  0  0  0
    1.1731   -2.0980    3.0662 O   0  0  0  0  0  0  0  0  0  0  0  0
   -0.2143   -0.1827   -4.5073 H   0  0  0  0  0  0  0  0  0  0  0  0
   -2.4122   -0.2688   -5.6755 H   0  0  0  0  0  0  0  0  0  0  0  0
   -4.9002   -0.3411   -5.6040 H   0  0  0  0  0  0  0  0  0  0  0  0
   -6.7069   -0.4228   -4.2074 H   0  0  0  0  0  0  0  0  0  0  0  0
   -4.7916   -0.3483   -1.3028 H   0  0  0  0  0  0  0  0  0  0  0  0
   -3.6258    0.7480    0.0435 H   0  0  0  0  0  0  0  0  0  0  0  0
   -2.0313    0.6710    0.8233 H   0  0  0  0  0  0  0  0  0  0  0  0
   -4.3052   -2.6420    0.6723 H   0  0  0  0  0  0  0  0  0  0  0  0
   -2.7389   -3.3520    2.6043 H   0  0  0  0  0  0  0  0  0  0  0  0
   -0.9095   -1.9728    4.1536 H   0  0  0  0  0  0  0  0  0  0  0  0
    0.6186   -2.5648    1.1031 H   0  0  0  0  0  0  0  0  0  0  0  0
    0.0296   -3.6500    2.3859 H   0  0  0  0  0  0  0  0  0  0  0  0
    1.5356   -1.2873    2.6591 H   0  0  0  0  0  0  0  0  0  0  0  0
  1  2  1  0
  1 18  2  0
  2  3  2  0
  2  4  1  0
  4  5  1  0
  4  6  1  0
  6  7  2  0
  6  8  1  0
  8  9  2  0
  8 18  1  0
  9 10  1  0
  9 31  1  0
 10 11  1  0
 10 16  2  0
 11 12  2  0
 11 32  1  0
 12 13  1  0
 12 33  1  0
 13 14  1  0
 13 15  2  0
 14 34  1  0
 15 16  1  0
 15 35  1  0
 16 17  1  0
 17 18  1  0
 17 19  1  0
 19 20  1  0
 19 36  1  0
 19 37  1  0
 20 21  1  1
 20 22  1  0
 20 23  1  0
 22 38  1  0
 23 24  1  6
 23 25  1  0
 23 26  1  0
 25 39  1  0
 26 27  1  6
 26 28  1  0
 26 29  1  0
 28 40  1  0
 29 30  1  0
 29 41  1  0
 29 42  1  0
 30 43  1  0
M  END

