rmsd184.gzmat
 OpenBabel08211713423D

 43 45  0  0  1  0  0  0  0  0999 V2000
    0.0000    0.0000    0.0000 N   0  0  0  0  0  0  0  0  0  0  0  0
    1.3962    0.0000    0.0000 C   0  0  0  0  0  0  0  0  0  0  0  0
    2.0381    0.0000    1.0236 O   0  0  0  0  0  0  0  0  0  0  0  0
    2.0698   -0.0236   -1.2524 N   0  0  0  0  0  0  0  0  0  0  0  0
    3.0920   -0.0519   -1.2481 H   0  0  0  0  0  0  0  0  0  0  0  0
    1.4103   -0.0732   -2.4887 C   0  0  0  0  0  0  0  0  0  0  0  0
    2.0553   -0.1211   -3.5118 O   0  0  0  0  0  0  0  0  0  0  0  0
   -0.0619   -0.0621   -2.4429 C   0  0  0  0  0  0  0  0  0  0  0  0
   -0.8123   -0.1463   -3.5781 C   0  0  0  0  0  0  0  0  0  0  0  0
   -2.2306   -0.1569   -3.4797 C   0  0  0  0  0  0  0  0  0  0  0  0
   -3.0331   -0.2851   -4.6389 C   0  0  0  0  0  0  0  0  0  0  0  0
   -4.4037   -0.3030   -4.5583 C   0  0  0  0  0  0  0  0  0  0  0  0
   -4.9998   -0.1919   -3.2798 C   0  0  0  0  0  0  0  0  0  0  0  0
   -6.3375   -0.2047   -3.1161 O   0  0  0  0  0  0  0  0  0  0  0  0
   -4.2608   -0.0664   -2.1140 C   0  0  0  0  0  0  0  0  0  0  0  0
   -2.8540   -0.0447   -2.2030 C   0  0  0  0  0  0  0  0  0  0  0  0
   -2.0711    0.1081   -1.0660 N   0  0  0  0  0  0  0  0  0  0  0  0
   -0.6817    0.0147   -1.1385 C   0  0  0  0  0  0  0  0  0  0  0  0
   -2.6835    0.2616    0.2647 C   0  0  0  0  0  0  0  0  0  0  0  0
   -2.9814   -1.1052    0.9240 C   0  0  1  0  0  0  0  0  0  0  0  0
   -3.8532   -1.6062    0.4383 H   0  0  0  0  0  0  0  0  0  0  0  0
   -1.9535   -2.0311    0.7433 O   0  0  0  0  0  0  0  0  0  0  0  0
   -3.2577   -0.9071    2.4375 C   0  0  2  0  0  0  0  0  0  0  0  0
   -3.6073   -1.8568    2.8997 H   0  0  0  0  0  0  0  0  0  0  0  0
   -4.3376    0.0087    2.4371 O   0  0  0  0  0  0  0  0  0  0  0  0
   -2.0767   -0.3141    3.2357 C   0  0  1  0  0  0  0  0  0  0  0  0
   -1.6824    0.6178    2.7676 H   0  0  0  0  0  0  0  0  0  0  0  0
   -2.6769    0.0504    4.4729 O   0  0  0  0  0  0  0  0  0  0  0  0
   -0.9368   -1.3076    3.5121 C   0  0  0  0  0  0  0  0  0  0  0  0
    0.2746   -0.5987    3.5860 O   0  0  0  0  0  0  0  0  0  0  0  0
   -0.3306   -0.2122   -4.5644 H   0  0  0  0  0  0  0  0  0  0  0  0
   -2.5368   -0.3721   -5.6110 H   0  0  0  0  0  0  0  0  0  0  0  0
   -5.0229   -0.4013   -5.4437 H   0  0  0  0  0  0  0  0  0  0  0  0
   -6.8315   -0.2996   -3.9707 H   0  0  0  0  0  0  0  0  0  0  0  0
   -4.7852   -0.0003   -1.1604 H   0  0  0  0  0  0  0  0  0  0  0  0
   -3.6204    0.8641    0.2038 H   0  0  0  0  0  0  0  0  0  0  0  0
   -1.9927    0.8716    0.9052 H   0  0  0  0  0  0  0  0  0  0  0  0
   -1.0660   -1.6186    0.8887 H   0  0  0  0  0  0  0  0  0  0  0  0
   -4.4663    0.3694    3.3453 H   0  0  0  0  0  0  0  0  0  0  0  0
   -2.0058    0.4489    5.0652 H   0  0  0  0  0  0  0  0  0  0  0  0
   -0.8716   -2.1265    2.7768 H   0  0  0  0  0  0  0  0  0  0  0  0
   -1.0372   -1.7559    4.5219 H   0  0  0  0  0  0  0  0  0  0  0  0
    0.6298   -0.3899    2.6877 H   0  0  0  0  0  0  0  0  0  0  0  0
  1  2  2  0  0  0  0
  2  3  2  0  0  0  0
  4  5  1  0  0  0  0
  4  2  1  0  0  0  0
  6  8  1  0  0  0  0
  6  4  1  0  0  0  0
  7  6  2  0  0  0  0
  8 18  1  0  0  0  0
  9 10  1  0  0  0  0
  9  8  2  0  0  0  0
 10 16  2  0  0  0  0
 11 12  2  0  0  0  0
 11 10  1  0  0  0  0
 12 13  1  0  0  0  0
 13 14  1  0  0  0  0
 13 15  2  0  0  0  0
 15 35  1  0  0  0  0
 16 15  1  0  0  0  0
 16 17  1  0  0  0  0
 17 19  1  0  0  0  0
 18 17  1  0  0  0  0
 18  1  2  0  0  0  0
 19 37  1  0  0  0  0
 19 20  1  0  0  0  0
 20 21  1  6  0  0  0
 20 23  1  0  0  0  0
 22 38  1  0  0  0  0
 22 20  1  0  0  0  0
 23 24  1  1  0  0  0
 23 26  1  0  0  0  0
 25 23  1  0  0  0  0
 25 39  1  0  0  0  0
 26 27  1  6  0  0  0
 26 29  1  0  0  0  0
 26 28  1  0  0  0  0
 28 40  1  0  0  0  0
 29 30  1  0  0  0  0
 29 42  1  0  0  0  0
 31  9  1  0  0  0  0
 32 11  1  0  0  0  0
 33 12  1  0  0  0  0
 34 14  1  0  0  0  0
 36 19  1  0  0  0  0
 41 29  1  0  0  0  0
 43 30  1  0  0  0  0
M  END
$$$$
