43

N         -0.07060       -0.02290        0.02840
C          1.29690       -0.06330        0.07600
O          1.92970       -0.12460        1.12220
N          1.99460       -0.05180       -1.14320
H          3.00960       -0.06770       -1.08260
C          1.44050       -0.08800       -2.41090
O          2.11460       -0.10000       -3.42310
C         -0.04000       -0.12200       -2.39510
C         -0.75720       -0.16940       -3.55870
C         -2.17190       -0.20350       -3.53090
C         -2.93850       -0.25940       -4.71870
C         -4.31520       -0.29940       -4.68150
C         -4.96860       -0.30350       -3.42660
O         -6.31070       -0.36880       -3.32740
C         -4.24540       -0.25160       -2.23580
C         -2.84440       -0.18920       -2.26520
N         -2.09170       -0.09770       -1.09640
C         -0.70440       -0.08300       -1.11800
C         -2.74740        0.11250        0.21280
C         -3.19100       -1.13270        0.98530
H         -3.49020       -0.75870        1.98740
O         -4.28940       -1.72810        0.33430
C         -2.10880       -2.20730        1.21000
H         -1.62600       -2.42630        0.24390
O         -2.75420       -3.40160        1.62980
C         -1.05890       -1.79820        2.24000
H         -0.80310       -0.73970        2.09350
O         -1.64800       -1.99420        3.52450
C          0.23700       -2.59490        2.13940
O          1.17310       -2.09800        3.06620
H         -0.21430       -0.18270       -4.50730
H         -2.41220       -0.26880       -5.67550
H         -4.90020       -0.34110       -5.60400
H         -6.70690       -0.42280       -4.20740
H         -4.79160       -0.34830       -1.30280
H         -3.62580        0.74800        0.04350
H         -2.03130        0.67100        0.82330
H         -4.30520       -2.64200        0.67230
H         -2.73890       -3.35200        2.60430
H         -0.90950       -1.97280        4.15360
H          0.61860       -2.56480        1.10310
H          0.02960       -3.65000        2.38590
H          1.53560       -1.28730        2.65910
