43
rmsd181.gzmat
N          0.00000        0.00000        0.00000
C          1.39600        0.00000        0.00000
O          2.05410        0.00000        1.01150
N          2.06830       -0.02660       -1.25830
H          3.08900       -0.01460       -1.25520
C          1.40770       -0.06320       -2.49200
O          2.04890       -0.07770       -3.51940
C         -0.06310       -0.08910       -2.44150
C         -0.81110       -0.16140       -3.57870
C         -2.22770       -0.18450       -3.48060
C         -3.02170       -0.26130       -4.65020
C         -4.39210       -0.27230       -4.58220
C         -4.99530       -0.21390       -3.30300
O         -6.33570       -0.21290       -3.15330
C         -4.26360       -0.15130       -2.12820
C         -2.85680       -0.13010       -2.20130
N         -2.07420       -0.02910       -1.05390
C         -0.68190       -0.03650       -1.13570
C         -2.69320        0.04220        0.28400
C         -3.02260       -1.34470        0.87770
H         -3.55160       -1.21410        1.85560
O         -3.95800       -1.92650       -0.00360
C         -1.79410       -2.26350        1.04890
H         -1.19100       -2.34110        0.11870
O         -2.26830       -3.58790        1.22130
C         -0.94390       -1.84800        2.26860
H         -0.73500       -0.75040        2.27140
O         -1.74920       -2.07680        3.40920
C          0.35260       -2.66410        2.34620
O          0.04150       -4.02150        2.57910
H         -0.32870       -0.20250       -4.56580
H         -2.51760       -0.31120       -5.62040
H         -5.00430       -0.32920       -5.47600
H         -6.81920       -0.28510       -4.01610
H         -4.79470       -0.16940       -1.17220
H         -3.62560        0.65120        0.22500
H         -2.00870        0.59470        0.98270
H         -3.82100       -2.90080       -0.06040
H         -2.73240       -3.66650        2.08960
H         -1.42860       -2.86850        3.90010
H          0.97070       -2.38240        3.22040
H          0.96450       -2.56680        1.43240
H         -0.60400       -4.33540        1.90410
