43
rmsd191.gzmat
N          0.00000        0.00000        0.00000
C          1.39870        0.00000        0.00000
O          2.05410        0.00000        1.01150
N          2.06390       -0.01320       -1.26160
H          3.08610       -0.04040       -1.26190
C          1.40160       -0.02880       -2.49520
O          2.04020       -0.05450       -3.52360
C         -0.07080       -0.01220       -2.44410
C         -0.82610       -0.06280       -3.57690
C         -2.24460       -0.06590       -3.47160
C         -3.05020       -0.15260       -4.63190
C         -4.42080       -0.16500       -4.54770
C         -5.01190       -0.09090       -3.26440
O         -6.34900       -0.10410       -3.09900
C         -4.26880       -0.00340       -2.09670
C         -2.86300        0.01410       -2.18950
N         -2.07340        0.12040       -1.05040
C         -0.68210        0.03530       -1.13510
C         -2.67630        0.26490        0.28730
C         -3.03040       -1.10040        0.90560
H         -3.74830       -1.66610        0.26220
O         -1.93260       -1.97000        1.00090
C         -3.63100       -0.90340        2.31790
H         -3.98470       -1.88140        2.72120
O         -4.76850       -0.09260        2.07930
C         -2.73030       -0.18960        3.35060
H         -2.52930        0.86770        3.06330
O         -3.51990       -0.04150        4.51600
C         -1.43660       -0.94780        3.67910
O         -1.66540       -2.33700        3.65130
H         -0.35010       -0.10770       -4.56710
H         -2.55840       -0.21160       -5.60850
H         -5.04140       -0.23120       -5.43520
H         -6.84300       -0.18130       -3.95600
H         -4.79150        0.03870       -1.13960
H         -3.58940        0.90760        0.23510
H         -1.96110        0.82260        0.94890
H         -1.06940       -1.47840        0.99860
H         -5.10500        0.26200        2.93530
H         -3.55570       -0.88790        5.01450
H         -1.11420       -0.75040        4.72080
H         -0.60700       -0.67830        2.99720
H         -1.74430       -2.62340        2.70680
