rmsd226.gzmat
 OpenBabel08211713423D

 43 45  0  0  1  0  0  0  0  0999 V2000
    0.0000    0.0000    0.0000 N   0  0  0  0  0  0  0  0  0  0  0  0
    1.3984    0.0000    0.0000 C   0  0  0  0  0  0  0  0  0  0  0  0
    2.0587    0.0000    1.0082 O   0  0  0  0  0  0  0  0  0  0  0  0
    2.0658   -0.0126   -1.2626 N   0  0  0  0  0  0  0  0  0  0  0  0
    3.0877   -0.0351   -1.2607 H   0  0  0  0  0  0  0  0  0  0  0  0
    1.4052   -0.0313   -2.4956 C   0  0  0  0  0  0  0  0  0  0  0  0
    2.0440   -0.0588   -3.5244 O   0  0  0  0  0  0  0  0  0  0  0  0
   -0.0672   -0.0165   -2.4450 C   0  0  0  0  0  0  0  0  0  0  0  0
   -0.8175   -0.0584   -3.5808 C   0  0  0  0  0  0  0  0  0  0  0  0
   -2.2366   -0.0660   -3.4820 C   0  0  0  0  0  0  0  0  0  0  0  0
   -3.0386   -0.1389   -4.6453 C   0  0  0  0  0  0  0  0  0  0  0  0
   -4.4095   -0.1601   -4.5661 C   0  0  0  0  0  0  0  0  0  0  0  0
   -5.0037   -0.1077   -3.2836 C   0  0  0  0  0  0  0  0  0  0  0  0
   -6.3425   -0.1274   -3.1221 O   0  0  0  0  0  0  0  0  0  0  0  0
   -4.2643   -0.0340   -2.1142 C   0  0  0  0  0  0  0  0  0  0  0  0
   -2.8579   -0.0077   -2.2006 C   0  0  0  0  0  0  0  0  0  0  0  0
   -2.0747    0.0871   -1.0565 N   0  0  0  0  0  0  0  0  0  0  0  0
   -0.6811    0.0208   -1.1347 C   0  0  0  0  0  0  0  0  0  0  0  0
   -2.6959    0.1653    0.2788 C   0  0  0  0  0  0  0  0  0  0  0  0
   -3.0259   -1.2381    0.8206 C   0  0  1  0  0  0  0  0  0  0  0  0
   -3.6525   -1.8262    0.1118 H   0  0  0  0  0  0  0  0  0  0  0  0
   -1.8753   -2.0317    0.9648 O   0  0  0  0  0  0  0  0  0  0  0  0
   -3.6921   -1.1280    2.2189 C   0  0  2  0  0  0  0  0  0  0  0  0
   -3.2481   -0.3032    2.8186 H   0  0  0  0  0  0  0  0  0  0  0  0
   -3.4880   -2.3105    2.9613 O   0  0  0  0  0  0  0  0  0  0  0  0
   -5.2277   -0.9869    2.1198 C   0  0  1  0  0  0  0  0  0  0  0  0
   -5.6417   -0.4884    3.0235 H   0  0  0  0  0  0  0  0  0  0  0  0
   -5.4719   -0.1134    1.0327 O   0  0  0  0  0  0  0  0  0  0  0  0
   -5.9028   -2.3440    1.8689 C   0  0  0  0  0  0  0  0  0  0  0  0
   -7.2682   -2.1105    1.5837 O   0  0  0  0  0  0  0  0  0  0  0  0
   -0.3368   -0.0925   -4.5690 H   0  0  0  0  0  0  0  0  0  0  0  0
   -2.5428   -0.1803   -5.6202 H   0  0  0  0  0  0  0  0  0  0  0  0
   -5.0284   -0.2155   -5.4552 H   0  0  0  0  0  0  0  0  0  0  0  0
   -6.8323   -0.2058   -3.9812 H   0  0  0  0  0  0  0  0  0  0  0  0
   -4.7879   -0.0039   -1.1559 H   0  0  0  0  0  0  0  0  0  0  0  0
   -3.6146    0.8014    0.2375 H   0  0  0  0  0  0  0  0  0  0  0  0
   -1.9970    0.6983    0.9778 H   0  0  0  0  0  0  0  0  0  0  0  0
   -1.0626   -1.4836    1.1175 H   0  0  0  0  0  0  0  0  0  0  0  0
   -2.6735   -2.7710    2.6297 H   0  0  0  0  0  0  0  0  0  0  0  0
   -6.3543   -0.3106    0.6387 H   0  0  0  0  0  0  0  0  0  0  0  0
   -5.7821   -3.0345    2.7214 H   0  0  0  0  0  0  0  0  0  0  0  0
   -5.5336   -2.8358    0.9488 H   0  0  0  0  0  0  0  0  0  0  0  0
   -7.7728   -1.9264    2.3995 H   0  0  0  0  0  0  0  0  0  0  0  0
  1  2  2  0  0  0  0
  2  3  2  0  0  0  0
  4  5  1  0  0  0  0
  4  2  1  0  0  0  0
  6  8  1  0  0  0  0
  6  4  1  0  0  0  0
  7  6  2  0  0  0  0
  8 18  1  0  0  0  0
  9 10  1  0  0  0  0
  9  8  2  0  0  0  0
 10 16  2  0  0  0  0
 11 12  2  0  0  0  0
 11 10  1  0  0  0  0
 12 13  1  0  0  0  0
 13 14  1  0  0  0  0
 13 15  2  0  0  0  0
 15 35  1  0  0  0  0
 16 15  1  0  0  0  0
 16 17  1  0  0  0  0
 17 19  1  0  0  0  0
 18 17  1  0  0  0  0
 18  1  2  0  0  0  0
 19 20  1  0  0  0  0
 19 37  1  0  0  0  0
 20 21  1  6  0  0  0
 20 22  1  0  0  0  0
 20 23  1  0  0  0  0
 22 38  1  0  0  0  0
 23 24  1  1  0  0  0
 23 25  1  0  0  0  0
 26 23  1  0  0  0  0
 26 27  1  1  0  0  0
 28 26  1  0  0  0  0
 29 26  1  0  0  0  0
 29 41  1  0  0  0  0
 30 29  1  0  0  0  0
 30 43  1  0  0  0  0
 31  9  1  0  0  0  0
 32 11  1  0  0  0  0
 33 12  1  0  0  0  0
 34 14  1  0  0  0  0
 36 19  1  0  0  0  0
 39 25  1  0  0  0  0
 40 28  1  0  0  0  0
 42 29  1  0  0  0  0
M  END
$$$$
