43
rmsd190.gzmat
N          0.00000        0.00000        0.00000
C          1.39610        0.00000        0.00000
O          2.03770        0.00000        1.02360
N          2.06940       -0.02210       -1.25230
H          3.09170       -0.04640       -1.24810
C          1.40960       -0.07650       -2.48830
O          2.05430       -0.12370       -3.51150
C         -0.06280       -0.06910       -2.44230
C         -0.81330       -0.15840       -3.57700
C         -2.23160       -0.16340       -3.47770
C         -3.03500       -0.28740       -4.63690
C         -4.40550       -0.29950       -4.55640
C         -5.00120       -0.18740       -3.27780
O         -6.33930       -0.19720       -3.11780
C         -4.26150       -0.06340       -2.11220
C         -2.85460       -0.04530       -2.20090
N         -2.07150        0.10990       -1.06390
C         -0.68220        0.01290       -1.13840
C         -2.68140        0.27740        0.26710
C         -2.98510       -1.08150        0.94010
H         -3.86480       -1.57910        0.46550
O         -1.96560       -2.01680        0.75850
C         -3.24840       -0.87270        2.45470
H         -3.61710       -1.81380        2.92010
O         -4.30780        0.06700        2.46010
C         -2.05150       -0.30550        3.24730
H         -1.64680        0.62380        2.78310
O         -2.63750        0.05920        4.49200
C         -0.92500       -1.31840        3.50810
O          0.29680       -0.62730        3.58770
H         -0.33230       -0.23220       -4.56320
H         -2.54010       -0.37450       -5.60960
H         -5.02510       -0.39380       -5.44220
H         -6.82950       -0.28960       -3.97570
H         -4.78400        0.00520       -1.15810
H         -3.61500        0.88450        0.20210
H         -1.98650        0.88910        0.90170
H         -1.07360       -1.60940        0.89400
H         -4.41850        0.43560        3.36760
H         -1.95180        0.42170        5.09100
H         -0.87190       -2.12880        2.76210
H         -1.02980       -1.77840        4.51240
H          0.64770       -0.40600        2.69030
