rmsd180.gzmat
 OpenBabel08211713423D

 43 45  0  0  1  0  0  0  0  0999 V2000
    0.0000    0.0000    0.0000 N   0  0  0  0  0  0  0  0  0  0  0  0
    1.3937    0.0000    0.0000 C   0  0  0  0  0  0  0  0  0  0  0  0
    2.0510    0.0000    1.0157 O   0  0  0  0  0  0  0  0  0  0  0  0
    2.0700   -0.0168   -1.2527 N   0  0  0  0  0  0  0  0  0  0  0  0
    3.0914   -0.0040   -1.2490 H   0  0  0  0  0  0  0  0  0  0  0  0
    1.4095   -0.0871   -2.4867 C   0  0  0  0  0  0  0  0  0  0  0  0
    2.0535   -0.1185   -3.5116 O   0  0  0  0  0  0  0  0  0  0  0  0
   -0.0608   -0.1210   -2.4367 C   0  0  0  0  0  0  0  0  0  0  0  0
   -0.8040   -0.2296   -3.5748 C   0  0  0  0  0  0  0  0  0  0  0  0
   -2.2202   -0.2399   -3.4834 C   0  0  0  0  0  0  0  0  0  0  0  0
   -3.0078   -0.3599   -4.6546 C   0  0  0  0  0  0  0  0  0  0  0  0
   -4.3782   -0.3422   -4.5962 C   0  0  0  0  0  0  0  0  0  0  0  0
   -4.9876   -0.2012   -3.3262 C   0  0  0  0  0  0  0  0  0  0  0  0
   -6.3288   -0.1584   -3.1881 O   0  0  0  0  0  0  0  0  0  0  0  0
   -4.2630   -0.0933   -2.1506 C   0  0  0  0  0  0  0  0  0  0  0  0
   -2.8554   -0.1199   -2.2116 C   0  0  0  0  0  0  0  0  0  0  0  0
   -2.0774    0.0001   -1.0619 N   0  0  0  0  0  0  0  0  0  0  0  0
   -0.6862   -0.0379   -1.1351 C   0  0  0  0  0  0  0  0  0  0  0  0
   -2.7111    0.1148    0.2668 C   0  0  0  0  0  0  0  0  0  0  0  0
   -3.1209   -1.2469    0.8679 C   0  0  1  0  0  0  0  0  0  0  0  0
   -3.6728   -1.0826    1.8265 H   0  0  0  0  0  0  0  0  0  0  0  0
   -4.0398   -1.8064   -0.0453 O   0  0  0  0  0  0  0  0  0  0  0  0
   -1.9398   -2.2211    1.0862 C   0  0  2  0  0  0  0  0  0  0  0  0
   -1.3538   -2.3732    0.1531 H   0  0  0  0  0  0  0  0  0  0  0  0
   -2.4895   -3.4970    1.3319 O   0  0  0  0  0  0  0  0  0  0  0  0
   -1.0577   -1.7689    2.2597 C   0  0  1  0  0  0  0  0  0  0  0  0
   -0.7560   -0.6961    2.1626 H   0  0  0  0  0  0  0  0  0  0  0  0
   -1.8974   -1.8707    3.4013 O   0  0  0  0  0  0  0  0  0  0  0  0
    0.1792   -2.6609    2.4331 C   0  0  0  0  0  0  0  0  0  0  0  0
    1.1097   -1.9787    3.2425 O   0  0  0  0  0  0  0  0  0  0  0  0
   -0.3167   -0.3063   -4.5575 H   0  0  0  0  0  0  0  0  0  0  0  0
   -2.4977   -0.4667   -5.6170 H   0  0  0  0  0  0  0  0  0  0  0  0
   -4.9873   -0.4357   -5.4891 H   0  0  0  0  0  0  0  0  0  0  0  0
   -6.8054   -0.2719   -4.0504 H   0  0  0  0  0  0  0  0  0  0  0  0
   -4.8048   -0.0411   -1.2018 H   0  0  0  0  0  0  0  0  0  0  0  0
   -3.6104    0.7700    0.1867 H   0  0  0  0  0  0  0  0  0  0  0  0
   -2.0086    0.6377    0.9698 H   0  0  0  0  0  0  0  0  0  0  0  0
   -4.0174   -2.7914    0.0159 H   0  0  0  0  0  0  0  0  0  0  0  0
   -2.7884   -3.5559    2.2710 H   0  0  0  0  0  0  0  0  0  0  0  0
   -1.3460   -1.8231    4.2133 H   0  0  0  0  0  0  0  0  0  0  0  0
    0.6398   -2.9338    1.4684 H   0  0  0  0  0  0  0  0  0  0  0  0
   -0.0449   -3.5827    3.0011 H   0  0  0  0  0  0  0  0  0  0  0  0
    1.5064   -1.2284    2.7343 H   0  0  0  0  0  0  0  0  0  0  0  0
  1  2  2  0  0  0  0
  2  3  2  0  0  0  0
  4  5  1  0  0  0  0
  4  2  1  0  0  0  0
  6  8  1  0  0  0  0
  6  4  1  0  0  0  0
  7  6  2  0  0  0  0
  8 18  1  0  0  0  0
  9 10  1  0  0  0  0
  9  8  2  0  0  0  0
 10 16  2  0  0  0  0
 11 12  2  0  0  0  0
 11 10  1  0  0  0  0
 12 13  1  0  0  0  0
 13 14  1  0  0  0  0
 13 15  2  0  0  0  0
 15 35  1  0  0  0  0
 16 15  1  0  0  0  0
 16 17  1  0  0  0  0
 17 19  1  0  0  0  0
 18 17  1  0  0  0  0
 18  1  2  0  0  0  0
 19 20  1  0  0  0  0
 19 37  1  0  0  0  0
 20 23  1  0  0  0  0
 20 21  1  1  0  0  0
 22 38  1  0  0  0  0
 22 20  1  0  0  0  0
 23 24  1  6  0  0  0
 23 25  1  0  0  0  0
 23 26  1  0  0  0  0
 25 39  1  0  0  0  0
 26 27  1  6  0  0  0
 26 29  1  0  0  0  0
 26 28  1  0  0  0  0
 28 40  1  0  0  0  0
 29 42  1  0  0  0  0
 29 30  1  0  0  0  0
 31  9  1  0  0  0  0
 32 11  1  0  0  0  0
 33 12  1  0  0  0  0
 34 14  1  0  0  0  0
 36 19  1  0  0  0  0
 41 29  1  0  0  0  0
 43 30  1  0  0  0  0
M  END
$$$$
