43
rmsd218.gzmat
N          0.00000        0.00000        0.00000
C          1.39970        0.00000        0.00000
O          2.05650        0.00000        1.00980
N          2.06490       -0.00730       -1.26210
H          3.08720       -0.03050       -1.26160
C          1.40450       -0.02710       -2.49630
O          2.04530       -0.04880       -3.52350
C         -0.06760       -0.02040       -2.44590
C         -0.82250       -0.06800       -3.57920
C         -2.24120       -0.09380       -3.47470
C         -3.04810       -0.18380       -4.63350
C         -4.41770       -0.23520       -4.54530
C         -5.00690       -0.20630       -3.25910
O         -6.34200       -0.26680       -3.09010
C         -4.26160       -0.11580       -2.09290
C         -2.85960       -0.03820       -2.19230
N         -2.06910        0.09910       -1.05490
C         -0.67860        0.02460       -1.13590
C         -2.68590        0.28820        0.27170
C         -2.99120       -1.06180        0.94710
H         -3.25640       -1.84220        0.19090
O         -1.89060       -1.57580        1.65790
C         -4.14230       -0.92820        1.96900
H         -4.28660       -1.89480        2.50740
O         -5.27400       -0.70340        1.14490
C         -4.04410        0.24030        2.97380
H         -4.16450        1.22550        2.47030
O         -5.20620        0.16610        3.77620
C         -2.78820        0.19640        3.85560
O         -2.51290       -1.13090        4.23250
H         -0.34630       -0.09790       -4.56970
H         -2.55740       -0.21340       -5.61170
H         -5.03950       -0.30140       -5.43190
H         -6.83590       -0.34920       -3.94680
H         -4.78290       -0.13320       -1.12910
H         -3.61970        0.89240        0.16300
H         -1.99660        0.89710        0.91470
H         -1.03620       -1.16690        1.35590
H         -6.04500       -0.45410        1.70470
H         -5.10070       -0.52870        4.46440
H         -2.95860        0.72160        4.81550
H         -1.91000        0.63840        3.35130
H         -2.11080       -1.59130        3.45050
