
     RDKit          3D

 43 45  0  0  0  0  0  0  0  0999 V2000
   -0.3039   -0.0824    0.1444 N   0  0  0  0  0  0  0  0  0  0  0  0
    1.0621   -0.0918    0.2536 C   0  0  0  0  0  0  0  0  0  0  0  0
    1.6459   -0.1656    1.3262 O   0  0  0  0  0  0  0  0  0  0  0  0
    1.8120   -0.0209   -0.9310 N   0  0  0  0  0  0  0  0  0  0  0  0
    2.8235   -0.0219   -0.8238 H   0  0  0  0  0  0  0  0  0  0  0  0
    1.3193   -0.0085   -2.2259 C   0  0  0  0  0  0  0  0  0  0  0  0
    2.0407    0.0164   -3.2035 O   0  0  0  0  0  0  0  0  0  0  0  0
   -0.1610   -0.0308   -2.2826 C   0  0  0  0  0  0  0  0  0  0  0  0
   -0.8330   -0.0777   -3.4748 C   0  0  0  0  0  0  0  0  0  0  0  0
   -2.2482   -0.1345   -3.4995 C   0  0  0  0  0  0  0  0  0  0  0  0
   -2.9759   -0.2457   -4.7080 C   0  0  0  0  0  0  0  0  0  0  0  0
   -4.3518   -0.3215   -4.7127 C   0  0  0  0  0  0  0  0  0  0  0  0
   -5.0500   -0.2943   -3.4817 C   0  0  0  0  0  0  0  0  0  0  0  0
   -6.3915   -0.3845   -3.4230 O   0  0  0  0  0  0  0  0  0  0  0  0
   -4.3662   -0.1769   -2.2726 C   0  0  0  0  0  0  0  0  0  0  0  0
   -2.9653   -0.0885   -2.2597 C   0  0  0  0  0  0  0  0  0  0  0  0
   -2.2572    0.0483   -1.0768 N   0  0  0  0  0  0  0  0  0  0  0  0
   -0.8800   -0.0221   -1.0397 C   0  0  0  0  0  0  0  0  0  0  0  0
   -2.9430    0.2458    0.2105 C   0  0  0  0  0  0  0  0  0  0  0  0
   -3.1464   -1.0723    1.0135 C   0  0  1  0  0  0  0  0  0  0  0  0
   -4.1496   -1.4643    0.7800 H   0  0  0  0  0  0  0  0  0  0  0  0
   -2.2455   -2.0838    0.6432 O   0  0  0  0  0  0  0  0  0  0  0  0
   -3.1372   -0.7709    2.5244 C   0  0  2  0  0  0  0  0  0  0  0  0
   -3.4170   -1.7049    3.0535 H   0  0  0  0  0  0  0  0  0  0  0  0
   -4.1127    0.2334    2.7264 O   0  0  0  0  0  0  0  0  0  0  0  0
   -1.7864   -0.2902    3.0784 C   0  0  1  0  0  0  0  0  0  0  0  0
   -1.3380    0.4363    2.3792 H   0  0  0  0  0  0  0  0  0  0  0  0
   -2.0786    0.3589    4.3116 O   0  0  0  0  0  0  0  0  0  0  0  0
   -0.7312   -1.3625    3.3420 C   0  0  0  0  0  0  0  0  0  0  0  0
    0.4309   -0.7431    3.8471 O   0  0  0  0  0  0  0  0  0  0  0  0
   -0.2548   -0.0922   -4.4021 H   0  0  0  0  0  0  0  0  0  0  0  0
   -2.4206   -0.2751   -5.6479 H   0  0  0  0  0  0  0  0  0  0  0  0
   -4.9045   -0.4108   -5.6515 H   0  0  0  0  0  0  0  0  0  0  0  0
   -6.7606   -0.4770   -4.3117 H   0  0  0  0  0  0  0  0  0  0  0  0
   -4.9541   -0.1854   -1.3586 H   0  0  0  0  0  0  0  0  0  0  0  0
   -3.9002    0.7399    0.0294 H   0  0  0  0  0  0  0  0  0  0  0  0
   -2.3248    0.9449    0.7795 H   0  0  0  0  0  0  0  0  0  0  0  0
   -1.3558   -1.6963    0.7089 H   0  0  0  0  0  0  0  0  0  0  0  0
   -3.8664    0.6648    3.5614 H   0  0  0  0  0  0  0  0  0  0  0  0
   -1.2150    0.5266    4.7216 H   0  0  0  0  0  0  0  0  0  0  0  0
   -0.5181   -1.9600    2.4418 H   0  0  0  0  0  0  0  0  0  0  0  0
   -1.1157   -2.0532    4.1121 H   0  0  0  0  0  0  0  0  0  0  0  0
    0.9313   -0.4247    3.0691 H   0  0  0  0  0  0  0  0  0  0  0  0
  1  2  1  0
  1 18  2  0
  2  3  2  0
  2  4  1  0
  4  5  1  0
  4  6  1  0
  6  7  2  0
  6  8  1  0
  8  9  2  0
  8 18  1  0
  9 10  1  0
  9 31  1  0
 10 11  1  0
 10 16  2  0
 11 12  2  0
 11 32  1  0
 12 13  1  0
 12 33  1  0
 13 14  1  0
 13 15  2  0
 14 34  1  0
 15 16  1  0
 15 35  1  0
 16 17  1  0
 17 18  1  0
 17 19  1  0
 19 20  1  0
 19 36  1  0
 19 37  1  0
 20 21  1  6
 20 22  1  0
 20 23  1  0
 22 38  1  0
 23 24  1  1
 23 25  1  0
 23 26  1  0
 25 39  1  0
 26 27  1  6
 26 28  1  0
 26 29  1  0
 28 40  1  0
 29 30  1  0
 29 41  1  0
 29 42  1  0
 30 43  1  0
M  END

