43

N          0.28090       -0.59940       -0.24000
C          1.64820       -0.74920       -0.40070
O          2.39100       -1.05550        0.50530
N          2.16920       -0.53320       -1.69470
H          3.17640       -0.63970       -1.78550
C          1.46530       -0.24730       -2.84740
O          1.99630       -0.10810       -3.93280
C          0.00630       -0.13340       -2.61610
C         -0.86360        0.09240       -3.64740
C         -2.26220        0.14960       -3.41700
C         -3.19620        0.30440       -4.46690
C         -4.55330        0.31860       -4.22160
C         -5.01890        0.15780       -2.89540
O         -6.33310        0.12950       -2.60410
C         -4.12800        0.01170       -1.83080
C         -2.74510        0.02440       -2.07560
N         -1.82330       -0.08780       -1.04070
C         -0.47620       -0.28980       -1.26870
C         -2.26720       -0.00300        0.35710
C         -2.48360       -1.36650        1.02820
H         -2.85890       -2.06000        0.24910
O         -1.31430       -1.87480        1.62820
C         -3.58540       -1.29710        2.08370
H         -3.60460       -2.28980        2.57340
O         -4.80540       -1.05140        1.40760
C         -3.41560       -0.25560        3.20320
H         -3.50520        0.75660        2.77300
O         -4.54320       -0.40190        4.06460
C         -2.10180       -0.35960        3.97590
O         -1.83500       -1.68400        4.37200
H         -0.45710        0.19970       -4.65640
H         -2.82040        0.40840       -5.48700
H         -5.26800        0.43690       -5.04020
H         -6.85580        0.21600       -3.41270
H         -4.54580       -0.16280       -0.83950
H         -3.19940        0.56770        0.37050
H         -1.50380        0.56170        0.90730
H         -0.54510       -1.53070        1.11220
H         -5.44620       -0.83980        2.10540
H         -4.35950       -1.18130        4.61300
H         -2.19960        0.25740        4.88480
H         -1.27680        0.06020        3.37320
H         -1.47130       -2.11060        3.57430
