44
rmsd28.gzmat
C          0.00000        0.00000        0.00000
C          1.52850        0.00000        0.00000
C          2.06540        0.00000        1.43460
C          3.59480       -0.17360        1.42910
N          4.09150       -0.45110        2.77140
C          4.31260        0.50030        3.75360
N          4.28250        1.85730        3.67480
C          4.58840        2.48100        4.82830
N          4.90680        1.89930        6.01450
C          4.93520        0.53760        6.10140
C          4.63440       -0.23250        4.94710
N          4.58550       -1.59670        4.68140
C          4.25060       -1.71800        3.39230
C          4.09350       -3.00640        2.67150
C          2.66350       -3.25430        2.28610
C          2.34880       -3.67750        0.99670
C          1.01420       -3.89830        0.64420
C         -0.00450       -3.69230        1.56200
C          0.33430       -3.26720        2.85810
C          1.65830       -3.05670        3.23490
O         -0.74530       -3.09640        3.66310
C         -0.50630       -2.55750        4.95750
N          5.24580       -0.02270        7.30120
H         -0.39760        0.07830       -1.01720
H         -0.40050        0.84010        0.57850
H         -0.40080       -0.92270        0.43870
H          1.90750        0.88360       -0.54740
H          1.89970       -0.88740       -0.54830
H          1.58870       -0.81270        2.01840
H          1.79260        0.93990        1.95300
H          4.08400        0.75900        1.05320
H          3.89500       -1.00740        0.75430
H          4.58280        3.58490        4.81910
H          4.44230       -3.84360        3.33250
H          4.77100       -3.04010        1.78860
H          3.13130       -3.83870        0.26190
H          0.77360       -4.23080       -0.36550
H         -1.04680       -3.85260        1.30360
H          1.92160       -2.74390        4.24240
H         -1.52160       -2.48860        5.36980
H         -0.04990       -1.56460        4.88990
H          0.10660       -3.23730        5.55770
H          5.47860        0.55150        8.08710
H          5.29750       -1.01880        7.38690
