rmsd44.gzmat
 OpenBabel08211713423D

 44 46  0  0  0  0  0  0  0  0999 V2000
    0.0000    0.0000    0.0000 C   0  0  0  0  0  0  0  0  0  0  0  0
    1.5284    0.0000    0.0000 C   0  0  0  0  0  0  0  0  0  0  0  0
    2.0657    0.0000    1.4348 C   0  0  0  0  0  0  0  0  0  0  0  0
    3.6024   -0.0745    1.4177 C   0  0  0  0  0  0  0  0  0  0  0  0
    4.1240   -0.2117    2.7705 N   0  0  0  0  0  0  0  0  0  0  0  0
    4.6275    0.8179    3.5455 C   0  0  0  0  0  0  0  0  0  0  0  0
    4.7913    2.1342    3.2450 N   0  0  0  0  0  0  0  0  0  0  0  0
    5.3240    2.8622    4.2441 C   0  0  0  0  0  0  0  0  0  0  0  0
    5.6980    2.4163    5.4725 N   0  0  0  0  0  0  0  0  0  0  0  0
    5.5424    1.0952    5.7773 C   0  0  0  0  0  0  0  0  0  0  0  0
    4.9871    0.2238    4.8032 C   0  0  0  0  0  0  0  0  0  0  0  0
    4.6985   -1.1362    4.7740 N   0  0  0  0  0  0  0  0  0  0  0  0
    4.1829   -1.3857    3.5651 C   0  0  0  0  0  0  0  0  0  0  0  0
    3.7396   -2.7196    3.0866 C   0  0  0  0  0  0  0  0  0  0  0  0
    4.5277   -3.1677    1.8894 C   0  0  0  0  0  0  0  0  0  0  0  0
    3.8754   -3.7050    0.7817 C   0  0  0  0  0  0  0  0  0  0  0  0
    4.6169   -4.1135   -0.3310 C   0  0  0  0  0  0  0  0  0  0  0  0
    5.9969   -3.9808   -0.3503 C   0  0  0  0  0  0  0  0  0  0  0  0
    6.6362   -3.4346    0.7761 C   0  0  0  0  0  0  0  0  0  0  0  0
    5.9183   -3.0364    1.9011 C   0  0  0  0  0  0  0  0  0  0  0  0
    7.9833   -3.3497    0.6343 O   0  0  0  0  0  0  0  0  0  0  0  0
    8.7072   -2.7317    1.6914 C   0  0  0  0  0  0  0  0  0  0  0  0
    5.9370    0.6688    7.0069 N   0  0  0  0  0  0  0  0  0  0  0  0
   -0.3970    0.0367   -1.0202 H   0  0  0  0  0  0  0  0  0  0  0  0
   -0.4012    0.8666    0.5388 H   0  0  0  0  0  0  0  0  0  0  0  0
   -0.4035   -0.9004    0.4763 H   0  0  0  0  0  0  0  0  0  0  0  0
    1.9062    0.8860   -0.5470 H   0  0  0  0  0  0  0  0  0  0  0  0
    1.9048   -0.8830   -0.5522 H   0  0  0  0  0  0  0  0  0  0  0  0
    1.6431   -0.8482    2.0042 H   0  0  0  0  0  0  0  0  0  0  0  0
    1.7382    0.9134    1.9701 H   0  0  0  0  0  0  0  0  0  0  0  0
    4.0305    0.8522    0.9586 H   0  0  0  0  0  0  0  0  0  0  0  0
    3.9529   -0.9382    0.8021 H   0  0  0  0  0  0  0  0  0  0  0  0
    5.4761    3.9392    4.0552 H   0  0  0  0  0  0  0  0  0  0  0  0
    2.6454   -2.7095    2.8788 H   0  0  0  0  0  0  0  0  0  0  0  0
    3.8668   -3.4684    3.9125 H   0  0  0  0  0  0  0  0  0  0  0  0
    2.7949   -3.8123    0.7750 H   0  0  0  0  0  0  0  0  0  0  0  0
    4.1021   -4.5362   -1.1938 H   0  0  0  0  0  0  0  0  0  0  0  0
    6.5878   -4.2864   -1.2086 H   0  0  0  0  0  0  0  0  0  0  0  0
    6.4144   -2.6285    2.7782 H   0  0  0  0  0  0  0  0  0  0  0  0
    9.7371   -2.7536    1.3108 H   0  0  0  0  0  0  0  0  0  0  0  0
    8.6247   -3.3156    2.6135 H   0  0  0  0  0  0  0  0  0  0  0  0
    8.3761   -1.6987    1.8426 H   0  0  0  0  0  0  0  0  0  0  0  0
    6.3126    1.3130    7.6737 H   0  0  0  0  0  0  0  0  0  0  0  0
    5.8170   -0.2917    7.2632 H   0  0  0  0  0  0  0  0  0  0  0  0
  1 26  1  0  0  0  0
  1 25  1  0  0  0  0
  2  1  1  0  0  0  0
  2  3  1  0  0  0  0
  3 30  1  0  0  0  0
  3 29  1  0  0  0  0
  4  3  1  0  0  0  0
  4  5  1  0  0  0  0
  5  6  1  0  0  0  0
  5 13  1  0  0  0  0
  6 11  1  0  0  0  0
  7  6  2  0  0  0  0
  7  8  2  0  0  0  0
  8  9  2  0  0  0  0
  9 10  2  0  0  0  0
 10 23  1  0  0  0  0
 11 10  1  0  0  0  0
 12 11  2  0  0  0  0
 13 12  2  0  0  0  0
 14 13  1  0  0  0  0
 14 35  1  0  0  0  0
 15 20  1  0  0  0  0
 15 14  1  0  0  0  0
 16 15  2  0  0  0  0
 17 16  1  0  0  0  0
 18 17  2  0  0  0  0
 18 19  1  0  0  0  0
 19 20  2  0  0  0  0
 20 39  1  0  0  0  0
 21 19  1  0  0  0  0
 21 22  1  0  0  0  0
 22 42  1  0  0  0  0
 22 41  1  0  0  0  0
 23 44  1  0  0  0  0
 23 43  1  0  0  0  0
 24  1  1  0  0  0  0
 27  2  1  0  0  0  0
 28  2  1  0  0  0  0
 31  4  1  0  0  0  0
 32  4  1  0  0  0  0
 33  8  1  0  0  0  0
 34 14  1  0  0  0  0
 36 16  1  0  0  0  0
 37 17  1  0  0  0  0
 38 18  1  0  0  0  0
 40 22  1  0  0  0  0
M  END
$$$$
