44

C          0.17350       -0.21790       -0.35200
C          1.69070       -0.26170       -0.18020
C          2.12700        0.01710        1.25700
C          3.64790        0.04290        1.41490
N          4.06970        0.46380        2.74280
C          4.06940       -0.34590        3.85890
N          3.78310       -1.64860        3.93680
C          3.89460       -2.11010        5.18410
N          4.24360       -1.43570        6.28870
C          4.52580       -0.12670        6.19110
C          4.44260        0.49040        4.92170
N          4.65780        1.77900        4.47650
C          4.42850        1.73340        3.17960
C          4.47330        2.91840        2.26540
C          3.09680        3.29770        1.74660
C          2.84170        3.40840        0.37890
C          1.54320        3.69050       -0.06750
C          0.50370        3.86260        0.83870
C          0.75740        3.76250        2.21960
C          2.05340        3.48170        2.66840
O         -0.30750        3.94200        3.03690
C         -0.12680        3.81210        4.42970
N          4.86660        0.56290        7.30500
H         -0.12360       -0.42310       -1.39260
H         -0.22100        0.77390       -0.07670
H         -0.32210       -0.96330        0.29150
H          2.15540        0.48740       -0.84640
H          2.07880       -1.24440       -0.50390
H          1.71830       -0.74860        1.93750
H          1.71830        0.98620        1.58030
H          4.10010        0.72450        0.68080
H          4.06580       -0.96060        1.24190
H          3.67470       -3.17460        5.32820
H          5.14980        2.73110        1.41620
H          4.90630        3.74070        2.85370
H          3.64970        3.26030       -0.34150
H          1.34150        3.76760       -1.13860
H         -0.51560        4.07450        0.51170
H          2.27280        3.37450        3.73070
H         -1.10920        3.98070        4.88990
H          0.58700        4.55860        4.82140
H          0.23170        2.80370        4.70290
H          4.99090        0.05720        8.17140
H          5.16690        1.52390        7.22350
