44
rmsd44.gzmat
C          0.00000        0.00000        0.00000
C          1.52840        0.00000        0.00000
C          2.06570        0.00000        1.43480
C          3.60240       -0.07450        1.41770
N          4.12400       -0.21170        2.77050
C          4.62750        0.81790        3.54550
N          4.79130        2.13420        3.24500
C          5.32400        2.86220        4.24410
N          5.69800        2.41630        5.47250
C          5.54240        1.09520        5.77730
C          4.98710        0.22380        4.80320
N          4.69850       -1.13620        4.77400
C          4.18290       -1.38570        3.56510
C          3.73960       -2.71960        3.08660
C          4.52770       -3.16770        1.88940
C          3.87540       -3.70500        0.78170
C          4.61690       -4.11350       -0.33100
C          5.99690       -3.98080       -0.35030
C          6.63620       -3.43460        0.77610
C          5.91830       -3.03640        1.90110
O          7.98330       -3.34970        0.63430
C          8.70720       -2.73170        1.69140
N          5.93700        0.66880        7.00690
H         -0.39700        0.03670       -1.02020
H         -0.40120        0.86660        0.53880
H         -0.40350       -0.90040        0.47630
H          1.90620        0.88600       -0.54700
H          1.90480       -0.88300       -0.55220
H          1.64310       -0.84820        2.00420
H          1.73820        0.91340        1.97010
H          4.03050        0.85220        0.95860
H          3.95290       -0.93820        0.80210
H          5.47610        3.93920        4.05520
H          2.64540       -2.70950        2.87880
H          3.86680       -3.46840        3.91250
H          2.79490       -3.81230        0.77500
H          4.10210       -4.53620       -1.19380
H          6.58780       -4.28640       -1.20860
H          6.41440       -2.62850        2.77820
H          9.73710       -2.75360        1.31080
H          8.62470       -3.31560        2.61350
H          8.37610       -1.69870        1.84260
H          6.31260        1.31300        7.67370
H          5.81700       -0.29170        7.26320
