rmsd233.gzmat
 OpenBabel08211713423D

 44 46  0  0  0  0  0  0  0  0999 V2000
    0.0000    0.0000    0.0000 C   0  0  0  0  0  0  0  0  0  0  0  0
    1.5292    0.0000    0.0000 C   0  0  0  0  0  0  0  0  0  0  0  0
    2.0572    0.0000    1.4373 C   0  0  0  0  0  0  0  0  0  0  0  0
    3.5832   -0.1979    1.4544 C   0  0  0  0  0  0  0  0  0  0  0  0
    4.0512   -0.4355    2.8150 N   0  0  0  0  0  0  0  0  0  0  0  0
    4.2058    0.5461    3.7802 C   0  0  0  0  0  0  0  0  0  0  0  0
    4.1382    1.8990    3.6639 N   0  0  0  0  0  0  0  0  0  0  0  0
    4.3721    2.5606    4.8129 C   0  0  0  0  0  0  0  0  0  0  0  0
    4.6578    2.0187    6.0262 N   0  0  0  0  0  0  0  0  0  0  0  0
    4.7256    0.6610    6.1496 C   0  0  0  0  0  0  0  0  0  0  0  0
    4.4946   -0.1472    5.0054 C   0  0  0  0  0  0  0  0  0  0  0  0
    4.4844   -1.5190    4.7765 N   0  0  0  0  0  0  0  0  0  0  0  0
    4.2050   -1.6821    3.4788 C   0  0  0  0  0  0  0  0  0  0  0  0
    4.0944   -2.9943    2.7925 C   0  0  0  0  0  0  0  0  0  0  0  0
    2.6923   -3.2449    2.3159 C   0  0  0  0  0  0  0  0  0  0  0  0
    2.4582   -3.6476    1.0031 C   0  0  0  0  0  0  0  0  0  0  0  0
    1.1474   -3.8529    0.5626 C   0  0  0  0  0  0  0  0  0  0  0  0
    0.0732   -3.6507    1.4157 C   0  0  0  0  0  0  0  0  0  0  0  0
    0.3309   -3.2506    2.7382 C   0  0  0  0  0  0  0  0  0  0  0  0
    1.6294   -3.0571    3.2029 C   0  0  0  0  0  0  0  0  0  0  0  0
   -0.7984   -3.0800    3.4718 O   0  0  0  0  0  0  0  0  0  0  0  0
   -0.6417   -2.5778    4.7932 C   0  0  0  0  0  0  0  0  0  0  0  0
    5.0071    0.1388    7.3734 N   0  0  0  0  0  0  0  0  0  0  0  0
   -0.3992    0.0454   -1.0183 H   0  0  0  0  0  0  0  0  0  0  0  0
   -0.4018    0.8568    0.5526 H   0  0  0  0  0  0  0  0  0  0  0  0
   -0.3971   -0.9090    0.4696 H   0  0  0  0  0  0  0  0  0  0  0  0
    1.9107    0.8834   -0.5460 H   0  0  0  0  0  0  0  0  0  0  0  0
    1.9008   -0.8882   -0.5467 H   0  0  0  0  0  0  0  0  0  0  0  0
    1.5632   -0.8022    2.0213 H   0  0  0  0  0  0  0  0  0  0  0  0
    1.7937    0.9474    1.9476 H   0  0  0  0  0  0  0  0  0  0  0  0
    4.0936    0.7130    1.0550 H   0  0  0  0  0  0  0  0  0  0  0  0
    3.8799   -1.0596    0.8145 H   0  0  0  0  0  0  0  0  0  0  0  0
    4.3277    3.6629    4.7735 H   0  0  0  0  0  0  0  0  0  0  0  0
    4.3939   -3.8079    3.5048 H   0  0  0  0  0  0  0  0  0  0  0  0
    4.8324   -3.0593    1.9615 H   0  0  0  0  0  0  0  0  0  0  0  0
    3.2851   -3.8024    0.3169 H   0  0  0  0  0  0  0  0  0  0  0  0
    0.9683   -4.1685   -0.4651 H   0  0  0  0  0  0  0  0  0  0  0  0
   -0.9514   -3.7927    1.0859 H   0  0  0  0  0  0  0  0  0  0  0  0
    1.8304   -2.7601    4.2292 H   0  0  0  0  0  0  0  0  0  0  0  0
   -1.6835   -2.4873    5.1298 H   0  0  0  0  0  0  0  0  0  0  0  0
   -0.1511   -1.5982    4.7868 H   0  0  0  0  0  0  0  0  0  0  0  0
   -0.0978   -3.2927    5.4183 H   0  0  0  0  0  0  0  0  0  0  0  0
    5.1853    0.7375    8.1547 H   0  0  0  0  0  0  0  0  0  0  0  0
    5.0781   -0.8536    7.4865 H   0  0  0  0  0  0  0  0  0  0  0  0
  1 26  1  0  0  0  0
  1 25  1  0  0  0  0
  2  1  1  0  0  0  0
  2  3  1  0  0  0  0
  3  4  1  0  0  0  0
  3 30  1  0  0  0  0
  3 29  1  0  0  0  0
  4  5  1  0  0  0  0
  5 13  1  0  0  0  0
  5  6  1  0  0  0  0
  6 11  1  0  0  0  0
  7  6  2  0  0  0  0
  7  8  2  0  0  0  0
  8  9  2  0  0  0  0
  9 10  2  0  0  0  0
 10 23  1  0  0  0  0
 11 10  1  0  0  0  0
 12 11  2  0  0  0  0
 13 12  2  0  0  0  0
 14 13  1  0  0  0  0
 14 34  1  0  0  0  0
 15 14  1  0  0  0  0
 15 20  2  0  0  0  0
 16 15  1  0  0  0  0
 17 16  2  0  0  0  0
 17 18  1  0  0  0  0
 18 19  2  0  0  0  0
 19 20  1  0  0  0  0
 19 21  1  0  0  0  0
 20 39  1  0  0  0  0
 21 22  1  0  0  0  0
 22 40  1  0  0  0  0
 22 42  1  0  0  0  0
 23 44  1  0  0  0  0
 23 43  1  0  0  0  0
 24  1  1  0  0  0  0
 27  2  1  0  0  0  0
 28  2  1  0  0  0  0
 31  4  1  0  0  0  0
 32  4  1  0  0  0  0
 33  8  1  0  0  0  0
 35 14  1  0  0  0  0
 36 16  1  0  0  0  0
 37 17  1  0  0  0  0
 38 18  1  0  0  0  0
 41 22  1  0  0  0  0
M  END
$$$$
