44
rmsd140.gzmat
C          0.00000        0.00000        0.00000
C          1.52870        0.00000        0.00000
C          2.05970        0.00000        1.43630
C          3.58580        0.19970        1.44590
N          4.05860        0.45910        2.80090
C          4.20860       -0.50310        3.78600
N          4.14250       -1.85810        3.69640
C          4.37580       -2.49700        4.85850
N          4.65530       -1.93090        6.06190
C          4.72020       -0.57090        6.15910
C          4.49510        0.21410        4.99760
N          4.49180        1.58100        4.73990
C          4.21690        1.71800        3.43840
C          4.12480        3.01300        2.71810
C          2.73030        3.27540        2.22560
C          2.51940        3.67940        0.90880
C          1.21810        3.90180        0.44950
C          0.12990        3.72120        1.28950
C          0.36410        3.32150        2.61650
C          1.65300        3.10610        3.09870
O         -0.77730        3.17640        3.33670
C         -0.64610        2.67810        4.66240
N          4.99260       -0.02650        7.37540
H         -0.39870       -0.02850       -1.01910
H         -0.39790        0.90190        0.48220
H         -0.40190       -0.86470        0.53930
H          1.89960        0.88900       -0.54630
H          1.91020       -0.88240       -0.54770
H          1.79990       -0.94790        1.94730
H          1.56740        0.80240        2.02150
H          3.87750        1.05230        0.79100
H          4.09650       -0.71630        1.05870
H          4.33670       -3.60020        4.84140
H          4.86750        3.04430        1.88840
H          4.43400        3.84190        3.40850
H          3.35740        3.82440        0.23390
H          1.05840        4.21460       -0.58230
H         -0.88790        3.88260        0.94650
H          1.83500        2.80950        4.12880
H         -1.69280        2.61300        4.98940
H         -0.08990        3.38230        5.28930
H         -0.18130        1.68660        4.66580
H          5.16670       -0.61170        8.16760
H          5.07130        0.96710        7.46990
