
     RDKit          3D

 44 46  0  0  0  0  0  0  0  0999 V2000
   -0.0114   -0.4663   -0.1841 C   0  0  0  0  0  0  0  0  0  0  0  0
    1.4346    0.0047   -0.0104 C   0  0  0  0  0  0  0  0  0  0  0  0
    1.9381    0.0330    1.4367 C   0  0  0  0  0  0  0  0  0  0  0  0
    1.9555   -1.3487    2.0961 C   0  0  0  0  0  0  0  0  0  0  0  0
    2.5610   -1.3370    3.4201 N   0  0  0  0  0  0  0  0  0  0  0  0
    3.9203   -1.3076    3.6516 C   0  0  0  0  0  0  0  0  0  0  0  0
    4.9127   -1.3358    2.7573 N   0  0  0  0  0  0  0  0  0  0  0  0
    6.1120   -1.3019    3.3422 C   0  0  0  0  0  0  0  0  0  0  0  0
    6.3941   -1.2468    4.6513 N   0  0  0  0  0  0  0  0  0  0  0  0
    5.3832   -1.2199    5.5349 C   0  0  0  0  0  0  0  0  0  0  0  0
    4.0566   -1.2486    5.0462 C   0  0  0  0  0  0  0  0  0  0  0  0
    2.8197   -1.2356    5.6571 N   0  0  0  0  0  0  0  0  0  0  0  0
    1.9509   -1.2895    4.6682 C   0  0  0  0  0  0  0  0  0  0  0  0
    0.4648   -1.2390    4.8416 C   0  0  0  0  0  0  0  0  0  0  0  0
   -0.1298    0.0572    4.3206 C   0  0  0  0  0  0  0  0  0  0  0  0
    0.3899    1.2882    4.7579 C   0  0  0  0  0  0  0  0  0  0  0  0
   -0.1132    2.4753    4.2348 C   0  0  0  0  0  0  0  0  0  0  0  0
   -1.1287    2.4691    3.2694 C   0  0  0  0  0  0  0  0  0  0  0  0
   -1.6496    1.2431    2.8372 C   0  0  0  0  0  0  0  0  0  0  0  0
   -1.1489    0.0440    3.3722 C   0  0  0  0  0  0  0  0  0  0  0  0
   -2.6142    1.1091    1.8905 O   0  0  0  0  0  0  0  0  0  0  0  0
   -3.1455    2.2679    1.2886 C   0  0  0  0  0  0  0  0  0  0  0  0
    5.6603   -1.1608    6.8575 N   0  0  0  0  0  0  0  0  0  0  0  0
   -0.3171   -0.4151   -1.2412 H   0  0  0  0  0  0  0  0  0  0  0  0
   -0.7159    0.1469    0.3985 H   0  0  0  0  0  0  0  0  0  0  0  0
   -0.1463   -1.5120    0.1375 H   0  0  0  0  0  0  0  0  0  0  0  0
    1.5364    1.0205   -0.4286 H   0  0  0  0  0  0  0  0  0  0  0  0
    2.1050   -0.6351   -0.6125 H   0  0  0  0  0  0  0  0  0  0  0  0
    1.3195    0.7151    2.0414 H   0  0  0  0  0  0  0  0  0  0  0  0
    2.9677    0.4239    1.4561 H   0  0  0  0  0  0  0  0  0  0  0  0
    2.5442   -2.0449    1.4784 H   0  0  0  0  0  0  0  0  0  0  0  0
    0.9419   -1.7601    2.1897 H   0  0  0  0  0  0  0  0  0  0  0  0
    6.9789   -1.3212    2.6710 H   0  0  0  0  0  0  0  0  0  0  0  0
    0.2816   -1.3409    5.9211 H   0  0  0  0  0  0  0  0  0  0  0  0
   -0.0168   -2.0959    4.3440 H   0  0  0  0  0  0  0  0  0  0  0  0
    1.1982    1.3004    5.4922 H   0  0  0  0  0  0  0  0  0  0  0  0
    0.2928    3.4324    4.5715 H   0  0  0  0  0  0  0  0  0  0  0  0
   -1.4955    3.4123    2.8662 H   0  0  0  0  0  0  0  0  0  0  0  0
   -1.5665   -0.8950    3.0033 H   0  0  0  0  0  0  0  0  0  0  0  0
   -3.8971    1.9281    0.5641 H   0  0  0  0  0  0  0  0  0  0  0  0
   -2.3680    2.8445    0.7562 H   0  0  0  0  0  0  0  0  0  0  0  0
   -3.6321    2.9266    2.0298 H   0  0  0  0  0  0  0  0  0  0  0  0
    6.6249   -1.1759    7.1584 H   0  0  0  0  0  0  0  0  0  0  0  0
    4.9068   -1.1765    7.5296 H   0  0  0  0  0  0  0  0  0  0  0  0
  1  2  1  0
  1 24  1  0
  1 25  1  0
  1 26  1  0
  2  3  1  0
  2 27  1  0
  2 28  1  0
  3  4  1  0
  3 29  1  0
  3 30  1  0
  4  5  1  0
  4 31  1  0
  4 32  1  0
  5  6  1  0
  5 13  1  0
  6  7  2  0
  6 11  1  0
  7  8  1  0
  8  9  2  0
  8 33  1  0
  9 10  1  0
 10 11  2  0
 10 23  1  0
 11 12  1  0
 12 13  2  0
 13 14  1  0
 14 15  1  0
 14 34  1  0
 14 35  1  0
 15 16  2  0
 15 20  1  0
 16 17  1  0
 16 36  1  0
 17 18  2  0
 17 37  1  0
 18 19  1  0
 18 38  1  0
 19 20  2  0
 19 21  1  0
 20 39  1  0
 21 22  1  0
 22 40  1  0
 22 41  1  0
 22 42  1  0
 23 43  1  0
 23 44  1  0
M  END

