44
rmsd145.gzmat
C          0.00000        0.00000        0.00000
C          1.52740        0.00000        0.00000
C          2.10520        0.00000        1.41870
C          2.03400       -1.40830        2.03610
N          2.60900       -1.41490        3.37630
C          3.96570       -1.40470        3.65650
N          5.02950       -1.51770        2.81680
C          6.22360       -1.49240        3.43800
N          6.45020       -1.36580        4.77220
C          5.38690       -1.25260        5.62040
C          4.07260       -1.26970        5.08310
N          2.80090       -1.18180        5.63770
C          1.93930       -1.25350        4.61680
C          0.46180       -1.20350        4.74930
C         -0.10510        0.05600        4.16080
C          0.47420        1.29190        4.47350
C         -0.04360        2.46130        3.93000
C         -1.14880        2.42400        3.07930
C         -1.72100        1.18660        2.79020
C         -1.20900       -0.00950        3.32000
O         -2.79390        0.98320        1.97950
C         -3.44630        2.13600        1.46630
N          5.63700       -1.12350        6.95090
H         -0.39960       -0.02170       -1.01880
H         -0.40090        0.89550        0.49110
H         -0.41210       -0.86380        0.53180
H          1.89650        0.89330       -0.54250
H          1.91060       -0.86800       -0.57040
H          1.56580        0.72680        2.05780
H          3.16050        0.34070        1.39800
H          2.60560       -2.13220        1.40320
H          0.97980       -1.76240        2.08780
H          7.12220       -1.58310        2.80310
H          0.19030       -1.25190        5.83790
H          0.00260       -2.11350        4.30020
H          1.33200        1.33220        5.14500
H          0.41570        3.42050        4.17110
H         -1.54250        3.34280        2.66220
H         -1.68430       -0.95210        3.06500
H         -4.27450        1.69870        0.89140
H         -2.78020        2.70220        0.80820
H         -3.83320        2.75970        2.27820
H          6.57590       -1.12240        7.29540
H          4.87510       -1.05020        7.59620
