rmsd34.gzmat
 OpenBabel08211713423D

 44 46  0  0  0  0  0  0  0  0999 V2000
    0.0000    0.0000    0.0000 C   0  0  0  0  0  0  0  0  0  0  0  0
    1.5283    0.0000    0.0000 C   0  0  0  0  0  0  0  0  0  0  0  0
    2.0617    0.0000    1.4352 C   0  0  0  0  0  0  0  0  0  0  0  0
    3.6008    0.0335    1.4345 C   0  0  0  0  0  0  0  0  0  0  0  0
    4.1048    0.4336    2.7429 N   0  0  0  0  0  0  0  0  0  0  0  0
    4.1379   -0.3783    3.8647 C   0  0  0  0  0  0  0  0  0  0  0  0
    3.8992   -1.7114    3.9816 N   0  0  0  0  0  0  0  0  0  0  0  0
    4.0534   -2.1892    5.2309 C   0  0  0  0  0  0  0  0  0  0  0  0
    4.4093   -1.4858    6.3379 N   0  0  0  0  0  0  0  0  0  0  0  0
    4.6486   -0.1464    6.2274 C   0  0  0  0  0  0  0  0  0  0  0  0
    4.5191    0.4742    4.9569 C   0  0  0  0  0  0  0  0  0  0  0  0
    4.6850    1.7755    4.4946 N   0  0  0  0  0  0  0  0  0  0  0  0
    4.4231    1.7453    3.1835 C   0  0  0  0  0  0  0  0  0  0  0  0
    4.4942    2.9171    2.2745 C   0  0  0  0  0  0  0  0  0  0  0  0
    3.1493    3.2558    1.6981 C   0  0  0  0  0  0  0  0  0  0  0  0
    3.0028    3.4424    0.3252 C   0  0  0  0  0  0  0  0  0  0  0  0
    1.7463    3.7516   -0.2044 C   0  0  0  0  0  0  0  0  0  0  0  0
    0.6392    3.8689    0.6218 C   0  0  0  0  0  0  0  0  0  0  0  0
    0.8081    3.6756    2.0039 C   0  0  0  0  0  0  0  0  0  0  0  0
    2.0530    3.3812    2.5542 C   0  0  0  0  0  0  0  0  0  0  0  0
   -0.3481    3.8041    2.7035 O   0  0  0  0  0  0  0  0  0  0  0  0
   -0.2902    3.5488    4.1013 C   0  0  0  0  0  0  0  0  0  0  0  0
    4.9951    0.5388    7.3501 N   0  0  0  0  0  0  0  0  0  0  0  0
   -0.3974   -0.0027   -1.0202 H   0  0  0  0  0  0  0  0  0  0  0  0
   -0.3985    0.8893    0.5040 H   0  0  0  0  0  0  0  0  0  0  0  0
   -0.4022   -0.8787    0.5168 H   0  0  0  0  0  0  0  0  0  0  0  0
    1.8985    0.8940   -0.5410 H   0  0  0  0  0  0  0  0  0  0  0  0
    1.9092   -0.8792   -0.5520 H   0  0  0  0  0  0  0  0  0  0  0  0
    1.7048   -0.8907    1.9886 H   0  0  0  0  0  0  0  0  0  0  0  0
    1.6591    0.8740    1.9854 H   0  0  0  0  0  0  0  0  0  0  0  0
    3.9821    0.7454    0.6673 H   0  0  0  0  0  0  0  0  0  0  0  0
    4.0068   -0.9788    1.1894 H   0  0  0  0  0  0  0  0  0  0  0  0
    3.8725   -3.2678    5.3812 H   0  0  0  0  0  0  0  0  0  0  0  0
    5.2528    2.7399    1.4784 H   0  0  0  0  0  0  0  0  0  0  0  0
    4.8822    3.8016    2.8456 H   0  0  0  0  0  0  0  0  0  0  0  0
    3.8570    3.3535   -0.3388 H   0  0  0  0  0  0  0  0  0  0  0  0
    1.6369    3.8971   -1.2791 H   0  0  0  0  0  0  0  0  0  0  0  0
   -0.3451    4.1028    0.2275 H   0  0  0  0  0  0  0  0  0  0  0  0
    2.1865    3.2470    3.6247 H   0  0  0  0  0  0  0  0  0  0  0  0
   -1.3391    3.6738    4.4022 H   0  0  0  0  0  0  0  0  0  0  0  0
    0.3444    4.2839    4.6058 H   0  0  0  0  0  0  0  0  0  0  0  0
    0.0477    2.5265    4.3009 H   0  0  0  0  0  0  0  0  0  0  0  0
    5.0937    0.0656    8.2259 H   0  0  0  0  0  0  0  0  0  0  0  0
    5.1995    1.5172    7.2929 H   0  0  0  0  0  0  0  0  0  0  0  0
  1 25  1  0  0  0  0
  1 26  1  0  0  0  0
  2  1  1  0  0  0  0
  2  3  1  0  0  0  0
  3 30  1  0  0  0  0
  3 29  1  0  0  0  0
  4  3  1  0  0  0  0
  4  5  1  0  0  0  0
  5 13  1  0  0  0  0
  5  6  1  0  0  0  0
  6  7  2  0  0  0  0
  6 11  1  0  0  0  0
  7  8  2  0  0  0  0
  8 33  1  0  0  0  0
  8  9  2  0  0  0  0
 10  9  2  0  0  0  0
 10 23  1  0  0  0  0
 11 10  1  0  0  0  0
 12 11  2  0  0  0  0
 13 12  2  0  0  0  0
 14 35  1  0  0  0  0
 14 13  1  0  0  0  0
 15 14  1  0  0  0  0
 15 20  2  0  0  0  0
 16 15  1  0  0  0  0
 17 16  2  0  0  0  0
 17 18  1  0  0  0  0
 18 19  2  0  0  0  0
 19 20  1  0  0  0  0
 19 21  1  0  0  0  0
 20 39  1  0  0  0  0
 21 22  1  0  0  0  0
 22 42  1  0  0  0  0
 22 40  1  0  0  0  0
 22 41  1  0  0  0  0
 23 43  1  0  0  0  0
 24  1  1  0  0  0  0
 27  2  1  0  0  0  0
 28  2  1  0  0  0  0
 31  4  1  0  0  0  0
 32  4  1  0  0  0  0
 34 14  1  0  0  0  0
 36 16  1  0  0  0  0
 37 17  1  0  0  0  0
 38 18  1  0  0  0  0
 44 23  1  0  0  0  0
M  END
$$$$
