31
rmsd132.gzmat
O          0.00000        0.00000        0.00000
C          1.34820        0.00000        0.00000
O          1.93540        0.00000        1.04850
C          2.05060       -0.05420       -1.36680
H          2.41030       -1.10860       -1.50810
N          1.05330        0.27800       -2.40570
C          3.25650        0.90170       -1.33240
C          4.13340        0.70010       -2.53640
C          5.15700       -0.16800       -2.43660
C          6.14980       -0.48430       -3.50180
C          5.48380       -0.90090       -4.82190
C          5.17530        0.31590       -5.70050
C          4.28820        1.26760       -5.01830
C          3.82450        1.44820       -3.72950
C          2.95760        2.61080       -3.86490
N          2.93620        3.05410       -5.12420
O          3.76220        2.23020       -5.86180
O          2.23760        3.14920       -2.87330
H         -0.38120        0.05580       -0.92600
H          1.16660       -0.29350       -3.22950
H          1.13440        1.24640       -2.68740
H          3.83350        0.73030       -0.39270
H          2.92310        1.95640       -1.23550
H          5.32650       -0.70440       -1.49940
H          6.81180        0.39480       -3.66420
H          6.83050       -1.29410       -3.16420
H          4.55670       -1.47010       -4.61500
H          6.14520       -1.59610       -5.37490
H          4.72310       -0.01670       -6.66460
H          6.12490        0.82600       -5.99270
H          1.78070        3.99160       -3.17390
