rmsd168.gzmat
 OpenBabel08211713423D

 31 32  0  0  1  0  0  0  0  0999 V2000
    0.0000    0.0000    0.0000 O   0  0  0  0  0  0  0  0  0  0  0  0
    1.3483    0.0000    0.0000 C   0  0  0  0  0  0  0  0  0  0  0  0
    1.9353    0.0000    1.0486 O   0  0  0  0  0  0  0  0  0  0  0  0
    2.0474   -0.0533   -1.3687 C   0  0  1  0  0  0  0  0  0  0  0  0
    2.4011   -1.1091   -1.5156 H   0  0  0  0  0  0  0  0  0  0  0  0
    1.0451    0.2863   -2.4003 N   0  0  0  0  0  0  0  0  0  0  0  0
    3.2594    0.8952   -1.3371 C   0  0  0  0  0  0  0  0  0  0  0  0
    4.1064    0.7222   -2.5651 C   0  0  0  0  0  0  0  0  0  0  0  0
    5.1822   -0.0836   -2.5040 C   0  0  0  0  0  0  0  0  0  0  0  0
    6.1173   -0.3536   -3.6334 C   0  0  0  0  0  0  0  0  0  0  0  0
    5.3807   -0.9182   -4.8588 C   0  0  0  0  0  0  0  0  0  0  0  0
    4.8941    0.2014   -5.7852 C   0  0  0  0  0  0  0  0  0  0  0  0
    4.0793    1.1947   -5.0714 C   0  0  0  0  0  0  0  0  0  0  0  0
    3.7189    1.4316   -3.7595 C   0  0  0  0  0  0  0  0  0  0  0  0
    2.8729    2.6115   -3.8684 C   0  0  0  0  0  0  0  0  0  0  0  0
    2.7643    3.0115   -5.1375 N   0  0  0  0  0  0  0  0  0  0  0  0
    3.5111    2.1412   -5.9062 O   0  0  0  0  0  0  0  0  0  0  0  0
    2.2473    3.1970   -2.8405 O   0  0  0  0  0  0  0  0  0  0  0  0
   -0.3819    0.0600   -0.9260 H   0  0  0  0  0  0  0  0  0  0  0  0
    1.1609   -0.2722   -3.2327 H   0  0  0  0  0  0  0  0  0  0  0  0
    1.1165    1.2596   -2.6673 H   0  0  0  0  0  0  0  0  0  0  0  0
    3.8536    0.6975   -0.4134 H   0  0  0  0  0  0  0  0  0  0  0  0
    2.9342    1.9497   -1.2105 H   0  0  0  0  0  0  0  0  0  0  0  0
    5.4355   -0.5966   -1.5743 H   0  0  0  0  0  0  0  0  0  0  0  0
    6.6576    0.5790   -3.9063 H   0  0  0  0  0  0  0  0  0  0  0  0
    6.9106   -1.0621   -3.3190 H   0  0  0  0  0  0  0  0  0  0  0  0
    4.5270   -1.5430   -4.5316 H   0  0  0  0  0  0  0  0  0  0  0  0
    6.0498   -1.5968   -5.4225 H   0  0  0  0  0  0  0  0  0  0  0  0
    4.3180   -0.2345   -6.6351 H   0  0  0  0  0  0  0  0  0  0  0  0
    5.7690    0.7045   -6.2634 H   0  0  0  0  0  0  0  0  0  0  0  0
    1.7886    4.0425   -3.1294 H   0  0  0  0  0  0  0  0  0  0  0  0
  2  1  1  0  0  0  0
  2  3  2  0  0  0  0
  4  5  1  6  0  0  0
  4  7  1  0  0  0  0
  4  2  1  0  0  0  0
  6  4  1  0  0  0  0
  7 23  1  0  0  0  0
  7 22  1  0  0  0  0
  8  9  2  0  0  0  0
  8  7  1  0  0  0  0
  9 24  1  0  0  0  0
 10 26  1  0  0  0  0
 10  9  1  0  0  0  0
 11 27  1  0  0  0  0
 11 10  1  0  0  0  0
 12 13  1  0  0  0  0
 12 11  1  0  0  0  0
 13 14  2  0  0  0  0
 14  8  1  0  0  0  0
 15 14  1  0  0  0  0
 15 18  1  0  0  0  0
 16 15  2  0  0  0  0
 17 16  1  0  0  0  0
 17 13  1  0  0  0  0
 19  1  1  0  0  0  0
 20  6  1  0  0  0  0
 21  6  1  0  0  0  0
 25 10  1  0  0  0  0
 28 11  1  0  0  0  0
 29 12  1  0  0  0  0
 30 12  1  0  0  0  0
 31 18  1  0  0  0  0
M  END
$$$$
