31
rmsd100.gzmat
O          0.00000        0.00000        0.00000
C          1.35270        0.00000        0.00000
O          1.92900        0.00000        1.05400
C          2.02600       -0.06620       -1.37400
H          2.10350       -1.15870       -1.64260
N          1.12310        0.57410       -2.35410
C          3.44730        0.52930       -1.31990
C          3.43530        2.03350       -1.33440
C          3.21450        2.68920       -0.18060
C          3.13340        4.16760       -0.01440
C          4.38420        4.88170       -0.54930
C          4.25000        5.20700       -2.04090
C          4.02150        3.99980       -2.84680
C          3.67810        2.68540       -2.59680
C          3.64680        2.10540       -3.93160
N          3.94210        3.01700       -4.86170
O          4.18690        4.20610       -4.20550
O          3.34510        0.82950       -4.21400
H         -0.39030        0.04430       -0.91830
H          1.46070        0.41700       -3.29520
H          1.10260        1.58130       -2.22510
H          4.05160        0.12760       -2.15950
H          3.96550        0.15990       -0.40450
H          3.06080        2.12310        0.74590
H          2.22190        4.55190       -0.52080
H          2.99380        4.42480        1.05740
H          5.28160        4.25570       -0.37210
H          4.55650        5.81810        0.01620
H          5.16190        5.74380       -2.39500
H          3.41390        5.93000       -2.19800
H          3.43960        0.65030       -5.19710
