rmsd155.gzmat
 OpenBabel08211713423D

 31 32  0  0  1  0  0  0  0  0999 V2000
    0.0000    0.0000    0.0000 O   0  0  0  0  0  0  0  0  0  0  0  0
    1.3480    0.0000    0.0000 C   0  0  0  0  0  0  0  0  0  0  0  0
    1.9351    0.0000    1.0488 O   0  0  0  0  0  0  0  0  0  0  0  0
    2.0518   -0.0508   -1.3667 C   0  0  1  0  0  0  0  0  0  0  0  0
    2.4591   -1.0905   -1.4859 H   0  0  0  0  0  0  0  0  0  0  0  0
    1.0390    0.2160   -2.4094 N   0  0  0  0  0  0  0  0  0  0  0  0
    3.2134    0.9594   -1.3555 C   0  0  0  0  0  0  0  0  0  0  0  0
    4.1011    0.7659   -2.5520 C   0  0  0  0  0  0  0  0  0  0  0  0
    5.2017    0.0029   -2.4211 C   0  0  0  0  0  0  0  0  0  0  0  0
    6.1888   -0.2815   -3.5014 C   0  0  0  0  0  0  0  0  0  0  0  0
    5.5214   -0.9040   -4.7382 C   0  0  0  0  0  0  0  0  0  0  0  0
    5.0411    0.1719   -5.7182 C   0  0  0  0  0  0  0  0  0  0  0  0
    4.1474    1.1443   -5.0742 C   0  0  0  0  0  0  0  0  0  0  0  0
    3.7247    1.4091   -3.7862 C   0  0  0  0  0  0  0  0  0  0  0  0
    2.8239    2.5379   -3.9725 C   0  0  0  0  0  0  0  0  0  0  0  0
    2.7447    2.8857   -5.2593 N   0  0  0  0  0  0  0  0  0  0  0  0
    3.5650    2.0288   -5.9656 O   0  0  0  0  0  0  0  0  0  0  0  0
    2.1304    3.1291   -2.9923 O   0  0  0  0  0  0  0  0  0  0  0  0
   -0.3812    0.0395   -0.9277 H   0  0  0  0  0  0  0  0  0  0  0  0
    1.1565   -0.3863   -3.2101 H   0  0  0  0  0  0  0  0  0  0  0  0
    1.0926    1.1736   -2.7306 H   0  0  0  0  0  0  0  0  0  0  0  0
    3.7935    0.8403   -0.4096 H   0  0  0  0  0  0  0  0  0  0  0  0
    2.8326    2.0007   -1.2923 H   0  0  0  0  0  0  0  0  0  0  0  0
    5.4388   -0.4606   -1.4612 H   0  0  0  0  0  0  0  0  0  0  0  0
    6.7203    0.6547   -3.7794 H   0  0  0  0  0  0  0  0  0  0  0  0
    6.9834   -0.9610   -3.1297 H   0  0  0  0  0  0  0  0  0  0  0  0
    4.6750   -1.5460   -4.4254 H   0  0  0  0  0  0  0  0  0  0  0  0
    6.2336   -1.5771   -5.2538 H   0  0  0  0  0  0  0  0  0  0  0  0
    4.5323   -0.3064   -6.5886 H   0  0  0  0  0  0  0  0  0  0  0  0
    5.9203    0.7016   -6.1593 H   0  0  0  0  0  0  0  0  0  0  0  0
    1.6448    3.9409   -3.3304 H   0  0  0  0  0  0  0  0  0  0  0  0
  2  1  1  0  0  0  0
  2  3  2  0  0  0  0
  4  5  1  6  0  0  0
  4  7  1  0  0  0  0
  4  2  1  0  0  0  0
  6  4  1  0  0  0  0
  7 23  1  0  0  0  0
  7 22  1  0  0  0  0
  8  9  2  0  0  0  0
  8  7  1  0  0  0  0
  9 24  1  0  0  0  0
 10 26  1  0  0  0  0
 10  9  1  0  0  0  0
 11 27  1  0  0  0  0
 11 10  1  0  0  0  0
 12 13  1  0  0  0  0
 12 11  1  0  0  0  0
 13 14  2  0  0  0  0
 14  8  1  0  0  0  0
 15 14  1  0  0  0  0
 15 18  1  0  0  0  0
 16 15  2  0  0  0  0
 17 16  1  0  0  0  0
 17 13  1  0  0  0  0
 19  1  1  0  0  0  0
 20  6  1  0  0  0  0
 21  6  1  0  0  0  0
 25 10  1  0  0  0  0
 28 11  1  0  0  0  0
 29 12  1  0  0  0  0
 30 12  1  0  0  0  0
 31 18  1  0  0  0  0
M  END
$$$$
