rmsd125.gzmat
 OpenBabel08211713423D

 31 32  0  0  1  0  0  0  0  0999 V2000
    0.0000    0.0000    0.0000 O   0  0  0  0  0  0  0  0  0  0  0  0
    1.3485    0.0000    0.0000 C   0  0  0  0  0  0  0  0  0  0  0  0
    1.9365    0.0000    1.0482 O   0  0  0  0  0  0  0  0  0  0  0  0
    2.0489   -0.0549   -1.3682 C   0  0  1  0  0  0  0  0  0  0  0  0
    2.4146   -1.1079   -1.5050 H   0  0  0  0  0  0  0  0  0  0  0  0
    1.0465    0.2665   -2.4061 N   0  0  0  0  0  0  0  0  0  0  0  0
    3.2495    0.9082   -1.3427 C   0  0  0  0  0  0  0  0  0  0  0  0
    4.1295    0.6932   -2.5413 C   0  0  0  0  0  0  0  0  0  0  0  0
    5.1874   -0.1298   -2.4211 C   0  0  0  0  0  0  0  0  0  0  0  0
    6.1630   -0.4515   -3.5010 C   0  0  0  0  0  0  0  0  0  0  0  0
    5.4710   -0.9933   -4.7622 C   0  0  0  0  0  0  0  0  0  0  0  0
    5.0714    0.1394   -5.7139 C   0  0  0  0  0  0  0  0  0  0  0  0
    4.2135    1.1324   -5.0526 C   0  0  0  0  0  0  0  0  0  0  0  0
    3.7893    1.3808   -3.7617 C   0  0  0  0  0  0  0  0  0  0  0  0
    2.9330    2.5471   -3.9271 C   0  0  0  0  0  0  0  0  0  0  0  0
    2.8797    2.9299   -5.2051 N   0  0  0  0  0  0  0  0  0  0  0  0
    3.6737    2.0605   -5.9258 O   0  0  0  0  0  0  0  0  0  0  0  0
    2.2507    3.1393   -2.9395 O   0  0  0  0  0  0  0  0  0  0  0  0
   -0.3806    0.0519   -0.9275 H   0  0  0  0  0  0  0  0  0  0  0  0
    1.1566   -0.3126   -3.2253 H   0  0  0  0  0  0  0  0  0  0  0  0
    1.1251    1.2322   -2.6980 H   0  0  0  0  0  0  0  0  0  0  0  0
    3.8240    0.7533   -0.3988 H   0  0  0  0  0  0  0  0  0  0  0  0
    2.9102    1.9627   -1.2650 H   0  0  0  0  0  0  0  0  0  0  0  0
    5.3954   -0.6189   -1.4669 H   0  0  0  0  0  0  0  0  0  0  0  0
    6.7600    0.4536   -3.7485 H   0  0  0  0  0  0  0  0  0  0  0  0
    6.9054   -1.1939   -3.1411 H   0  0  0  0  0  0  0  0  0  0  0  0
    4.5808   -1.5881   -4.4784 H   0  0  0  0  0  0  0  0  0  0  0  0
    6.1449   -1.6968   -5.2887 H   0  0  0  0  0  0  0  0  0  0  0  0
    4.5592   -0.2816   -6.6116 H   0  0  0  0  0  0  0  0  0  0  0  0
    5.9854    0.6380   -6.1188 H   0  0  0  0  0  0  0  0  0  0  0  0
    1.8000    3.9769   -3.2622 H   0  0  0  0  0  0  0  0  0  0  0  0
  2  1  1  0  0  0  0
  2  3  2  0  0  0  0
  4  5  1  6  0  0  0
  4  7  1  0  0  0  0
  4  2  1  0  0  0  0
  6  4  1  0  0  0  0
  7 23  1  0  0  0  0
  7 22  1  0  0  0  0
  8  9  2  0  0  0  0
  8  7  1  0  0  0  0
  9 24  1  0  0  0  0
 10 26  1  0  0  0  0
 10  9  1  0  0  0  0
 11 27  1  0  0  0  0
 11 10  1  0  0  0  0
 12 13  1  0  0  0  0
 12 11  1  0  0  0  0
 13 14  2  0  0  0  0
 14  8  1  0  0  0  0
 15 14  1  0  0  0  0
 15 18  1  0  0  0  0
 16 15  2  0  0  0  0
 17 16  1  0  0  0  0
 17 13  1  0  0  0  0
 19  1  1  0  0  0  0
 20  6  1  0  0  0  0
 21  6  1  0  0  0  0
 25 10  1  0  0  0  0
 28 11  1  0  0  0  0
 29 12  1  0  0  0  0
 30 12  1  0  0  0  0
 31 18  1  0  0  0  0
M  END
$$$$
