rmsd124.gzmat
 OpenBabel08211713423D

 31 32  0  0  1  0  0  0  0  0999 V2000
    0.0000    0.0000    0.0000 O   0  0  0  0  0  0  0  0  0  0  0  0
    1.3477    0.0000    0.0000 C   0  0  0  0  0  0  0  0  0  0  0  0
    1.9342    0.0000    1.0490 O   0  0  0  0  0  0  0  0  0  0  0  0
    2.0533   -0.0477   -1.3657 C   0  0  1  0  0  0  0  0  0  0  0  0
    2.4700   -1.0839   -1.4829 H   0  0  0  0  0  0  0  0  0  0  0  0
    1.0399    0.2091   -2.4106 N   0  0  0  0  0  0  0  0  0  0  0  0
    3.2066    0.9727   -1.3534 C   0  0  0  0  0  0  0  0  0  0  0  0
    4.1035    0.7752   -2.5421 C   0  0  0  0  0  0  0  0  0  0  0  0
    5.2051    0.0155   -2.3998 C   0  0  0  0  0  0  0  0  0  0  0  0
    6.1938   -0.2881   -3.4735 C   0  0  0  0  0  0  0  0  0  0  0  0
    5.5227   -0.9106   -4.7083 C   0  0  0  0  0  0  0  0  0  0  0  0
    5.0583    0.1649   -5.6963 C   0  0  0  0  0  0  0  0  0  0  0  0
    4.1599    1.1410   -5.0649 C   0  0  0  0  0  0  0  0  0  0  0  0
    3.7289    1.4101   -3.7807 C   0  0  0  0  0  0  0  0  0  0  0  0
    2.8212    2.5316   -3.9777 C   0  0  0  0  0  0  0  0  0  0  0  0
    2.7485    2.8730   -5.2664 N   0  0  0  0  0  0  0  0  0  0  0  0
    3.5788    2.0179   -5.9635 O   0  0  0  0  0  0  0  0  0  0  0  0
    2.1140    3.1215   -3.0065 O   0  0  0  0  0  0  0  0  0  0  0  0
   -0.3817    0.0403   -0.9270 H   0  0  0  0  0  0  0  0  0  0  0  0
    1.1628   -0.3944   -3.2096 H   0  0  0  0  0  0  0  0  0  0  0  0
    1.0866    1.1663   -2.7343 H   0  0  0  0  0  0  0  0  0  0  0  0
    3.7806    0.8661   -0.4025 H   0  0  0  0  0  0  0  0  0  0  0  0
    2.8159    2.0110   -1.3022 H   0  0  0  0  0  0  0  0  0  0  0  0
    5.4404   -0.4348   -1.4330 H   0  0  0  0  0  0  0  0  0  0  0  0
    6.7401    0.6380   -3.7560 H   0  0  0  0  0  0  0  0  0  0  0  0
    6.9774   -0.9764   -3.0944 H   0  0  0  0  0  0  0  0  0  0  0  0
    4.6680   -1.5402   -4.3928 H   0  0  0  0  0  0  0  0  0  0  0  0
    6.2276   -1.5964   -5.2173 H   0  0  0  0  0  0  0  0  0  0  0  0
    4.5589   -0.3152   -6.5704 H   0  0  0  0  0  0  0  0  0  0  0  0
    5.9437    0.6905   -6.1282 H   0  0  0  0  0  0  0  0  0  0  0  0
    1.6178    3.9221   -3.3553 H   0  0  0  0  0  0  0  0  0  0  0  0
  2  1  1  0  0  0  0
  2  3  2  0  0  0  0
  4  5  1  6  0  0  0
  4  7  1  0  0  0  0
  4  2  1  0  0  0  0
  6  4  1  0  0  0  0
  7 23  1  0  0  0  0
  7 22  1  0  0  0  0
  8  9  2  0  0  0  0
  8  7  1  0  0  0  0
  9 24  1  0  0  0  0
 10 26  1  0  0  0  0
 10  9  1  0  0  0  0
 11 27  1  0  0  0  0
 11 10  1  0  0  0  0
 12 13  1  0  0  0  0
 12 11  1  0  0  0  0
 13 14  2  0  0  0  0
 14  8  1  0  0  0  0
 15 14  1  0  0  0  0
 15 18  1  0  0  0  0
 16 15  2  0  0  0  0
 17 16  1  0  0  0  0
 17 13  1  0  0  0  0
 19  1  1  0  0  0  0
 20  6  1  0  0  0  0
 21  6  1  0  0  0  0
 25 10  1  0  0  0  0
 28 11  1  0  0  0  0
 29 12  1  0  0  0  0
 30 12  1  0  0  0  0
 31 18  1  0  0  0  0
M  END
$$$$
