31

O         -0.03060       -0.04250       -0.02920
C          1.29900       -0.01360        0.04160
O          1.91740       -0.04560        1.07430
C          1.97200        0.02130       -1.35160
H          2.25400       -1.02690       -1.55360
N          0.96660        0.40680       -2.34750
C          3.26440        0.85490       -1.30300
C          4.14980        0.67840       -2.51920
C          5.24290       -0.10750       -2.41680
C          6.22170       -0.46520       -3.50350
C          5.57740       -0.99250       -4.79820
C          5.07410        0.11510       -5.72140
C          4.16920        1.10630       -5.07310
C          3.76560        1.35000       -3.77380
C          2.89770        2.48920       -3.95510
N          2.79470        2.86670       -5.20150
O          3.59950        1.99230       -5.91070
O          2.21900        3.13860       -2.99000
H         -0.21920        0.03530       -0.99980
H          1.14730       -0.01520       -3.25570
H          0.97180        1.41890       -2.48090
H          3.80950        0.53370       -0.40650
H          2.99910        1.91190       -1.15260
H          5.43550       -0.54730       -1.43310
H          6.85130        0.41220       -3.74870
H          6.91270       -1.22550       -3.11000
H          4.75090       -1.67440       -4.53900
H          6.31100       -1.59070       -5.36070
H          4.54660       -0.31490       -6.58990
H          5.93060        0.67110       -6.14280
H          1.77190        3.89560       -3.40380
