31
rmsd124.gzmat
O          0.00000        0.00000        0.00000
C          1.34770        0.00000        0.00000
O          1.93420        0.00000        1.04900
C          2.05330       -0.04770       -1.36570
H          2.47000       -1.08390       -1.48290
N          1.03990        0.20910       -2.41060
C          3.20660        0.97270       -1.35340
C          4.10350        0.77520       -2.54210
C          5.20510        0.01550       -2.39980
C          6.19380       -0.28810       -3.47350
C          5.52270       -0.91060       -4.70830
C          5.05830        0.16490       -5.69630
C          4.15990        1.14100       -5.06490
C          3.72890        1.41010       -3.78070
C          2.82120        2.53160       -3.97770
N          2.74850        2.87300       -5.26640
O          3.57880        2.01790       -5.96350
O          2.11400        3.12150       -3.00650
H         -0.38170        0.04030       -0.92700
H          1.16280       -0.39440       -3.20960
H          1.08660        1.16630       -2.73430
H          3.78060        0.86610       -0.40250
H          2.81590        2.01100       -1.30220
H          5.44040       -0.43480       -1.43300
H          6.74010        0.63800       -3.75600
H          6.97740       -0.97640       -3.09440
H          4.66800       -1.54020       -4.39280
H          6.22760       -1.59640       -5.21730
H          4.55890       -0.31520       -6.57040
H          5.94370        0.69050       -6.12820
H          1.61780        3.92210       -3.35530
