
     RDKit          3D

 31 32  0  0  0  0  0  0  0  0999 V2000
   -0.2337    0.4229   -0.4320 O   0  0  0  0  0  0  0  0  0  0  0  0
    1.0534    0.2220   -0.1519 C   0  0  0  0  0  0  0  0  0  0  0  0
    1.4889    0.1669    0.9702 O   0  0  0  0  0  0  0  0  0  0  0  0
    1.9148    0.0135   -1.4188 C   0  0  1  0  0  0  0  0  0  0  0  0
    1.9398   -1.0827   -1.5545 H   0  0  0  0  0  0  0  0  0  0  0  0
    1.1831    0.5678   -2.5619 N   0  0  0  0  0  0  0  0  0  0  0  0
    3.3628    0.4944   -1.2011 C   0  0  0  0  0  0  0  0  0  0  0  0
    3.5104    2.0069   -1.2494 C   0  0  0  0  0  0  0  0  0  0  0  0
    3.3897    2.6888   -0.0877 C   0  0  0  0  0  0  0  0  0  0  0  0
    3.4540    4.1636    0.2056 C   0  0  0  0  0  0  0  0  0  0  0  0
    4.3059    5.0522   -0.7038 C   0  0  0  0  0  0  0  0  0  0  0  0
    3.7600    5.2162   -2.1236 C   0  0  0  0  0  0  0  0  0  0  0  0
    3.8140    3.9584   -2.9150 C   0  0  0  0  0  0  0  0  0  0  0  0
    3.7217    2.6233   -2.5725 C   0  0  0  0  0  0  0  0  0  0  0  0
    3.8777    1.9907   -3.8619 C   0  0  0  0  0  0  0  0  0  0  0  0
    4.0442    2.8465   -4.8376 N   0  0  0  0  0  0  0  0  0  0  0  0
    4.0103    4.0921   -4.2375 O   0  0  0  0  0  0  0  0  0  0  0  0
    3.8525    0.6707   -4.1269 O   0  0  0  0  0  0  0  0  0  0  0  0
   -0.2654    0.4538   -1.4213 H   0  0  0  0  0  0  0  0  0  0  0  0
    1.5248    0.1732   -3.4363 H   0  0  0  0  0  0  0  0  0  0  0  0
    1.3400    1.5756   -2.6225 H   0  0  0  0  0  0  0  0  0  0  0  0
    4.0105    0.0188   -1.9471 H   0  0  0  0  0  0  0  0  0  0  0  0
    3.6691    0.1303   -0.2122 H   0  0  0  0  0  0  0  0  0  0  0  0
    3.1884    2.0715    0.7926 H   0  0  0  0  0  0  0  0  0  0  0  0
    2.4215    4.5635    0.2412 H   0  0  0  0  0  0  0  0  0  0  0  0
    3.8266    4.2735    1.2378 H   0  0  0  0  0  0  0  0  0  0  0  0
    5.3348    4.6584   -0.7508 H   0  0  0  0  0  0  0  0  0  0  0  0
    4.3729    6.0514   -0.2455 H   0  0  0  0  0  0  0  0  0  0  0  0
    4.3285    5.9807   -2.6762 H   0  0  0  0  0  0  0  0  0  0  0  0
    2.7169    5.5790   -2.0840 H   0  0  0  0  0  0  0  0  0  0  0  0
    4.0413    0.5659   -5.0741 H   0  0  0  0  0  0  0  0  0  0  0  0
  1  2  1  0
  1 19  1  0
  2  3  2  0
  2  4  1  0
  4  5  1  6
  4  6  1  0
  4  7  1  0
  6 20  1  0
  6 21  1  0
  7  8  1  0
  7 22  1  0
  7 23  1  0
  8  9  2  0
  8 14  1  0
  9 10  1  0
  9 24  1  0
 10 11  1  0
 10 25  1  0
 10 26  1  0
 11 12  1  0
 11 27  1  0
 11 28  1  0
 12 13  1  0
 12 29  1  0
 12 30  1  0
 13 14  2  0
 13 17  1  0
 14 15  1  0
 15 16  2  0
 15 18  1  0
 16 17  1  0
 18 31  1  0
M  END

