31
rmsd168.gzmat
O          0.00000        0.00000        0.00000
C          1.34830        0.00000        0.00000
O          1.93530        0.00000        1.04860
C          2.04740       -0.05330       -1.36870
H          2.40110       -1.10910       -1.51560
N          1.04510        0.28630       -2.40030
C          3.25940        0.89520       -1.33710
C          4.10640        0.72220       -2.56510
C          5.18220       -0.08360       -2.50400
C          6.11730       -0.35360       -3.63340
C          5.38070       -0.91820       -4.85880
C          4.89410        0.20140       -5.78520
C          4.07930        1.19470       -5.07140
C          3.71890        1.43160       -3.75950
C          2.87290        2.61150       -3.86840
N          2.76430        3.01150       -5.13750
O          3.51110        2.14120       -5.90620
O          2.24730        3.19700       -2.84050
H         -0.38190        0.06000       -0.92600
H          1.16090       -0.27220       -3.23270
H          1.11650        1.25960       -2.66730
H          3.85360        0.69750       -0.41340
H          2.93420        1.94970       -1.21050
H          5.43550       -0.59660       -1.57430
H          6.65760        0.57900       -3.90630
H          6.91060       -1.06210       -3.31900
H          4.52700       -1.54300       -4.53160
H          6.04980       -1.59680       -5.42250
H          4.31800       -0.23450       -6.63510
H          5.76900        0.70450       -6.26340
H          1.78860        4.04250       -3.12940
