31
rmsd226.gzmat
O          0.00000        0.00000        0.00000
C          1.34890        0.00000        0.00000
O          1.93520        0.00000        1.04900
C          2.04520       -0.06170       -1.36940
H          2.33990       -1.13250       -1.53790
N          1.06360        0.35220       -2.39400
C          3.30720        0.81800       -1.32080
C          4.16570        0.58560       -2.53110
C          5.17870       -0.29580       -2.44390
C          6.12490       -0.63700       -3.54410
C          5.38980       -1.12650       -4.80210
C          5.02280        0.03820       -5.72810
C          4.23920        1.06940       -5.03400
C          3.85310        1.32010       -3.73190
C          3.07120        2.54170       -3.86060
N          3.02040        2.95040       -5.13060
O          3.74410        2.04530       -5.88090
O          2.44650        3.15820       -2.85020
H         -0.38150        0.08500       -0.92320
H          1.15970       -0.18520       -3.24300
H          1.18230        1.32840       -2.63400
H          3.87320        0.59680       -0.38470
H          3.03870        1.88960       -1.20740
H          5.36880       -0.82370       -1.50710
H          6.75470        0.24730       -3.78540
H          6.84160       -1.41540       -3.20920
H          4.48010       -1.68830       -4.51290
H          6.02410       -1.84750       -5.35370
H          4.46240       -0.34530       -6.61360
H          5.95060        0.49180       -6.15410
H          2.04470        4.02880       -3.15010
