31
rmsd131.gzmat
O          0.00000        0.00000        0.00000
C          1.34820        0.00000        0.00000
O          1.93610        0.00000        1.04810
C          2.04710       -0.05900       -1.36860
H          2.38850       -1.11890       -1.51510
N          1.05050        0.29400       -2.40130
C          3.26870        0.87670       -1.33770
C          4.14610        0.64730       -2.53640
C          5.15350       -0.23840       -2.42600
C          6.14060       -0.58720       -3.48640
C          5.47050       -1.00540       -4.80390
C          5.18590        0.20750       -5.69560
C          4.31300        1.18040       -5.02550
C          3.85370        1.38670       -3.73900
C          3.00930        2.56390       -3.88960
N          2.99400        2.98950       -5.15510
O          3.80330        2.14000       -5.88190
O          2.30280        3.13140       -2.90430
H         -0.38080        0.07070       -0.92530
H          1.14280       -0.28280       -3.22400
H          1.15060        1.25980       -2.68600
H          3.83930        0.70790       -0.39350
H          2.95060        1.93750       -1.25340
H          5.31300       -0.76570       -1.48200
H          6.82060        0.27600       -3.65810
H          6.80340       -1.40690       -3.13710
H          4.53240       -1.55550       -4.59540
H          6.12120       -1.71700       -5.34880
H          4.73250       -0.12760       -6.65810
H          6.14480        0.69910       -5.98910
H          1.86650        3.98110       -3.21460
