rmsd131.gzmat
 OpenBabel08211713423D

 31 32  0  0  1  0  0  0  0  0999 V2000
    0.0000    0.0000    0.0000 O   0  0  0  0  0  0  0  0  0  0  0  0
    1.3482    0.0000    0.0000 C   0  0  0  0  0  0  0  0  0  0  0  0
    1.9361    0.0000    1.0481 O   0  0  0  0  0  0  0  0  0  0  0  0
    2.0471   -0.0590   -1.3686 C   0  0  1  0  0  0  0  0  0  0  0  0
    2.3885   -1.1189   -1.5151 H   0  0  0  0  0  0  0  0  0  0  0  0
    1.0505    0.2940   -2.4013 N   0  0  0  0  0  0  0  0  0  0  0  0
    3.2687    0.8767   -1.3377 C   0  0  0  0  0  0  0  0  0  0  0  0
    4.1461    0.6473   -2.5364 C   0  0  0  0  0  0  0  0  0  0  0  0
    5.1535   -0.2384   -2.4260 C   0  0  0  0  0  0  0  0  0  0  0  0
    6.1406   -0.5872   -3.4864 C   0  0  0  0  0  0  0  0  0  0  0  0
    5.4705   -1.0054   -4.8039 C   0  0  0  0  0  0  0  0  0  0  0  0
    5.1859    0.2075   -5.6956 C   0  0  0  0  0  0  0  0  0  0  0  0
    4.3130    1.1804   -5.0255 C   0  0  0  0  0  0  0  0  0  0  0  0
    3.8537    1.3867   -3.7390 C   0  0  0  0  0  0  0  0  0  0  0  0
    3.0093    2.5639   -3.8896 C   0  0  0  0  0  0  0  0  0  0  0  0
    2.9940    2.9895   -5.1551 N   0  0  0  0  0  0  0  0  0  0  0  0
    3.8033    2.1400   -5.8819 O   0  0  0  0  0  0  0  0  0  0  0  0
    2.3028    3.1314   -2.9043 O   0  0  0  0  0  0  0  0  0  0  0  0
   -0.3808    0.0707   -0.9253 H   0  0  0  0  0  0  0  0  0  0  0  0
    1.1428   -0.2828   -3.2240 H   0  0  0  0  0  0  0  0  0  0  0  0
    1.1506    1.2598   -2.6860 H   0  0  0  0  0  0  0  0  0  0  0  0
    3.8393    0.7079   -0.3935 H   0  0  0  0  0  0  0  0  0  0  0  0
    2.9506    1.9375   -1.2534 H   0  0  0  0  0  0  0  0  0  0  0  0
    5.3130   -0.7657   -1.4820 H   0  0  0  0  0  0  0  0  0  0  0  0
    6.8206    0.2760   -3.6581 H   0  0  0  0  0  0  0  0  0  0  0  0
    6.8034   -1.4069   -3.1371 H   0  0  0  0  0  0  0  0  0  0  0  0
    4.5324   -1.5555   -4.5954 H   0  0  0  0  0  0  0  0  0  0  0  0
    6.1212   -1.7170   -5.3488 H   0  0  0  0  0  0  0  0  0  0  0  0
    4.7325   -0.1276   -6.6581 H   0  0  0  0  0  0  0  0  0  0  0  0
    6.1448    0.6991   -5.9891 H   0  0  0  0  0  0  0  0  0  0  0  0
    1.8665    3.9811   -3.2146 H   0  0  0  0  0  0  0  0  0  0  0  0
  2  1  1  0  0  0  0
  2  3  2  0  0  0  0
  4  5  1  6  0  0  0
  4  7  1  0  0  0  0
  4  2  1  0  0  0  0
  6  4  1  0  0  0  0
  7 23  1  0  0  0  0
  7 22  1  0  0  0  0
  8  9  2  0  0  0  0
  8  7  1  0  0  0  0
  9 24  1  0  0  0  0
 10 26  1  0  0  0  0
 10  9  1  0  0  0  0
 11 27  1  0  0  0  0
 11 10  1  0  0  0  0
 12 13  1  0  0  0  0
 12 11  1  0  0  0  0
 13 14  2  0  0  0  0
 14  8  1  0  0  0  0
 15 14  1  0  0  0  0
 15 18  1  0  0  0  0
 16 15  2  0  0  0  0
 17 16  1  0  0  0  0
 17 13  1  0  0  0  0
 19  1  1  0  0  0  0
 20  6  1  0  0  0  0
 21  6  1  0  0  0  0
 25 10  1  0  0  0  0
 28 11  1  0  0  0  0
 29 12  1  0  0  0  0
 30 12  1  0  0  0  0
 31 18  1  0  0  0  0
M  END
$$$$
