rmsd203.gzmat
 OpenBabel08211713423D

 28 27  0  0  1  0  0  0  0  0999 V2000
    0.0000    0.0000    0.0000 C   0  0  2  0  0  0  0  0  0  0  0  0
    1.1179    0.0000    0.0000 H   0  0  0  0  0  0  0  0  0  0  0  0
   -0.5433    0.0000   -1.4508 C   0  0  1  0  0  0  0  0  0  0  0  0
    0.0373   -0.7218   -2.0814 H   0  0  0  0  0  0  0  0  0  0  0  0
   -2.0543   -0.3092   -1.5377 C   0  0  1  0  0  0  0  0  0  0  0  0
   -2.5416    0.3745   -2.2712 H   0  0  0  0  0  0  0  0  0  0  0  0
   -2.3291   -1.7978   -1.8546 C   0  0  0  0  0  0  0  0  0  0  0  0
   -1.6915   -2.1361   -3.0918 O   0  0  0  0  0  0  0  0  0  0  0  0
   -2.4867   -2.1555   -4.4862 P   0  0  0  0  0  0  0  0  0  0  0  0
   -3.0884   -0.9440   -5.0062 O   0  0  0  0  0  0  0  0  0  0  0  0
   -1.3169   -2.7245   -5.3963 O   0  0  0  0  0  0  0  0  0  0  0  0
   -3.4554   -3.4067   -4.2399 O   0  0  0  0  0  0  0  0  0  0  0  0
   -2.6640   -0.1449   -0.2648 O   0  0  0  0  0  0  0  0  0  0  0  0
   -0.2626    1.2307   -2.0559 O   0  0  0  0  0  0  0  0  0  0  0  0
   -0.3454   -1.1771    0.6810 O   0  0  0  0  0  0  0  0  0  0  0  0
   -0.5323    1.1841    0.8165 C   0  0  0  0  0  0  0  0  0  0  0  0
   -1.0486    2.1780    0.3303 O   0  0  0  0  0  0  0  0  0  0  0  0
   -0.2525    1.1288    2.1708 N   0  0  0  0  0  0  0  0  0  0  0  0
   -0.9674    2.0074    2.9859 O   0  0  0  0  0  0  0  0  0  0  0  0
   -3.4114   -2.0167   -1.7628 H   0  0  0  0  0  0  0  0  0  0  0  0
   -1.7830   -2.4721   -1.1551 H   0  0  0  0  0  0  0  0  0  0  0  0
   -0.9179   -3.5586   -4.9394 H   0  0  0  0  0  0  0  0  0  0  0  0
   -4.2657   -3.3307   -4.8526 H   0  0  0  0  0  0  0  0  0  0  0  0
   -2.8103    0.8051   -0.0662 H   0  0  0  0  0  0  0  0  0  0  0  0
   -0.6322    1.9747   -1.5187 H   0  0  0  0  0  0  0  0  0  0  0  0
   -1.3297   -1.3038    0.6402 H   0  0  0  0  0  0  0  0  0  0  0  0
   -0.1733    0.2637    2.6876 H   0  0  0  0  0  0  0  0  0  0  0  0
   -0.8658    2.9143    2.5494 H   0  0  0  0  0  0  0  0  0  0  0  0
  1  2  1  6  0  0  0
  1 15  1  0  0  0  0
  1 16  1  0  0  0  0
  3  4  1  6  0  0  0
  3  1  1  0  0  0  0
  5  6  1  6  0  0  0
  5  3  1  0  0  0  0
  5 13  1  0  0  0  0
  7 20  1  0  0  0  0
  7  5  1  0  0  0  0
  7 21  1  0  0  0  0
  8  7  1  0  0  0  0
  9 12  1  0  0  0  0
  9  8  1  0  0  0  0
 10  9  2  0  0  0  0
 11 22  1  0  0  0  0
 11  9  1  0  0  0  0
 13 24  1  0  0  0  0
 14 25  1  0  0  0  0
 14  3  1  0  0  0  0
 16 18  1  0  0  0  0
 17 16  2  0  0  0  0
 18 27  1  0  0  0  0
 18 19  1  0  0  0  0
 23 12  1  0  0  0  0
 26 15  1  0  0  0  0
 28 19  1  0  0  0  0
M  END
$$$$
