28

C         -0.04570       -0.10190       -0.08390
H          1.05670       -0.07100       -0.13710
C         -0.55010        0.12930       -1.52840
H         -0.22790       -0.74610       -2.11930
C         -2.08750        0.21430       -1.60110
H         -2.41010        1.12680       -1.06390
C         -2.52590        0.35830       -3.05370
O         -3.87970        0.84770       -3.18330
P         -5.15430       -0.00500       -2.73130
O         -5.23370       -0.46160       -1.31720
O         -6.35100        0.97420       -3.13500
O         -5.15450       -1.22130       -3.79930
O         -2.61610       -0.94990       -0.98430
O          0.04540        1.27280       -2.08250
O         -0.43200       -1.33400        0.46900
C         -0.46670        1.07550        0.78970
O         -0.39550        2.26290        0.42770
N         -0.94320        0.75480        1.99200
O         -1.32190        1.75500        2.85640
H         -2.43430       -0.60890       -3.57420
H         -1.89440        1.10750       -3.54500
H         -6.21270        1.42130       -3.98350
H         -5.48790       -2.03790       -3.39750
H         -3.58830       -0.84180       -0.86600
H         -0.03190        1.97130       -1.39960
H         -1.33730       -1.49560        0.12940
H         -1.00110       -0.19570        2.33920
H         -1.15150        2.55440        2.31250
