rmsd174.gzmat
 OpenBabel08211713423D

 28 27  0  0  1  0  0  0  0  0999 V2000
    0.0000    0.0000    0.0000 C   0  0  2  0  0  0  0  0  0  0  0  0
    1.1190    0.0000    0.0000 H   0  0  0  0  0  0  0  0  0  0  0  0
   -0.5480    0.0000   -1.4480 C   0  0  1  0  0  0  0  0  0  0  0  0
   -0.1021   -0.8432   -2.0274 H   0  0  0  0  0  0  0  0  0  0  0  0
   -2.0992   -0.0695   -1.4898 C   0  0  1  0  0  0  0  0  0  0  0  0
   -2.5673    0.6698   -0.7998 H   0  0  0  0  0  0  0  0  0  0  0  0
   -2.5962    0.1095   -2.9322 C   0  0  0  0  0  0  0  0  0  0  0  0
   -3.8811    0.7596   -2.9338 O   0  0  0  0  0  0  0  0  0  0  0  0
   -5.2450   -0.0799   -2.8990 P   0  0  0  0  0  0  0  0  0  0  0  0
   -5.4408   -1.0524   -1.8336 O   0  0  0  0  0  0  0  0  0  0  0  0
   -6.2915    1.1109   -2.8637 O   0  0  0  0  0  0  0  0  0  0  0  0
   -5.2946   -0.6328   -4.3980 O   0  0  0  0  0  0  0  0  0  0  0  0
   -2.3850   -1.3788   -1.0241 O   0  0  0  0  0  0  0  0  0  0  0  0
   -0.1172    1.1491   -2.1194 O   0  0  0  0  0  0  0  0  0  0  0  0
   -0.3587   -1.1536    0.7086 O   0  0  0  0  0  0  0  0  0  0  0  0
   -0.5111    1.2213    0.7706 C   0  0  0  0  0  0  0  0  0  0  0  0
   -0.7378    2.2959    0.2326 O   0  0  0  0  0  0  0  0  0  0  0  0
   -0.5323    1.0979    2.1415 N   0  0  0  0  0  0  0  0  0  0  0  0
   -1.2204    2.0770    2.8579 O   0  0  0  0  0  0  0  0  0  0  0  0
   -2.5204   -0.8353   -3.5038 H   0  0  0  0  0  0  0  0  0  0  0  0
   -2.0023    0.8916   -3.4695 H   0  0  0  0  0  0  0  0  0  0  0  0
   -6.0251    1.8022   -3.5835 H   0  0  0  0  0  0  0  0  0  0  0  0
   -5.9234   -1.4367   -4.4358 H   0  0  0  0  0  0  0  0  0  0  0  0
   -3.3559   -1.5494   -1.0003 H   0  0  0  0  0  0  0  0  0  0  0  0
   -0.3250    1.9576   -1.5749 H   0  0  0  0  0  0  0  0  0  0  0  0
   -1.1998   -1.5327    0.3268 H   0  0  0  0  0  0  0  0  0  0  0  0
   -0.6679    0.2264    2.6336 H   0  0  0  0  0  0  0  0  0  0  0  0
   -1.0039    2.9509    2.3949 H   0  0  0  0  0  0  0  0  0  0  0  0
  1  2  1  6  0  0  0
  1 15  1  0  0  0  0
  1 16  1  0  0  0  0
  3  4  1  6  0  0  0
  3  1  1  0  0  0  0
  5  3  1  0  0  0  0
  5 13  1  0  0  0  0
  5  6  1  1  0  0  0
  7  5  1  0  0  0  0
  8  7  1  0  0  0  0
  8  9  1  0  0  0  0
  9 11  1  0  0  0  0
  9 10  2  0  0  0  0
 12  9  1  0  0  0  0
 13 24  1  0  0  0  0
 14 25  1  0  0  0  0
 14  3  1  0  0  0  0
 16 18  1  0  0  0  0
 17 16  2  0  0  0  0
 18 27  1  0  0  0  0
 18 19  1  0  0  0  0
 20  7  1  0  0  0  0
 21  7  1  0  0  0  0
 22 11  1  0  0  0  0
 23 12  1  0  0  0  0
 26 15  1  0  0  0  0
 28 19  1  0  0  0  0
M  END
$$$$
