28

C          0.10770       -0.02280        0.10070
H          1.20790        0.07040        0.03320
C         -0.43860       -0.08630       -1.34160
H          0.18300        0.57800       -1.96120
C         -0.39900       -1.49770       -1.93540
H         -0.66140       -1.40630       -3.00370
C          0.94040       -2.21430       -1.79560
O          2.02870       -1.39630       -2.23880
P          2.39640       -1.08340       -3.76610
O          3.76170       -0.57090       -3.98330
O          1.97780       -2.47480       -4.47250
O          1.22800       -0.07590       -4.28760
O         -1.36500       -2.30600       -1.26490
O         -1.80350        0.28800       -1.41280
O         -0.19500       -1.14470        0.91150
C         -0.41800        1.24890        0.75990
O         -0.63640        2.30430        0.14840
N         -0.64680        1.15200        2.07250
O         -1.21410        2.22430        2.72460
H          0.91840       -3.15890       -2.35700
H          1.13630       -2.42940       -0.73810
H          2.38210       -2.57380       -5.34650
H          1.59120        0.81280       -4.41980
H         -2.20060       -1.81560       -1.34090
H         -1.84340        1.22300       -1.15010
H         -0.80570       -1.71840        0.40850
H         -0.67400        0.26460        2.56290
H         -1.27460        2.88000        1.99590
