28

C         -0.01980        0.02190       -0.07580
H          1.07110        0.11140       -0.18050
C         -0.68300       -0.09600       -1.46950
H         -0.72590        0.89770       -1.93570
C          0.16510       -1.05720       -2.36070
H         -0.55300       -1.76110       -2.81010
C          0.83190       -0.30300       -3.52220
O          1.25460        1.03280       -3.20030
P          2.46330        1.36300       -2.17570
O          2.88660        0.14500       -1.41950
O          3.65980        1.96290       -3.05730
O          1.95130        2.63510       -1.39070
O          1.07630       -1.84550       -1.60970
O         -2.01240       -0.52780       -1.30980
O         -0.35180       -1.12120        0.69050
C         -0.44660        1.28400        0.61720
O         -0.12710        2.41210        0.18490
N         -1.17260        1.16100        1.71920
O         -1.55650        2.27830        2.41970
H          0.10240       -0.16660       -4.33220
H          1.67740       -0.89510       -3.90730
H          3.51250        2.89000       -3.29690
H          1.12330        2.54910       -0.81280
H          1.89010       -1.30370       -1.48630
H         -1.99130       -1.18200       -0.59180
H          0.16990       -1.83570        0.27770
H         -1.41000        0.27050        2.14170
H         -1.19270        3.00050        1.86550
