28

C         -0.22110       -0.04880        0.06470
H          0.86220       -0.25280        0.12210
C         -0.62070       -0.16590       -1.42160
H         -0.41210       -1.20850       -1.71730
C         -2.11570        0.11140       -1.66590
H         -2.29560        1.17810       -1.44510
C         -2.47050       -0.15720       -3.12310
O         -3.88540       -0.03540       -3.37300
P         -4.72920        1.28040       -3.01140
O         -4.15050        2.61890       -3.22010
O         -6.09140        0.99160       -3.80380
O         -5.08200        0.97160       -1.43050
O         -2.88980       -0.70730       -0.79220
O          0.16880        0.67290       -2.22190
O         -0.88230       -1.01140        0.87330
C         -0.42580        1.38920        0.57530
O         -0.55430        2.35100       -0.18670
N         -0.49890        1.52800        1.91350
O         -0.13960        0.54050        2.81610
H         -2.22670       -1.19480       -3.38960
H         -1.91160        0.52940       -3.77350
H         -6.30730        0.04910       -3.86620
H         -5.19790        1.80520       -0.94730
H         -3.79650       -0.35310       -0.79350
H          0.05080        1.56670       -1.84310
H         -1.80090       -1.06160        0.52800
H         -0.57140        2.45490        2.32350
H         -0.54460       -0.27030        2.42540
