28
rmsd203.gzmat
C          0.00000        0.00000        0.00000
H          1.11790        0.00000        0.00000
C         -0.54330        0.00000       -1.45080
H          0.03730       -0.72180       -2.08140
C         -2.05430       -0.30920       -1.53770
H         -2.54160        0.37450       -2.27120
C         -2.32910       -1.79780       -1.85460
O         -1.69150       -2.13610       -3.09180
P         -2.48670       -2.15550       -4.48620
O         -3.08840       -0.94400       -5.00620
O         -1.31690       -2.72450       -5.39630
O         -3.45540       -3.40670       -4.23990
O         -2.66400       -0.14490       -0.26480
O         -0.26260        1.23070       -2.05590
O         -0.34540       -1.17710        0.68100
C         -0.53230        1.18410        0.81650
O         -1.04860        2.17800        0.33030
N         -0.25250        1.12880        2.17080
O         -0.96740        2.00740        2.98590
H         -3.41140       -2.01670       -1.76280
H         -1.78300       -2.47210       -1.15510
H         -0.91790       -3.55860       -4.93940
H         -4.26570       -3.33070       -4.85260
H         -2.81030        0.80510       -0.06620
H         -0.63220        1.97470       -1.51870
H         -1.32970       -1.30380        0.64020
H         -0.17330        0.26370        2.68760
H         -0.86580        2.91430        2.54940
