28

C         -0.02000       -0.01900        0.07710
H          1.08570       -0.03270        0.09210
C         -0.50870       -0.02280       -1.40610
H         -1.46990        0.53240       -1.46300
C          0.47830        0.62230       -2.37770
H          1.45260        0.10950       -2.26270
C          0.01850        0.45410       -3.81610
O          0.93740        1.22500       -4.61110
P          0.78520        1.39290       -6.20150
O          1.77460        2.30190       -6.80850
O          0.76940       -0.15380       -6.65320
O         -0.76320        1.82740       -6.42890
O          0.61380        2.00540       -2.08520
O         -0.66870       -1.35040       -1.82810
O         -0.51640       -1.16860        0.71240
C         -0.53130        1.18280        0.88090
O         -1.25970        0.99390        1.86410
N         -0.16540        2.40640        0.50200
O         -0.72000        3.48530        1.16380
H         -1.00000        0.85280       -3.95030
H          0.04170       -0.60260       -4.11140
H          0.83550       -0.26150       -7.61330
H         -0.81640        2.76690       -6.66010
H          1.11540        2.39910       -2.81600
H         -0.89620       -1.84520       -1.01950
H         -1.07430       -0.82400        1.44380
H          0.21930        2.60460       -0.42790
H         -1.25210        3.04400        1.85840
