28

C          0.25390        0.20410       -0.19700
H          1.20790        0.66060       -0.53290
C         -0.53560       -0.14230       -1.46750
H          0.12630       -0.77520       -2.08630
C         -1.82320       -0.96740       -1.27420
H         -1.53230       -1.99180       -0.98450
C         -2.75410       -0.42970       -0.18820
O         -3.85830       -1.32320        0.06720
P         -5.05050       -1.60470       -0.96170
O         -4.73470       -2.28700       -2.24460
O         -6.05670       -2.44420       -0.04630
O         -5.69800       -0.13300       -1.15340
O         -2.42290       -0.92990       -2.55540
O         -0.83430        1.05590       -2.16800
O          0.47680       -0.96380        0.53820
C         -0.41000        1.23310        0.72710
O         -0.46910        1.02840        1.94660
N         -0.87900        2.35840        0.18180
O         -1.56540        3.24110        0.99360
H         -3.14300        0.56280       -0.46140
H         -2.23140       -0.36770        0.77240
H         -6.11620       -2.11190        0.86200
H         -6.01580       -0.01020       -2.06070
H         -3.16260       -1.57350       -2.62130
H         -1.49150        0.78740       -2.83520
H          0.35630       -0.70110        1.47140
H         -1.06500        2.42070       -0.82090
H         -1.45870        2.82420        1.87450
