rmsd163.gzmat
 OpenBabel08211713423D

 28 27  0  0  1  0  0  0  0  0999 V2000
    0.0000    0.0000    0.0000 C   0  0  2  0  0  0  0  0  0  0  0  0
    1.1230    0.0000    0.0000 H   0  0  0  0  0  0  0  0  0  0  0  0
   -0.5381    0.0000   -1.4538 C   0  0  1  0  0  0  0  0  0  0  0  0
   -0.1814   -0.9137   -1.9836 H   0  0  0  0  0  0  0  0  0  0  0  0
   -2.0808    0.1371   -1.5332 C   0  0  1  0  0  0  0  0  0  0  0  0
   -2.4255    1.1154   -1.1211 H   0  0  0  0  0  0  0  0  0  0  0  0
   -2.5569   -0.0910   -2.9766 C   0  0  0  0  0  0  0  0  0  0  0  0
   -3.9900   -0.0767   -3.0007 O   0  0  0  0  0  0  0  0  0  0  0  0
   -4.8565    1.2229   -3.3758 P   0  0  0  0  0  0  0  0  0  0  0  0
   -4.8133    1.7378   -4.7288 O   0  0  0  0  0  0  0  0  0  0  0  0
   -6.2835    0.6600   -2.9642 O   0  0  0  0  0  0  0  0  0  0  0  0
   -4.4568    2.2070   -2.1782 O   0  0  0  0  0  0  0  0  0  0  0  0
   -2.6033   -0.8721   -0.6847 O   0  0  0  0  0  0  0  0  0  0  0  0
    0.0343    1.0618   -2.1666 O   0  0  0  0  0  0  0  0  0  0  0  0
   -0.3258   -1.1871    0.6615 O   0  0  0  0  0  0  0  0  0  0  0  0
   -0.4848    1.2521    0.7290 C   0  0  0  0  0  0  0  0  0  0  0  0
   -0.4575    2.3353    0.1623 O   0  0  0  0  0  0  0  0  0  0  0  0
   -0.7525    1.2473    2.0935 N   0  0  0  0  0  0  0  0  0  0  0  0
   -1.2749    0.0843    2.6533 O   0  0  0  0  0  0  0  0  0  0  0  0
   -2.3780   -1.1428   -3.3039 H   0  0  0  0  0  0  0  0  0  0  0  0
   -2.0331    0.5849   -3.6834 H   0  0  0  0  0  0  0  0  0  0  0  0
   -6.2184    0.2526   -2.0212 H   0  0  0  0  0  0  0  0  0  0  0  0
   -4.5423    3.1762   -2.4853 H   0  0  0  0  0  0  0  0  0  0  0  0
   -3.5064   -1.1280   -0.9599 H   0  0  0  0  0  0  0  0  0  0  0  0
   -0.0469    1.9063   -1.6445 H   0  0  0  0  0  0  0  0  0  0  0  0
   -1.2860   -1.4035    0.4975 H   0  0  0  0  0  0  0  0  0  0  0  0
   -1.2697    2.0096    2.5169 H   0  0  0  0  0  0  0  0  0  0  0  0
   -0.5346   -0.6041    2.5675 H   0  0  0  0  0  0  0  0  0  0  0  0
  1  2  1  6  0  0  0
  1 15  1  0  0  0  0
  1 16  1  0  0  0  0
  3  4  1  6  0  0  0
  3  1  1  0  0  0  0
  5  3  1  0  0  0  0
  5  6  1  1  0  0  0
  5 13  1  0  0  0  0
  7  5  1  0  0  0  0
  8  7  1  0  0  0  0
  9  8  1  0  0  0  0
  9 11  1  0  0  0  0
  9 12  1  0  0  0  0
 10  9  2  0  0  0  0
 11 22  1  0  0  0  0
 14 25  1  0  0  0  0
 14  3  1  0  0  0  0
 16 18  1  0  0  0  0
 17 16  2  0  0  0  0
 18 27  1  0  0  0  0
 18 19  1  0  0  0  0
 20  7  1  0  0  0  0
 21  7  1  0  0  0  0
 23 12  1  0  0  0  0
 24 13  1  0  0  0  0
 26 15  1  0  0  0  0
 28 19  1  0  0  0  0
M  END
$$$$
