28

C         -0.23530       -0.14500        0.06960
H          0.85610       -0.33560        0.15820
C         -0.59350       -0.13900       -1.42930
H         -1.62050        0.24200       -1.52900
C          0.34250        0.62620       -2.38480
H         -0.06360        0.42580       -3.39060
C          0.42620        2.13730       -2.25170
O          1.21910        2.44750       -1.09480
P          1.12930        3.88120       -0.33270
O          1.82000        3.78410        0.98680
O          1.78460        4.94770       -1.33930
O         -0.39950        4.28050       -0.36100
O          1.63390        0.03630       -2.35370
O         -0.60040       -1.49820       -1.85090
O         -0.97030       -1.14720        0.72750
C         -0.54370        1.18770        0.74940
O         -1.35640        1.99330        0.28020
N          0.19090        1.39870        1.84800
O          0.09510        2.54090        2.58930
H         -0.57660        2.57630       -2.16180
H          0.92920        2.55510       -3.13820
H          2.59950        5.31370       -0.96450
H         -0.95060        3.52570        0.02510
H          2.13680        0.49770       -1.66520
H          0.32870       -1.71610       -2.03890
H         -1.07230       -1.85170        0.06290
H          0.79380        0.67040        2.22180
H          0.78450        3.13500        2.18550
