28
rmsd100.gzmat
C          0.00000        0.00000        0.00000
H          1.11920        0.00000        0.00000
C         -0.58380        0.00000       -1.42830
H         -1.60750        0.44550       -1.45660
C          0.34300        0.65620       -2.47460
H         -0.03810        0.41070       -3.49880
C          0.48100        2.18430       -2.31860
O          1.26740        2.32320       -1.12650
P          1.64400        3.72290       -0.43280
O          2.70720        3.44200        0.50840
O          2.02450        4.72950       -1.60300
O          0.29510        4.34880        0.13320
O          1.58920        0.00180       -2.43820
O         -0.80770       -1.34180       -1.80020
O         -0.35960       -1.14410        0.73390
C         -0.53470        1.19850        0.79270
O         -1.17380        2.09740        0.26920
N         -0.09210        1.25170        2.09490
O         -0.67820        2.21900        2.91100
H         -0.51870        2.65590       -2.23600
H          1.02420        2.60280       -3.19160
H          1.27090        5.42160       -1.70490
H         -0.41630        3.60610        0.24830
H          2.22080        0.48730       -1.85770
H          0.05190       -1.77990       -2.01480
H         -1.00720       -1.69650        0.22530
H          0.10620        0.44610        2.66770
H         -0.23940        3.08110        2.61600
