28

C          0.00840       -0.03000        0.05380
H          1.10590        0.06690        0.02860
C         -0.47810       -0.09230       -1.41140
H          0.08230       -0.89990       -1.90650
C         -1.98560       -0.45750       -1.49510
H         -2.41550        0.11950       -2.33000
C         -2.20620       -1.94240       -1.78120
O         -1.64190       -2.30820       -3.04370
P         -2.48550       -2.04760       -4.39660
O         -3.06580       -0.71090       -4.63170
O         -1.41670       -2.51860       -5.49470
O         -3.59040       -3.23630       -4.29980
O         -2.69150       -0.20740       -0.27790
O         -0.14130        1.08890       -2.09010
O         -0.28980       -1.19320        0.80180
C         -0.54300        1.20260        0.77780
O         -1.06320        2.18910        0.22530
N         -0.44230        1.16510        2.10980
O         -0.99120        2.18780        2.85090
H         -3.28380       -2.16800       -1.75250
H         -1.69690       -2.55960       -1.02750
H         -0.93000       -3.31570       -5.23720
H         -4.41970       -2.95380       -4.71380
H         -2.75390        0.75280       -0.16250
H         -0.52570        1.82230       -1.57700
H         -1.26280       -1.22490        0.83230
H         -0.20340        0.33130        2.63480
H         -1.28670        2.80180        2.14410
