
     RDKit          3D

 28 27  0  0  0  0  0  0  0  0999 V2000
    0.0084   -0.0300    0.0538 C   0  0  2  0  0  0  0  0  0  0  0  0
    1.1059    0.0669    0.0286 H   0  0  0  0  0  0  0  0  0  0  0  0
   -0.4781   -0.0923   -1.4114 C   0  0  1  0  0  0  0  0  0  0  0  0
    0.0823   -0.8999   -1.9065 H   0  0  0  0  0  0  0  0  0  0  0  0
   -1.9856   -0.4575   -1.4951 C   0  0  1  0  0  0  0  0  0  0  0  0
   -2.4155    0.1195   -2.3300 H   0  0  0  0  0  0  0  0  0  0  0  0
   -2.2062   -1.9424   -1.7812 C   0  0  0  0  0  0  0  0  0  0  0  0
   -1.6419   -2.3082   -3.0437 O   0  0  0  0  0  0  0  0  0  0  0  0
   -2.4855   -2.0476   -4.3966 P   0  0  0  0  0  0  0  0  0  0  0  0
   -3.0658   -0.7109   -4.6317 O   0  0  0  0  0  0  0  0  0  0  0  0
   -1.4167   -2.5186   -5.4947 O   0  0  0  0  0  0  0  0  0  0  0  0
   -3.5904   -3.2363   -4.2998 O   0  0  0  0  0  0  0  0  0  0  0  0
   -2.6915   -0.2074   -0.2779 O   0  0  0  0  0  0  0  0  0  0  0  0
   -0.1413    1.0889   -2.0901 O   0  0  0  0  0  0  0  0  0  0  0  0
   -0.2898   -1.1932    0.8018 O   0  0  0  0  0  0  0  0  0  0  0  0
   -0.5430    1.2026    0.7778 C   0  0  0  0  0  0  0  0  0  0  0  0
   -1.0632    2.1891    0.2253 O   0  0  0  0  0  0  0  0  0  0  0  0
   -0.4423    1.1651    2.1098 N   0  0  0  0  0  0  0  0  0  0  0  0
   -0.9912    2.1878    2.8509 O   0  0  0  0  0  0  0  0  0  0  0  0
   -3.2838   -2.1680   -1.7525 H   0  0  0  0  0  0  0  0  0  0  0  0
   -1.6969   -2.5596   -1.0275 H   0  0  0  0  0  0  0  0  0  0  0  0
   -0.9300   -3.3157   -5.2372 H   0  0  0  0  0  0  0  0  0  0  0  0
   -4.4197   -2.9538   -4.7138 H   0  0  0  0  0  0  0  0  0  0  0  0
   -2.7539    0.7528   -0.1625 H   0  0  0  0  0  0  0  0  0  0  0  0
   -0.5257    1.8223   -1.5770 H   0  0  0  0  0  0  0  0  0  0  0  0
   -1.2628   -1.2249    0.8323 H   0  0  0  0  0  0  0  0  0  0  0  0
   -0.2034    0.3313    2.6348 H   0  0  0  0  0  0  0  0  0  0  0  0
   -1.2867    2.8018    2.1441 H   0  0  0  0  0  0  0  0  0  0  0  0
  1  2  1  6
  1  3  1  0
  1 15  1  0
  1 16  1  0
  3  4  1  6
  3  5  1  0
  3 14  1  0
  5  6  1  6
  5  7  1  0
  5 13  1  0
  7  8  1  0
  7 20  1  0
  7 21  1  0
  9  8  1  0
  9 10  2  0
  9 11  1  0
  9 12  1  0
 11 22  1  0
 12 23  1  0
 13 24  1  0
 14 25  1  0
 15 26  1  0
 16 17  2  0
 16 18  1  0
 18 19  1  0
 18 27  1  0
 19 28  1  0
M  END

