
     RDKit          3D

 28 27  0  0  0  0  0  0  0  0999 V2000
   -0.1307    0.0988    0.0717 C   0  0  2  0  0  0  0  0  0  0  0  0
    0.9590    0.2679   -0.0187 H   0  0  0  0  0  0  0  0  0  0  0  0
   -0.7577    0.1470   -1.3602 C   0  0  1  0  0  0  0  0  0  0  0  0
   -1.8024    0.4872   -1.2857 H   0  0  0  0  0  0  0  0  0  0  0  0
   -0.0021    1.0043   -2.3778 C   0  0  1  0  0  0  0  0  0  0  0  0
   -0.5975    0.9866   -3.3087 H   0  0  0  0  0  0  0  0  0  0  0  0
    0.2497    2.4613   -2.0231 C   0  0  0  0  0  0  0  0  0  0  0  0
    1.0056    3.0588   -3.1046 O   0  0  0  0  0  0  0  0  0  0  0  0
    0.2139    3.6478   -4.3832 P   0  0  0  0  0  0  0  0  0  0  0  0
   -0.6361    2.7189   -5.1554 O   0  0  0  0  0  0  0  0  0  0  0  0
   -0.6200    4.8986   -3.7936 O   0  0  0  0  0  0  0  0  0  0  0  0
    1.4717    4.2910   -5.1639 O   0  0  0  0  0  0  0  0  0  0  0  0
    1.2328    0.3268   -2.5832 O   0  0  0  0  0  0  0  0  0  0  0  0
   -0.7882   -1.1784   -1.8682 O   0  0  0  0  0  0  0  0  0  0  0  0
   -0.3972   -1.1529    0.6580 O   0  0  0  0  0  0  0  0  0  0  0  0
   -0.6977    1.1943    0.9580 C   0  0  0  0  0  0  0  0  0  0  0  0
   -0.5383    2.4050    0.7660 O   0  0  0  0  0  0  0  0  0  0  0  0
   -1.4519    0.7577    1.9740 N   0  0  0  0  0  0  0  0  0  0  0  0
   -1.9691    1.6832    2.8523 O   0  0  0  0  0  0  0  0  0  0  0  0
    0.8627    2.5714   -1.1238 H   0  0  0  0  0  0  0  0  0  0  0  0
   -0.6903    3.0068   -1.8553 H   0  0  0  0  0  0  0  0  0  0  0  0
   -0.0695    5.5302   -3.3064 H   0  0  0  0  0  0  0  0  0  0  0  0
    1.3735    4.1581   -6.1187 H   0  0  0  0  0  0  0  0  0  0  0  0
    1.7362    0.8319   -3.2367 H   0  0  0  0  0  0  0  0  0  0  0  0
    0.0677   -1.2988   -2.3183 H   0  0  0  0  0  0  0  0  0  0  0  0
   -0.6038   -1.7378   -0.0962 H   0  0  0  0  0  0  0  0  0  0  0  0
   -1.5251   -0.2167    2.2426 H   0  0  0  0  0  0  0  0  0  0  0  0
   -1.6555    2.5210    2.4460 H   0  0  0  0  0  0  0  0  0  0  0  0
  1  2  1  6
  1  3  1  0
  1 15  1  0
  1 16  1  0
  3  4  1  1
  3  5  1  0
  3 14  1  0
  5  6  1  6
  5  7  1  0
  5 13  1  0
  7  8  1  0
  7 20  1  0
  7 21  1  0
  9  8  1  0
  9 10  2  0
  9 11  1  0
  9 12  1  0
 11 22  1  0
 12 23  1  0
 13 24  1  0
 14 25  1  0
 15 26  1  0
 16 17  2  0
 16 18  1  0
 18 19  1  0
 18 27  1  0
 19 28  1  0
M  END

