27
rmsd13.gzmat
C          0.00000        0.00000        0.00000
C          1.40090        0.00000        0.00000
N          2.12740        0.00000        1.13250
C          1.48480        0.00820        2.31400
C          0.08690        0.01000        2.41310
C         -0.65850       -0.00240        1.23220
C         -2.10990       -0.01000        1.30510
N         -2.88130        0.53510        2.26760
C         -4.19790        0.26930        1.89430
N         -4.24170       -0.43540        0.72570
N         -2.95360       -0.60550        0.35810
H         -2.74490       -1.12720       -0.47270
C         -5.36200        0.69460        2.65210
C         -6.64970        0.39060        2.19170
C         -7.73850        0.82780        2.95600
N         -7.60260        1.52120        4.11000
C         -6.36340        1.80380        4.53820
C         -5.21110        1.41100        3.84040
C         -9.07640        0.55160        2.53060
N        -10.15270        0.32390        2.17420
H         -0.54530        0.02230       -0.93780
H          1.97500        0.00160       -0.93510
H          2.12430        0.01350        3.20600
H         -0.40860        0.02960        3.38490
H         -6.79570       -0.16900        1.26520
H         -6.30200        2.36840        5.47850
H         -4.21560        1.66140        4.21490
