rmsd10.gzmat
 OpenBabel08211713423D

 27 29  0  0  0  0  0  0  0  0999 V2000
    0.0000    0.0000    0.0000 C   0  0  0  0  0  0  0  0  0  0  0  0
    1.4013    0.0000    0.0000 C   0  0  0  0  0  0  0  0  0  0  0  0
    2.1291    0.0000    1.1315 N   0  0  0  0  0  0  0  0  0  0  0  0
    1.4869    0.0029    2.3136 C   0  0  0  0  0  0  0  0  0  0  0  0
    0.0898    0.0020    2.4128 C   0  0  0  0  0  0  0  0  0  0  0  0
   -0.6589   -0.0009    1.2324 C   0  0  0  0  0  0  0  0  0  0  0  0
   -2.1092    0.0125    1.3207 C   0  0  0  0  0  0  0  0  0  0  0  0
   -2.8452    0.4223    2.3750 N   0  0  0  0  0  0  0  0  0  0  0  0
   -4.1765    0.2551    1.9996 C   0  0  0  0  0  0  0  0  0  0  0  0
   -4.2667   -0.2541    0.7360 N   0  0  0  0  0  0  0  0  0  0  0  0
   -2.9917   -0.4012    0.3145 N   0  0  0  0  0  0  0  0  0  0  0  0
   -2.8187   -0.7842   -0.5959 H   0  0  0  0  0  0  0  0  0  0  0  0
   -5.3023    0.5909    2.8548 C   0  0  0  0  0  0  0  0  0  0  0  0
   -6.6104    0.2807    2.4620 C   0  0  0  0  0  0  0  0  0  0  0  0
   -7.6550    0.6383    3.3239 C   0  0  0  0  0  0  0  0  0  0  0  0
   -7.4563    1.2592    4.5095 N   0  0  0  0  0  0  0  0  0  0  0  0
   -6.1976    1.5461    4.8739 C   0  0  0  0  0  0  0  0  0  0  0  0
   -5.0864    1.2313    4.0766 C   0  0  0  0  0  0  0  0  0  0  0  0
   -9.0146    0.3573    2.9750 C   0  0  0  0  0  0  0  0  0  0  0  0
  -10.1102    0.1290    2.6845 N   0  0  0  0  0  0  0  0  0  0  0  0
   -0.5413    0.0172   -0.9397 H   0  0  0  0  0  0  0  0  0  0  0  0
    1.9756    0.0031   -0.9353 H   0  0  0  0  0  0  0  0  0  0  0  0
    2.1259    0.0076    3.2058 H   0  0  0  0  0  0  0  0  0  0  0  0
   -0.4052    0.0124    3.3861 H   0  0  0  0  0  0  0  0  0  0  0  0
   -6.8068   -0.2218    1.5128 H   0  0  0  0  0  0  0  0  0  0  0  0
   -6.0863    2.0496    5.8437 H   0  0  0  0  0  0  0  0  0  0  0  0
   -4.0726    1.4800    4.4014 H   0  0  0  0  0  0  0  0  0  0  0  0
  1  6  2  0  0  0  0
  2  1  1  0  0  0  0
  2  3  2  0  0  0  0
  3  4  2  0  0  0  0
  4  5  1  0  0  0  0
  4 23  1  0  0  0  0
  5 24  1  0  0  0  0
  6  7  1  0  0  0  0
  6  5  1  0  0  0  0
  7  8  2  0  0  0  0
  9  8  2  0  0  0  0
  9 13  1  0  0  0  0
 10  9  2  0  0  0  0
 11 10  1  0  0  0  0
 11  7  1  0  0  0  0
 12 11  1  0  0  0  0
 13 18  2  0  0  0  0
 14 13  1  0  0  0  0
 14 15  1  0  0  0  0
 15 16  2  0  0  0  0
 16 17  2  0  0  0  0
 17 26  1  0  0  0  0
 18 27  1  0  0  0  0
 18 17  1  0  0  0  0
 19 15  1  0  0  0  0
 20 19  3  0  0  0  0
 21  1  1  0  0  0  0
 22  2  1  0  0  0  0
 25 14  1  0  0  0  0
M  RAD  2   5   2  14   2
M  END
$$$$
