27
rmsd1.gzmat
C          0.00000        0.00000        0.00000
C          1.40140        0.00000        0.00000
N          2.12530        0.00000        1.13360
C          1.47990        0.00000        2.31430
C          0.08220       -0.00370        2.41350
C         -0.66050       -0.00260        1.23030
C         -2.11420        0.01910        1.25630
N         -2.92720        0.71540        0.43750
C         -4.22640        0.41740        0.84810
N         -4.21820       -0.45340        1.89890
N         -2.91390       -0.69650        2.15640
H         -2.66770       -1.33890        2.88590
C         -5.41470        0.97390        0.22370
C         -6.68640        0.50100        0.57030
C         -7.79320        1.07140       -0.07130
N         -7.68900        2.05030       -0.99930
C         -6.46430        2.49530       -1.31770
C         -5.29640        1.98620       -0.73070
C         -9.11610        0.62380        0.24050
N        -10.17870        0.25040        0.50330
H         -0.56160        0.01440       -0.93460
H          1.97670        0.00240       -0.93480
H          2.12040        0.00740        3.20570
H         -0.39820        0.01640        3.38700
H         -6.80840       -0.28600        1.31760
H         -6.42870        3.29120       -2.07390
H         -4.31300        2.37050       -1.01280
