rmsd13.gzmat
 OpenBabel08211713423D

 27 29  0  0  0  0  0  0  0  0999 V2000
    0.0000    0.0000    0.0000 C   0  0  0  0  0  0  0  0  0  0  0  0
    1.4009    0.0000    0.0000 C   0  0  0  0  0  0  0  0  0  0  0  0
    2.1274    0.0000    1.1325 N   0  0  0  0  0  0  0  0  0  0  0  0
    1.4848    0.0082    2.3140 C   0  0  0  0  0  0  0  0  0  0  0  0
    0.0869    0.0100    2.4131 C   0  0  0  0  0  0  0  0  0  0  0  0
   -0.6585   -0.0024    1.2322 C   0  0  0  0  0  0  0  0  0  0  0  0
   -2.1099   -0.0100    1.3051 C   0  0  0  0  0  0  0  0  0  0  0  0
   -2.8813    0.5351    2.2676 N   0  0  0  0  0  0  0  0  0  0  0  0
   -4.1979    0.2693    1.8943 C   0  0  0  0  0  0  0  0  0  0  0  0
   -4.2417   -0.4354    0.7257 N   0  0  0  0  0  0  0  0  0  0  0  0
   -2.9536   -0.6055    0.3581 N   0  0  0  0  0  0  0  0  0  0  0  0
   -2.7449   -1.1272   -0.4727 H   0  0  0  0  0  0  0  0  0  0  0  0
   -5.3620    0.6946    2.6521 C   0  0  0  0  0  0  0  0  0  0  0  0
   -6.6497    0.3906    2.1917 C   0  0  0  0  0  0  0  0  0  0  0  0
   -7.7385    0.8278    2.9560 C   0  0  0  0  0  0  0  0  0  0  0  0
   -7.6026    1.5212    4.1100 N   0  0  0  0  0  0  0  0  0  0  0  0
   -6.3634    1.8038    4.5382 C   0  0  0  0  0  0  0  0  0  0  0  0
   -5.2111    1.4110    3.8404 C   0  0  0  0  0  0  0  0  0  0  0  0
   -9.0764    0.5516    2.5306 C   0  0  0  0  0  0  0  0  0  0  0  0
  -10.1527    0.3239    2.1742 N   0  0  0  0  0  0  0  0  0  0  0  0
   -0.5453    0.0223   -0.9378 H   0  0  0  0  0  0  0  0  0  0  0  0
    1.9750    0.0016   -0.9351 H   0  0  0  0  0  0  0  0  0  0  0  0
    2.1243    0.0135    3.2060 H   0  0  0  0  0  0  0  0  0  0  0  0
   -0.4086    0.0296    3.3849 H   0  0  0  0  0  0  0  0  0  0  0  0
   -6.7957   -0.1690    1.2652 H   0  0  0  0  0  0  0  0  0  0  0  0
   -6.3020    2.3684    5.4785 H   0  0  0  0  0  0  0  0  0  0  0  0
   -4.2156    1.6614    4.2149 H   0  0  0  0  0  0  0  0  0  0  0  0
  1  6  1  0  0  0  0
  2  1  1  0  0  0  0
  2  3  2  0  0  0  0
  3  4  2  0  0  0  0
  4  5  1  0  0  0  0
  4 23  1  0  0  0  0
  5 24  1  0  0  0  0
  6  7  1  0  0  0  0
  6  5  2  0  0  0  0
  7  8  2  0  0  0  0
  9  8  2  0  0  0  0
  9 13  1  0  0  0  0
 10  9  2  0  0  0  0
 11 10  1  0  0  0  0
 11  7  1  0  0  0  0
 12 11  1  0  0  0  0
 13 18  2  0  0  0  0
 14 13  1  0  0  0  0
 14 15  1  0  0  0  0
 15 16  2  0  0  0  0
 16 17  2  0  0  0  0
 17 26  1  0  0  0  0
 18 27  1  0  0  0  0
 18 17  1  0  0  0  0
 19 15  1  0  0  0  0
 20 19  3  0  0  0  0
 21  1  1  0  0  0  0
 22  2  1  0  0  0  0
 25 14  1  0  0  0  0
M  RAD  2   1   2  14   2
M  END
$$$$
