rmsd4.gzmat
 OpenBabel08211713423D

 27 29  0  0  0  0  0  0  0  0999 V2000
    0.0000    0.0000    0.0000 C   0  0  0  0  0  0  0  0  0  0  0  0
    1.4011    0.0000    0.0000 C   0  0  0  0  0  0  0  0  0  0  0  0
    2.1261    0.0000    1.1331 N   0  0  0  0  0  0  0  0  0  0  0  0
    1.4795    0.0045    2.3130 C   0  0  0  0  0  0  0  0  0  0  0  0
    0.0820    0.0058    2.4112 C   0  0  0  0  0  0  0  0  0  0  0  0
   -0.6647   -0.0009    1.2293 C   0  0  0  0  0  0  0  0  0  0  0  0
   -2.1180   -0.0089    1.2481 C   0  0  0  0  0  0  0  0  0  0  0  0
   -2.9434    0.2015    0.2007 N   0  0  0  0  0  0  0  0  0  0  0  0
   -4.2371    0.0877    0.7037 C   0  0  0  0  0  0  0  0  0  0  0  0
   -4.2180   -0.1905    2.0407 N   0  0  0  0  0  0  0  0  0  0  0  0
   -2.9114   -0.2493    2.3776 N   0  0  0  0  0  0  0  0  0  0  0  0
   -2.6602   -0.4575    3.3253 H   0  0  0  0  0  0  0  0  0  0  0  0
   -5.4379    0.2441   -0.0996 C   0  0  0  0  0  0  0  0  0  0  0  0
   -5.3318    0.4956   -1.4738 C   0  0  0  0  0  0  0  0  0  0  0  0
   -6.5166    0.6334   -2.2066 C   0  0  0  0  0  0  0  0  0  0  0  0
   -7.7476    0.5382   -1.6514 N   0  0  0  0  0  0  0  0  0  0  0  0
   -7.8327    0.3006   -0.3346 C   0  0  0  0  0  0  0  0  0  0  0  0
   -6.7024    0.1450    0.4831 C   0  0  0  0  0  0  0  0  0  0  0  0
   -6.4722    0.8886   -3.6138 C   0  0  0  0  0  0  0  0  0  0  0  0
   -6.4239    1.0948   -4.7499 N   0  0  0  0  0  0  0  0  0  0  0  0
   -0.5629    0.0047   -0.9365 H   0  0  0  0  0  0  0  0  0  0  0  0
    1.9760   -0.0006   -0.9351 H   0  0  0  0  0  0  0  0  0  0  0  0
    2.1170    0.0076    3.2064 H   0  0  0  0  0  0  0  0  0  0  0  0
   -0.3886    0.0210    3.3877 H   0  0  0  0  0  0  0  0  0  0  0  0
   -4.3505    0.5813   -1.9501 H   0  0  0  0  0  0  0  0  0  0  0  0
   -8.8501    0.2339    0.0736 H   0  0  0  0  0  0  0  0  0  0  0  0
   -6.8132   -0.0488    1.5511 H   0  0  0  0  0  0  0  0  0  0  0  0
  1  2  1  0  0  0  0
  1  6  2  0  0  0  0
  2  3  2  0  0  0  0
  3  4  2  0  0  0  0
  4  5  1  0  0  0  0
  4 23  1  0  0  0  0
  5 24  1  0  0  0  0
  6  7  1  0  0  0  0
  6  5  1  0  0  0  0
  7 11  1  0  0  0  0
  8  9  2  0  0  0  0
  8  7  2  0  0  0  0
  9 10  2  0  0  0  0
 10 11  1  0  0  0  0
 11 12  1  0  0  0  0
 13 18  2  0  0  0  0
 13  9  1  0  0  0  0
 14 13  1  0  0  0  0
 15 16  2  0  0  0  0
 15 14  1  0  0  0  0
 16 17  2  0  0  0  0
 17 26  1  0  0  0  0
 17 18  1  0  0  0  0
 18 27  1  0  0  0  0
 19 15  1  0  0  0  0
 20 19  3  0  0  0  0
 21  1  1  0  0  0  0
 22  2  1  0  0  0  0
 25 14  1  0  0  0  0
M  RAD  2   5   2  14   2
M  END
$$$$
