rmsd12.gzmat
 OpenBabel08211713423D

 27 29  0  0  0  0  0  0  0  0999 V2000
    0.0000    0.0000    0.0000 C   0  0  0  0  0  0  0  0  0  0  0  0
    1.4016    0.0000    0.0000 C   0  0  0  0  0  0  0  0  0  0  0  0
    2.1302    0.0000    1.1310 N   0  0  0  0  0  0  0  0  0  0  0  0
    1.4881    0.0012    2.3131 C   0  0  0  0  0  0  0  0  0  0  0  0
    0.0912   -0.0008    2.4118 C   0  0  0  0  0  0  0  0  0  0  0  0
   -0.6591   -0.0017    1.2322 C   0  0  0  0  0  0  0  0  0  0  0  0
   -2.1092    0.0150    1.3240 C   0  0  0  0  0  0  0  0  0  0  0  0
   -2.8369    0.3717    2.4033 N   0  0  0  0  0  0  0  0  0  0  0  0
   -4.1715    0.2439    2.0245 C   0  0  0  0  0  0  0  0  0  0  0  0
   -4.2725   -0.1921    0.7349 N   0  0  0  0  0  0  0  0  0  0  0  0
   -3.0007   -0.3314    0.3004 N   0  0  0  0  0  0  0  0  0  0  0  0
   -2.8359   -0.6669   -0.6301 H   0  0  0  0  0  0  0  0  0  0  0  0
   -5.2853    0.5489    2.9064 C   0  0  0  0  0  0  0  0  0  0  0  0
   -6.5997    0.5464    2.4241 C   0  0  0  0  0  0  0  0  0  0  0  0
   -7.6259    0.8609    3.3242 C   0  0  0  0  0  0  0  0  0  0  0  0
   -7.4062    1.1557    4.6263 N   0  0  0  0  0  0  0  0  0  0  0  0
   -6.1415    1.1512    5.0736 C   0  0  0  0  0  0  0  0  0  0  0  0
   -5.0473    0.8559    4.2475 C   0  0  0  0  0  0  0  0  0  0  0  0
   -8.9886    0.8881    2.8873 C   0  0  0  0  0  0  0  0  0  0  0  0
  -10.0854    0.9110    2.5231 N   0  0  0  0  0  0  0  0  0  0  0  0
   -0.5409    0.0158   -0.9397 H   0  0  0  0  0  0  0  0  0  0  0  0
    1.9750    0.0043   -0.9358 H   0  0  0  0  0  0  0  0  0  0  0  0
    2.1271    0.0055    3.2056 H   0  0  0  0  0  0  0  0  0  0  0  0
   -0.4044    0.0080    3.3848 H   0  0  0  0  0  0  0  0  0  0  0  0
   -6.8143    0.3080    1.3804 H   0  0  0  0  0  0  0  0  0  0  0  0
   -6.0090    1.3963    6.1360 H   0  0  0  0  0  0  0  0  0  0  0  0
   -4.0281    0.8696    4.6415 H   0  0  0  0  0  0  0  0  0  0  0  0
  1  6  2  0  0  0  0
  2  1  1  0  0  0  0
  2  3  2  0  0  0  0
  3  4  2  0  0  0  0
  4  5  1  0  0  0  0
  4 23  1  0  0  0  0
  5 24  1  0  0  0  0
  6  7  1  0  0  0  0
  6  5  1  0  0  0  0
  7  8  2  0  0  0  0
  9  8  2  0  0  0  0
  9 13  1  0  0  0  0
 10  9  2  0  0  0  0
 11 10  1  0  0  0  0
 11  7  1  0  0  0  0
 12 11  1  0  0  0  0
 13 18  2  0  0  0  0
 14 13  1  0  0  0  0
 14 15  1  0  0  0  0
 15 16  2  0  0  0  0
 16 17  2  0  0  0  0
 17 26  1  0  0  0  0
 18 27  1  0  0  0  0
 18 17  1  0  0  0  0
 19 15  1  0  0  0  0
 20 19  3  0  0  0  0
 21  1  1  0  0  0  0
 22  2  1  0  0  0  0
 25 14  1  0  0  0  0
M  RAD  2   5   2  14   2
M  END
$$$$
