27
rmsd17.gzmat
C          0.00000        0.00000        0.00000
C          1.40090        0.00000        0.00000
N          2.12740        0.00000        1.13250
C          1.48490        0.01010        2.31400
C          0.08670        0.01110        2.41300
C         -0.65940       -0.00240        1.23260
C         -2.11100       -0.01340        1.30570
N         -2.88570        0.52920        2.26670
C         -4.20100        0.25890        1.89300
N         -4.24190       -0.44670        0.72460
N         -2.95240       -0.61220        0.35810
H         -2.74160       -1.13430       -0.47150
C         -5.36610        0.68000        2.65200
C         -5.20660        1.37970        3.85520
C         -6.36200        1.76550        4.54530
N         -7.61360        1.49450        4.10570
C         -7.74950        0.82420        2.95260
C         -6.65220        0.39610        2.18980
C         -6.26550        2.48400        5.77920
N         -6.17790        3.06480        6.77460
H         -0.54400        0.02310       -0.93820
H          1.97590        0.00230       -0.93490
H          2.12540        0.01770        3.20520
H         -0.40920        0.03200        3.38510
H         -4.20780        1.61410        4.23510
H         -8.78130        0.62620        2.63270
H         -6.80360       -0.14690        1.25560
