39
rmsd8.gzmat
Cl         0.00000        0.00000        0.00000
C          1.71200        0.00000        0.00000
C          2.37870        0.00000        1.21970
C          3.76720       -0.00680        1.22360
C          4.46440       -0.01050        0.00040
C          3.76700       -0.00670       -1.22130
C          2.37750       -0.00040       -1.21850
N          5.85200        0.00040        0.00660
C          6.81550       -0.15630       -1.13220
H          6.82630        0.76060       -1.76290
C          6.65070       -1.39200       -1.95460
C          7.09050       -1.37410       -3.28090
C          6.96590       -2.51400       -4.07060
C          6.39460       -3.67120       -3.54360
C          5.94860       -3.68770       -2.22370
C          6.07700       -2.55100       -1.42940
C          7.96850       -0.16460       -0.04110
H          8.57940        0.75540       -0.07300
C          8.84730       -1.40240        0.07220
C          9.87420       -1.41830       -1.06510
C          9.56160       -1.40690        1.42720
C          6.83880       -0.07340        1.01600
O          6.73470       -0.04820        2.20070
H          1.82840        0.00510        2.16220
H          4.31720       -0.00660        2.16630
H          4.31100       -0.01340       -2.16270
H          1.82840        0.00430       -2.16070
H          7.53020       -0.47160       -3.70180
H          7.31180       -2.50020       -5.10230
H          6.29410       -4.55970       -4.16380
H          5.49720       -4.58900       -1.81110
H          5.72030       -2.56810       -0.39870
H          8.21360       -2.32240       -0.00330
H         10.53540       -0.54630       -1.03040
H          9.38590       -1.43240       -2.04650
H         10.50820       -2.31090       -1.00880
H         10.22150       -0.54080        1.54390
H         10.17540       -2.30610        1.54760
H          8.84630       -1.38560        2.26130
