39
rmsd47.gzmat
Cl         0.00000        0.00000        0.00000
C          1.71200        0.00000        0.00000
C          2.37960        0.00000        1.21890
C          3.76810       -0.00360        1.22160
C          4.46520       -0.00740       -0.00200
C          3.76700       -0.00310       -1.22300
C          2.37710        0.00000       -1.21890
N          5.85290       -0.00150        0.00600
C          6.82120       -0.14220       -1.13120
H          6.84840        0.79230       -1.73550
C          6.64900       -1.35040       -1.99200
C          7.09320       -1.29360       -3.31590
C          6.96580       -2.40730       -4.14150
C          6.38940       -3.57880       -3.65250
C          5.93640       -3.63340       -2.33590
C          6.06540       -2.52200       -1.50630
C          7.96710       -0.19570       -0.03360
H          8.59460        0.71310       -0.04130
C          8.82290       -1.45150        0.05710
C          9.86390       -1.45170       -1.06760
C          9.51750       -1.50720        1.42130
C          6.83330       -0.10800        1.01850
O          6.72380       -0.10170        2.20300
H          1.83010        0.00280        2.16190
H          4.31930       -0.00140        2.16360
H          4.30950       -0.00930       -2.16540
H          1.82750        0.00110       -2.16100
H          7.53910       -0.38060       -3.70690
H          7.31490       -2.36200       -5.17150
H          6.29080       -4.44820       -4.29960
H          5.47890       -4.54480       -1.95300
H          5.70020       -2.56880       -0.47950
H          8.17610       -2.35860       -0.05290
H         10.52260       -0.57860       -1.01560
H          9.38630       -1.45480       -2.05460
H         10.49940       -2.34320       -1.01400
H         10.18400       -0.65210        1.57480
H         10.12080       -2.41590        1.52120
H          8.79050       -1.50570        2.24580
