39
rmsd40.gzmat
Cl         0.00000        0.00000        0.00000
C          1.71200        0.00000        0.00000
C          2.37660        0.00000        1.22090
C          3.76490        0.00550        1.22720
C          4.46490        0.01610        0.00530
C          3.76980        0.00840       -1.21740
C          2.38010       -0.00040       -1.21730
N          5.85150        0.04650        0.01800
C          6.82810        0.06880       -1.11890
H          6.76680        1.03560       -1.66780
C          6.78620       -1.09700       -2.05060
C          7.32320       -0.93840       -3.33130
C          7.34260       -2.01310       -4.21590
C          6.81400       -3.24450       -3.83170
C          6.26460       -3.39920       -2.56060
C          6.25170       -2.32840       -1.66940
C          7.97390        0.05700       -0.01910
H          8.52240        1.01430        0.02370
C          8.93140       -1.12630        0.00930
C          9.99930       -0.95730       -1.07740
C          9.59080       -1.22430        1.38850
C          6.83580       -0.00370        1.03040
O          6.72440       -0.05390        2.21370
H          1.82450       -0.00260        2.16230
H          4.31250        0.00530        2.17130
H          4.31540        0.00240       -2.15790
H          1.83310       -0.00680       -2.16090
H          7.72950        0.02290       -3.64130
H          7.77040       -1.89040       -5.20900
H          6.82880       -4.08290       -4.52550
H          5.84470       -4.35830       -2.26120
H          5.81790       -2.45410       -0.67630
H          8.36620       -2.07320       -0.18650
H         10.63120       -0.08150       -0.89650
H          9.55060       -0.84520       -2.07110
H         10.65630       -1.83380       -1.11940
H         10.12580       -0.30620        1.65370
H         10.31260       -2.04760        1.42510
H          8.84840       -1.40440        2.17870
