rmsd42.gzmat
 OpenBabel08211713383D

 39 41  0  0  1  0  0  0  0  0999 V2000
    0.0000    0.0000    0.0000 Cl  0  0  0  0  0  0  0  0  0  0  0  0
    1.7121    0.0000    0.0000 C   0  0  0  0  0  0  0  0  0  0  0  0
    2.3771    0.0000    1.2207 C   0  0  0  0  0  0  0  0  0  0  0  0
    3.7655    0.0089    1.2261 C   0  0  0  0  0  0  0  0  0  0  0  0
    4.4640    0.0215    0.0033 C   0  0  0  0  0  0  0  0  0  0  0  0
    3.7691    0.0119   -1.2196 C   0  0  0  0  0  0  0  0  0  0  0  0
    2.3790    0.0013   -1.2181 C   0  0  0  0  0  0  0  0  0  0  0  0
    5.8504    0.0551    0.0145 N   0  0  0  0  0  0  0  0  0  0  0  0
    6.8242    0.0709   -1.1253 C   0  0  2  0  0  0  0  0  0  0  0  0
    6.7418    1.0226   -1.6979 H   0  0  0  0  0  0  0  0  0  0  0  0
    6.7920   -1.1170   -2.0291 C   0  0  0  0  0  0  0  0  0  0  0  0
    7.2637   -0.9684   -3.3367 C   0  0  0  0  0  0  0  0  0  0  0  0
    7.2693   -2.0583   -4.2030 C   0  0  0  0  0  0  0  0  0  0  0  0
    6.7996   -3.2977   -3.7705 C   0  0  0  0  0  0  0  0  0  0  0  0
    6.3203   -3.4444   -2.4702 C   0  0  0  0  0  0  0  0  0  0  0  0
    6.3160   -2.3565   -1.5999 C   0  0  0  0  0  0  0  0  0  0  0  0
    7.9713    0.1160   -0.0287 C   0  0  2  0  0  0  0  0  0  0  0  0
    8.5003    1.0856   -0.0191 H   0  0  0  0  0  0  0  0  0  0  0  0
    8.9533   -1.0450    0.0428 C   0  0  0  0  0  0  0  0  0  0  0  0
    9.9950   -0.9173   -1.0739 C   0  0  0  0  0  0  0  0  0  0  0  0
    9.6414   -1.0507    1.4118 C   0  0  0  0  0  0  0  0  0  0  0  0
    6.8364    0.0665    1.0256 C   0  0  0  0  0  0  0  0  0  0  0  0
    6.7282    0.0566    2.2104 O   0  0  0  0  0  0  0  0  0  0  0  0
    1.8261   -0.0056    2.1628 H   0  0  0  0  0  0  0  0  0  0  0  0
    4.3148    0.0108    2.1692 H   0  0  0  0  0  0  0  0  0  0  0  0
    4.3145    0.0067   -2.1605 H   0  0  0  0  0  0  0  0  0  0  0  0
    1.8311   -0.0052   -2.1613 H   0  0  0  0  0  0  0  0  0  0  0  0
    7.6286   -0.0028   -3.6829 H   0  0  0  0  0  0  0  0  0  0  0  0
    7.6395   -1.9406   -5.2199 H   0  0  0  0  0  0  0  0  0  0  0  0
    6.8054   -4.1486   -4.4490 H   0  0  0  0  0  0  0  0  0  0  0  0
    5.9468   -4.4105   -2.1324 H   0  0  0  0  0  0  0  0  0  0  0  0
    5.9321   -2.4745   -0.5856 H   0  0  0  0  0  0  0  0  0  0  0  0
    8.4042   -2.0119   -0.0893 H   0  0  0  0  0  0  0  0  0  0  0  0
   10.5688    0.0116   -0.9940 H   0  0  0  0  0  0  0  0  0  0  0  0
    9.5251   -0.9395   -2.0644 H   0  0  0  0  0  0  0  0  0  0  0  0
   10.7109   -1.7468   -1.0396 H   0  0  0  0  0  0  0  0  0  0  0  0
   10.1841   -0.1182    1.6009 H   0  0  0  0  0  0  0  0  0  0  0  0
   10.3623   -1.8716    1.4893 H   0  0  0  0  0  0  0  0  0  0  0  0
    8.9155   -1.1743    2.2281 H   0  0  0  0  0  0  0  0  0  0  0  0
  1  2  1  0  0  0  0
  2  3  2  0  0  0  0
  3  4  1  0  0  0  0
  3 24  1  0  0  0  0
  4 25  1  0  0  0  0
  5  8  1  0  0  0  0
  5  4  2  0  0  0  0
  6  7  2  0  0  0  0
  6  5  1  0  0  0  0
  7  2  1  0  0  0  0
  8 22  1  0  0  0  0
  9 17  1  0  0  0  0
  9  8  1  0  0  0  0
  9 10  1  6  0  0  0
 11 16  1  0  0  0  0
 11  9  1  0  0  0  0
 12 11  2  0  0  0  0
 13 14  2  0  0  0  0
 13 12  1  0  0  0  0
 14 15  1  0  0  0  0
 15 31  1  0  0  0  0
 15 16  2  0  0  0  0
 16 32  1  0  0  0  0
 17 18  1  1  0  0  0
 17 19  1  0  0  0  0
 17 22  1  0  0  0  0
 19 21  1  0  0  0  0
 20 36  1  0  0  0  0
 20 34  1  0  0  0  0
 20 19  1  0  0  0  0
 21 38  1  0  0  0  0
 21 37  1  0  0  0  0
 21 39  1  0  0  0  0
 22 23  2  0  0  0  0
 26  6  1  0  0  0  0
 27  7  1  0  0  0  0
 28 12  1  0  0  0  0
 29 13  1  0  0  0  0
 30 14  1  0  0  0  0
 33 19  1  0  0  0  0
 35 20  1  0  0  0  0
M  END
$$$$
