39
rmsd46.gzmat
Cl         0.00000        0.00000        0.00000
C          1.71230        0.00000        0.00000
C          2.37890        0.00000        1.21960
C          3.76760        0.00470        1.22320
C          4.46570        0.00670        0.00030
C          3.76860        0.00660       -1.22150
C          2.37830        0.00300       -1.21860
N          5.85340        0.01960        0.01070
C          6.82550       -0.09540       -1.12630
H          6.84460        0.84920       -1.71580
C          6.66730       -1.29050       -2.00740
C          7.13430       -1.21510       -3.32260
C          7.01740       -2.31590       -4.16730
C          6.42510       -3.49100       -3.70720
C          5.95040       -3.56410       -2.39920
C          6.07320       -2.46760       -1.54900
C          7.96950       -0.15530       -0.02750
H          8.59330        0.75590       -0.02580
C          8.82990       -1.40900        0.05350
C          9.87280       -1.39510       -1.06930
C          9.52360       -1.47290        1.41800
C          6.83390       -0.08470        1.02380
O          6.72380       -0.08710        2.20840
H          1.82800       -0.00520        2.16160
H          4.31830        0.00890        2.16560
H          4.31200        0.00150       -2.16350
H          1.82900        0.00140       -2.16080
H          7.59010       -0.29830       -3.69250
H          7.38610       -2.25710       -5.18970
H          6.33120       -4.34890       -4.37030
H          5.47940       -4.47810       -2.04020
H          5.69440       -2.52940       -0.52770
H          8.18580       -2.31710       -0.06460
H         10.53330       -0.52440       -1.00080
H          9.39830       -1.38100       -2.05760
H         10.50690       -2.28840       -1.03010
H         10.19290       -0.62070        1.57730
H         10.12370       -2.38440        1.51260
H          8.79630       -1.47360        2.24220
