39

Cl        -0.09330        0.30890       -0.01230
C          1.64970        0.16900       -0.00210
C          2.33520        0.11830        1.21550
C          3.72320        0.00450        1.22930
C          4.43390       -0.05700        0.01630
C          3.73670       -0.00670       -1.20160
C          2.34680        0.10680       -1.21020
N          5.82490       -0.16730        0.02210
C          6.78840       -0.25890       -1.08470
H          6.79770        0.65410       -1.70280
C          6.63740       -1.46870       -1.97080
C          7.00220       -1.39330       -3.32170
C          6.90170       -2.51240       -4.15150
C          6.42380       -3.72140       -3.63890
C          6.04300       -3.80130       -2.29620
C          6.14710       -2.68210       -1.46810
C          7.92720       -0.24840        0.01310
H          8.47310        0.71080       -0.00040
C          8.92750       -1.40030        0.12650
C          9.91340       -1.39450       -1.04540
C          9.66050       -1.32370        1.47170
C          6.77490       -0.19150        1.02810
O          6.67070       -0.17520        2.23040
H          1.77790        0.16810        2.15210
H          4.27240       -0.03590        2.16960
H          4.27830       -0.06670       -2.14600
H          1.80140        0.14440       -2.15410
H          7.37060       -0.44660       -3.72670
H          7.19190       -2.43840       -5.20220
H          6.33960       -4.59710       -4.28650
H          5.65670       -4.73980       -1.89190
H          5.83190       -2.74560       -0.42470
H          8.36160       -2.34690        0.09700
H         10.49340       -0.45600       -1.06000
H          9.40190       -1.49560       -2.01330
H         10.62890       -2.22700       -0.95550
H         10.26450       -0.40250        1.53310
H         10.34450       -2.17910        1.58830
H          8.95620       -1.31700        2.31540
