rmsd41.gzmat
 OpenBabel08211713383D

 39 41  0  0  1  0  0  0  0  0999 V2000
    0.0000    0.0000    0.0000 Cl  0  0  0  0  0  0  0  0  0  0  0  0
    1.7122    0.0000    0.0000 C   0  0  0  0  0  0  0  0  0  0  0  0
    2.3803    0.0000    1.2189 C   0  0  0  0  0  0  0  0  0  0  0  0
    3.7688   -0.0051    1.2211 C   0  0  0  0  0  0  0  0  0  0  0  0
    4.4658   -0.0007   -0.0027 C   0  0  0  0  0  0  0  0  0  0  0  0
    3.7672   -0.0012   -1.2235 C   0  0  0  0  0  0  0  0  0  0  0  0
    2.3773   -0.0021   -1.2189 C   0  0  0  0  0  0  0  0  0  0  0  0
    5.8528    0.0178    0.0075 N   0  0  0  0  0  0  0  0  0  0  0  0
    6.8281   -0.0328   -1.1302 C   0  0  2  0  0  0  0  0  0  0  0  0
    6.8069    0.9211   -1.7037 H   0  0  0  0  0  0  0  0  0  0  0  0
    6.7239   -1.2191   -2.0311 C   0  0  0  0  0  0  0  0  0  0  0  0
    7.2040   -1.1061   -3.3388 C   0  0  0  0  0  0  0  0  0  0  0  0
    7.1421   -2.1983   -4.1999 C   0  0  0  0  0  0  0  0  0  0  0  0
    6.5945   -3.4035   -3.7627 C   0  0  0  0  0  0  0  0  0  0  0  0
    6.1059   -3.5142   -2.4626 C   0  0  0  0  0  0  0  0  0  0  0  0
    6.1707   -2.4246   -1.5970 C   0  0  0  0  0  0  0  0  0  0  0  0
    7.9738   -0.0640   -0.0309 C   0  0  2  0  0  0  0  0  0  0  0  0
    8.5597    0.8718   -0.0107 H   0  0  0  0  0  0  0  0  0  0  0  0
    8.8838   -1.2835    0.0252 C   0  0  0  0  0  0  0  0  0  0  0  0
    9.9357   -1.1986   -1.0863 C   0  0  0  0  0  0  0  0  0  0  0  0
    9.5668   -1.3557    1.3944 C   0  0  0  0  0  0  0  0  0  0  0  0
    6.8354   -0.0586    1.0202 C   0  0  0  0  0  0  0  0  0  0  0  0
    6.7223   -0.0868    2.2043 O   0  0  0  0  0  0  0  0  0  0  0  0
    1.8324    0.0029    2.1625 H   0  0  0  0  0  0  0  0  0  0  0  0
    4.3190   -0.0106    2.1637 H   0  0  0  0  0  0  0  0  0  0  0  0
    4.3089   -0.0092   -2.1662 H   0  0  0  0  0  0  0  0  0  0  0  0
    1.8272   -0.0064   -2.1608 H   0  0  0  0  0  0  0  0  0  0  0  0
    7.6268   -0.1665   -3.6900 H   0  0  0  0  0  0  0  0  0  0  0  0
    7.5198   -2.1088   -5.2169 H   0  0  0  0  0  0  0  0  0  0  0  0
    6.5456   -4.2556   -4.4380 H   0  0  0  0  0  0  0  0  0  0  0  0
    5.6703   -4.4530   -2.1223 H   0  0  0  0  0  0  0  0  0  0  0  0
    5.7793   -2.5142   -0.5827 H   0  0  0  0  0  0  0  0  0  0  0  0
    8.2775   -2.2129   -0.1246 H   0  0  0  0  0  0  0  0  0  0  0  0
   10.5778   -0.3190   -0.9719 H   0  0  0  0  0  0  0  0  0  0  0  0
    9.4703   -1.1513   -2.0781 H   0  0  0  0  0  0  0  0  0  0  0  0
   10.5863   -2.0807   -1.0800 H   0  0  0  0  0  0  0  0  0  0  0  0
   10.1852   -0.4728    1.5888 H   0  0  0  0  0  0  0  0  0  0  0  0
   10.2165   -2.2344    1.4662 H   0  0  0  0  0  0  0  0  0  0  0  0
    8.8331   -1.4254    2.2101 H   0  0  0  0  0  0  0  0  0  0  0  0
  1  2  1  0  0  0  0
  2  3  2  0  0  0  0
  3  4  1  0  0  0  0
  3 24  1  0  0  0  0
  4 25  1  0  0  0  0
  5  8  1  0  0  0  0
  5  4  2  0  0  0  0
  6  7  2  0  0  0  0
  6  5  1  0  0  0  0
  7  2  1  0  0  0  0
  8 22  1  0  0  0  0
  9 17  1  0  0  0  0
  9  8  1  0  0  0  0
  9 10  1  6  0  0  0
 11 16  1  0  0  0  0
 11  9  1  0  0  0  0
 12 11  2  0  0  0  0
 13 14  2  0  0  0  0
 13 12  1  0  0  0  0
 14 15  1  0  0  0  0
 15 31  1  0  0  0  0
 15 16  2  0  0  0  0
 16 32  1  0  0  0  0
 17 18  1  1  0  0  0
 17 19  1  0  0  0  0
 17 22  1  0  0  0  0
 19 21  1  0  0  0  0
 20 36  1  0  0  0  0
 20 34  1  0  0  0  0
 20 19  1  0  0  0  0
 21 38  1  0  0  0  0
 21 37  1  0  0  0  0
 21 39  1  0  0  0  0
 22 23  2  0  0  0  0
 26  6  1  0  0  0  0
 27  7  1  0  0  0  0
 28 12  1  0  0  0  0
 29 13  1  0  0  0  0
 30 14  1  0  0  0  0
 33 19  1  0  0  0  0
 35 20  1  0  0  0  0
M  END
$$$$
