rmsd8.gzmat
 OpenBabel08211713383D

 39 41  0  0  1  0  0  0  0  0999 V2000
    0.0000    0.0000    0.0000 Cl  0  0  0  0  0  0  0  0  0  0  0  0
    1.7120    0.0000    0.0000 C   0  0  0  0  0  0  0  0  0  0  0  0
    2.3787    0.0000    1.2197 C   0  0  0  0  0  0  0  0  0  0  0  0
    3.7672   -0.0068    1.2236 C   0  0  0  0  0  0  0  0  0  0  0  0
    4.4644   -0.0105    0.0004 C   0  0  0  0  0  0  0  0  0  0  0  0
    3.7670   -0.0067   -1.2213 C   0  0  0  0  0  0  0  0  0  0  0  0
    2.3775   -0.0004   -1.2185 C   0  0  0  0  0  0  0  0  0  0  0  0
    5.8520    0.0004    0.0066 N   0  0  0  0  0  0  0  0  0  0  0  0
    6.8155   -0.1563   -1.1322 C   0  0  2  0  0  0  0  0  0  0  0  0
    6.8263    0.7606   -1.7629 H   0  0  0  0  0  0  0  0  0  0  0  0
    6.6507   -1.3920   -1.9546 C   0  0  0  0  0  0  0  0  0  0  0  0
    7.0905   -1.3741   -3.2809 C   0  0  0  0  0  0  0  0  0  0  0  0
    6.9659   -2.5140   -4.0706 C   0  0  0  0  0  0  0  0  0  0  0  0
    6.3946   -3.6712   -3.5436 C   0  0  0  0  0  0  0  0  0  0  0  0
    5.9486   -3.6877   -2.2237 C   0  0  0  0  0  0  0  0  0  0  0  0
    6.0770   -2.5510   -1.4294 C   0  0  0  0  0  0  0  0  0  0  0  0
    7.9685   -0.1646   -0.0411 C   0  0  2  0  0  0  0  0  0  0  0  0
    8.5794    0.7554   -0.0730 H   0  0  0  0  0  0  0  0  0  0  0  0
    8.8473   -1.4024    0.0722 C   0  0  0  0  0  0  0  0  0  0  0  0
    9.8742   -1.4183   -1.0651 C   0  0  0  0  0  0  0  0  0  0  0  0
    9.5616   -1.4069    1.4272 C   0  0  0  0  0  0  0  0  0  0  0  0
    6.8388   -0.0734    1.0160 C   0  0  0  0  0  0  0  0  0  0  0  0
    6.7347   -0.0482    2.2007 O   0  0  0  0  0  0  0  0  0  0  0  0
    1.8284    0.0051    2.1622 H   0  0  0  0  0  0  0  0  0  0  0  0
    4.3172   -0.0066    2.1663 H   0  0  0  0  0  0  0  0  0  0  0  0
    4.3110   -0.0134   -2.1627 H   0  0  0  0  0  0  0  0  0  0  0  0
    1.8284    0.0043   -2.1607 H   0  0  0  0  0  0  0  0  0  0  0  0
    7.5302   -0.4716   -3.7018 H   0  0  0  0  0  0  0  0  0  0  0  0
    7.3118   -2.5002   -5.1023 H   0  0  0  0  0  0  0  0  0  0  0  0
    6.2941   -4.5597   -4.1638 H   0  0  0  0  0  0  0  0  0  0  0  0
    5.4972   -4.5890   -1.8111 H   0  0  0  0  0  0  0  0  0  0  0  0
    5.7203   -2.5681   -0.3987 H   0  0  0  0  0  0  0  0  0  0  0  0
    8.2136   -2.3224   -0.0033 H   0  0  0  0  0  0  0  0  0  0  0  0
   10.5354   -0.5463   -1.0304 H   0  0  0  0  0  0  0  0  0  0  0  0
    9.3859   -1.4324   -2.0465 H   0  0  0  0  0  0  0  0  0  0  0  0
   10.5082   -2.3109   -1.0088 H   0  0  0  0  0  0  0  0  0  0  0  0
   10.2215   -0.5408    1.5439 H   0  0  0  0  0  0  0  0  0  0  0  0
   10.1754   -2.3061    1.5476 H   0  0  0  0  0  0  0  0  0  0  0  0
    8.8463   -1.3856    2.2613 H   0  0  0  0  0  0  0  0  0  0  0  0
  1  2  1  0  0  0  0
  2  3  2  0  0  0  0
  3  4  1  0  0  0  0
  3 24  1  0  0  0  0
  4 25  1  0  0  0  0
  5  8  1  0  0  0  0
  5  4  2  0  0  0  0
  6  7  2  0  0  0  0
  6  5  1  0  0  0  0
  7  2  1  0  0  0  0
  8 22  1  0  0  0  0
  9 17  1  0  0  0  0
  9  8  1  0  0  0  0
  9 10  1  6  0  0  0
 11 16  1  0  0  0  0
 11  9  1  0  0  0  0
 12 11  2  0  0  0  0
 13 14  2  0  0  0  0
 13 12  1  0  0  0  0
 14 15  1  0  0  0  0
 15 31  1  0  0  0  0
 15 16  2  0  0  0  0
 16 32  1  0  0  0  0
 17 18  1  6  0  0  0
 17 19  1  0  0  0  0
 17 22  1  0  0  0  0
 19 21  1  0  0  0  0
 20 34  1  0  0  0  0
 20 36  1  0  0  0  0
 20 19  1  0  0  0  0
 21 37  1  0  0  0  0
 21 38  1  0  0  0  0
 21 39  1  0  0  0  0
 22 23  2  0  0  0  0
 26  6  1  0  0  0  0
 27  7  1  0  0  0  0
 28 12  1  0  0  0  0
 29 13  1  0  0  0  0
 30 14  1  0  0  0  0
 33 19  1  0  0  0  0
 35 20  1  0  0  0  0
M  END
$$$$
