rmsd46.gzmat
 OpenBabel08211713383D

 39 41  0  0  1  0  0  0  0  0999 V2000
    0.0000    0.0000    0.0000 Cl  0  0  0  0  0  0  0  0  0  0  0  0
    1.7123    0.0000    0.0000 C   0  0  0  0  0  0  0  0  0  0  0  0
    2.3789    0.0000    1.2196 C   0  0  0  0  0  0  0  0  0  0  0  0
    3.7676    0.0047    1.2232 C   0  0  0  0  0  0  0  0  0  0  0  0
    4.4657    0.0067    0.0003 C   0  0  0  0  0  0  0  0  0  0  0  0
    3.7686    0.0066   -1.2215 C   0  0  0  0  0  0  0  0  0  0  0  0
    2.3783    0.0030   -1.2186 C   0  0  0  0  0  0  0  0  0  0  0  0
    5.8534    0.0196    0.0107 N   0  0  0  0  0  0  0  0  0  0  0  0
    6.8255   -0.0954   -1.1263 C   0  0  2  0  0  0  0  0  0  0  0  0
    6.8446    0.8492   -1.7158 H   0  0  0  0  0  0  0  0  0  0  0  0
    6.6673   -1.2905   -2.0074 C   0  0  0  0  0  0  0  0  0  0  0  0
    7.1343   -1.2151   -3.3226 C   0  0  0  0  0  0  0  0  0  0  0  0
    7.0174   -2.3159   -4.1673 C   0  0  0  0  0  0  0  0  0  0  0  0
    6.4251   -3.4910   -3.7072 C   0  0  0  0  0  0  0  0  0  0  0  0
    5.9504   -3.5641   -2.3992 C   0  0  0  0  0  0  0  0  0  0  0  0
    6.0732   -2.4676   -1.5490 C   0  0  0  0  0  0  0  0  0  0  0  0
    7.9695   -0.1553   -0.0275 C   0  0  2  0  0  0  0  0  0  0  0  0
    8.5933    0.7559   -0.0258 H   0  0  0  0  0  0  0  0  0  0  0  0
    8.8299   -1.4090    0.0535 C   0  0  0  0  0  0  0  0  0  0  0  0
    9.8728   -1.3951   -1.0693 C   0  0  0  0  0  0  0  0  0  0  0  0
    9.5236   -1.4729    1.4180 C   0  0  0  0  0  0  0  0  0  0  0  0
    6.8339   -0.0847    1.0238 C   0  0  0  0  0  0  0  0  0  0  0  0
    6.7238   -0.0871    2.2084 O   0  0  0  0  0  0  0  0  0  0  0  0
    1.8280   -0.0052    2.1616 H   0  0  0  0  0  0  0  0  0  0  0  0
    4.3183    0.0089    2.1656 H   0  0  0  0  0  0  0  0  0  0  0  0
    4.3120    0.0015   -2.1635 H   0  0  0  0  0  0  0  0  0  0  0  0
    1.8290    0.0014   -2.1608 H   0  0  0  0  0  0  0  0  0  0  0  0
    7.5901   -0.2983   -3.6925 H   0  0  0  0  0  0  0  0  0  0  0  0
    7.3861   -2.2571   -5.1897 H   0  0  0  0  0  0  0  0  0  0  0  0
    6.3312   -4.3489   -4.3703 H   0  0  0  0  0  0  0  0  0  0  0  0
    5.4794   -4.4781   -2.0402 H   0  0  0  0  0  0  0  0  0  0  0  0
    5.6944   -2.5294   -0.5277 H   0  0  0  0  0  0  0  0  0  0  0  0
    8.1858   -2.3171   -0.0646 H   0  0  0  0  0  0  0  0  0  0  0  0
   10.5333   -0.5244   -1.0008 H   0  0  0  0  0  0  0  0  0  0  0  0
    9.3983   -1.3810   -2.0576 H   0  0  0  0  0  0  0  0  0  0  0  0
   10.5069   -2.2884   -1.0301 H   0  0  0  0  0  0  0  0  0  0  0  0
   10.1929   -0.6207    1.5773 H   0  0  0  0  0  0  0  0  0  0  0  0
   10.1237   -2.3844    1.5126 H   0  0  0  0  0  0  0  0  0  0  0  0
    8.7963   -1.4736    2.2422 H   0  0  0  0  0  0  0  0  0  0  0  0
  1  2  1  0  0  0  0
  2  3  2  0  0  0  0
  3  4  1  0  0  0  0
  3 24  1  0  0  0  0
  4 25  1  0  0  0  0
  5  8  1  0  0  0  0
  5  4  2  0  0  0  0
  6  7  2  0  0  0  0
  6  5  1  0  0  0  0
  7  2  1  0  0  0  0
  8 22  1  0  0  0  0
  9 17  1  0  0  0  0
  9  8  1  0  0  0  0
  9 10  1  6  0  0  0
 11 16  1  0  0  0  0
 11  9  1  0  0  0  0
 12 11  2  0  0  0  0
 13 14  2  0  0  0  0
 13 12  1  0  0  0  0
 14 15  1  0  0  0  0
 15 31  1  0  0  0  0
 15 16  2  0  0  0  0
 16 32  1  0  0  0  0
 17 18  1  1  0  0  0
 17 19  1  0  0  0  0
 17 22  1  0  0  0  0
 19 21  1  0  0  0  0
 20 36  1  0  0  0  0
 20 34  1  0  0  0  0
 20 19  1  0  0  0  0
 21 38  1  0  0  0  0
 21 37  1  0  0  0  0
 21 39  1  0  0  0  0
 22 23  2  0  0  0  0
 26  6  1  0  0  0  0
 27  7  1  0  0  0  0
 28 12  1  0  0  0  0
 29 13  1  0  0  0  0
 30 14  1  0  0  0  0
 33 19  1  0  0  0  0
 35 20  1  0  0  0  0
M  END
$$$$
