39
rmsd45.gzmat
Cl         0.00000        0.00000        0.00000
C          1.71210        0.00000        0.00000
C          2.37880        0.00000        1.21980
C          3.76740        0.00490        1.22490
C          4.46500        0.01310        0.00180
C          3.76760        0.00730       -1.22000
C          2.37830        0.00130       -1.21840
N          5.85180        0.04120        0.00860
C          6.81670        0.05700       -1.13900
H          6.75470        1.02450       -1.68630
C          6.73480       -1.10530       -2.07310
C          6.25030       -2.34710       -1.66010
C          6.18530       -3.40600       -2.56300
C          6.60590       -3.22880       -3.87960
C          7.09080       -1.98910       -4.29410
C          7.15310       -0.92770       -3.39500
C          7.97380        0.04320       -0.05270
H          8.52620        0.99950       -0.01740
C          8.92890       -1.14180       -0.03210
C          9.95760       -1.00040       -1.15930
C          9.63740       -1.21170        1.32420
C          6.84670       -0.01250        1.00990
O          6.74840       -0.06310        2.19420
H          1.82850       -0.00200        2.16180
H          4.31680        0.00580        2.16780
H          4.31050       -0.00100       -2.16200
H          1.83130       -0.00260       -2.16210
H          5.91170       -2.48830       -0.63290
H          5.80150       -4.37190       -2.23810
H          6.55150       -4.05630       -4.58450
H          7.41640       -1.84830       -5.32300
H          7.52490        0.03940       -3.72810
H          8.35510       -2.09050       -0.18750
H         10.61050       -0.13440       -1.00960
H          9.47190       -0.89110       -2.13590
H         10.59910       -1.88740       -1.21570
H         10.20710       -0.30050        1.53550
H         10.33870       -2.05220        1.36150
H          8.92140       -1.34540        2.14700
