rmsd39.gzmat
 OpenBabel08211713373D

 40 42  0  0  0  0  0  0  0  0999 V2000
    0.0000    0.0000    0.0000 F   0  0  0  0  0  0  0  0  0  0  0  0
    1.3205    0.0000    0.0000 C   0  0  0  0  0  0  0  0  0  0  0  0
    1.9384    0.0000    1.3233 C   0  0  0  0  0  0  0  0  0  0  0  0
    1.3958    0.0081    2.3966 O   0  0  0  0  0  0  0  0  0  0  0  0
    3.3585   -0.0109    1.2776 N   0  0  0  0  0  0  0  0  0  0  0  0
    3.8718   -0.0029    2.1662 H   0  0  0  0  0  0  0  0  0  0  0  0
    4.1274   -0.0104    0.1130 C   0  0  0  0  0  0  0  0  0  0  0  0
    5.3352    0.0069    0.1552 O   0  0  0  0  0  0  0  0  0  0  0  0
    3.4177   -0.0406   -1.1236 N   0  0  0  0  0  0  0  0  0  0  0  0
    2.0197   -0.0010   -1.1591 C   0  0  0  0  0  0  0  0  0  0  0  0
    4.1417    0.0523   -2.3473 C   0  0  0  0  0  0  0  0  0  0  0  0
    3.4522    0.6274   -3.3669 N   0  0  0  0  0  0  0  0  0  0  0  0
    4.0701    0.7276   -4.5680 C   0  0  0  0  0  0  0  0  0  0  0  0
    5.3418    0.3187   -4.7975 N   0  0  0  0  0  0  0  0  0  0  0  0
    6.0223   -0.2600   -3.7853 C   0  0  0  0  0  0  0  0  0  0  0  0
    5.4428   -0.4309   -2.5137 C   0  0  0  0  0  0  0  0  0  0  0  0
    7.4118   -0.7109   -4.0644 C   0  0  0  0  0  0  0  0  0  0  0  0
    3.2859    1.3101   -5.7118 C   0  0  0  0  0  0  0  0  0  0  0  0
    2.4767    0.2117   -6.3352 C   0  0  0  0  0  0  0  0  0  0  0  0
    1.2507   -0.1552   -5.7658 C   0  0  0  0  0  0  0  0  0  0  0  0
    0.5030   -1.1832   -6.3164 C   0  0  0  0  0  0  0  0  0  0  0  0
    0.9974   -1.8440   -7.4541 C   0  0  0  0  0  0  0  0  0  0  0  0
    0.1610   -2.8184   -7.8991 O   0  0  0  0  0  0  0  0  0  0  0  0
    0.5966   -3.5963   -9.0053 C   0  0  0  0  0  0  0  0  0  0  0  0
    2.2179   -1.4957   -8.0306 C   0  0  0  0  0  0  0  0  0  0  0  0
    2.9557   -0.4609   -7.4573 C   0  0  0  0  0  0  0  0  0  0  0  0
    1.5448    0.0145   -2.1576 H   0  0  0  0  0  0  0  0  0  0  0  0
    6.0019   -0.9084   -1.7102 H   0  0  0  0  0  0  0  0  0  0  0  0
    7.5668   -1.7596   -3.7670 H   0  0  0  0  0  0  0  0  0  0  0  0
    8.1447   -0.0988   -3.5125 H   0  0  0  0  0  0  0  0  0  0  0  0
    7.6674   -0.6304   -5.1355 H   0  0  0  0  0  0  0  0  0  0  0  0
    3.9777    1.7751   -6.4512 H   0  0  0  0  0  0  0  0  0  0  0  0
    2.6299    2.1355   -5.3512 H   0  0  0  0  0  0  0  0  0  0  0  0
    0.8912    0.3668   -4.8772 H   0  0  0  0  0  0  0  0  0  0  0  0
   -0.4485   -1.4876   -5.8881 H   0  0  0  0  0  0  0  0  0  0  0  0
   -0.2446   -4.2887   -9.1461 H   0  0  0  0  0  0  0  0  0  0  0  0
    1.5092   -4.1474   -8.7588 H   0  0  0  0  0  0  0  0  0  0  0  0
    0.7308   -2.9747   -9.8952 H   0  0  0  0  0  0  0  0  0  0  0  0
    2.5998   -2.0097   -8.9052 H   0  0  0  0  0  0  0  0  0  0  0  0
    3.9183   -0.1837   -7.8890 H   0  0  0  0  0  0  0  0  0  0  0  0
  1  2  1  0  0  0  0
  2  3  1  0  0  0  0
  3  4  2  0  0  0  0
  5  3  1  0  0  0  0
  5  6  1  0  0  0  0
  7  8  2  0  0  0  0
  7  5  1  0  0  0  0
  9  7  1  0  0  0  0
 10  9  1  0  0  0  0
 10  2  2  0  0  0  0
 11  9  1  0  0  0  0
 12 11  2  0  0  0  0
 13 12  2  0  0  0  0
 14 13  2  0  0  0  0
 14 15  2  0  0  0  0
 15 16  1  0  0  0  0
 16 11  1  0  0  0  0
 16 28  1  0  0  0  0
 17 15  1  0  0  0  0
 17 29  1  0  0  0  0
 17 30  1  0  0  0  0
 18 33  1  0  0  0  0
 18 13  1  0  0  0  0
 19 20  2  0  0  0  0
 19 18  1  0  0  0  0
 20 34  1  0  0  0  0
 21 35  1  0  0  0  0
 21 20  1  0  0  0  0
 22 21  2  0  0  0  0
 23 22  1  0  0  0  0
 24 37  1  0  0  0  0
 24 23  1  0  0  0  0
 25 26  2  0  0  0  0
 25 22  1  0  0  0  0
 26 19  1  0  0  0  0
 27 10  1  0  0  0  0
 31 17  1  0  0  0  0
 32 18  1  0  0  0  0
 36 24  1  0  0  0  0
 38 24  1  0  0  0  0
 39 25  1  0  0  0  0
 40 26  1  0  0  0  0
M  RAD  1  16   2
M  END
$$$$
