40
rmsd212.gzmat
F          0.00000        0.00000        0.00000
C          1.32040        0.00000        0.00000
C          1.93830        0.00000        1.32330
O          1.39610       -0.00020        2.39670
N          3.35870       -0.00070        1.27790
H          3.87220       -0.01370        2.16620
C          4.12750       -0.00410        0.11320
O          5.33500       -0.03560        0.15450
N          3.41820        0.04160       -1.12290
C          2.01970        0.00340       -1.15920
C          4.14180       -0.01470       -2.34870
N          3.44990       -0.55720       -3.38450
C          4.05750       -0.60280       -4.59310
N          5.32530       -0.17670       -4.81620
C          6.01180        0.36000       -3.78530
C          5.44100        0.47750       -2.50410
C          7.39570        0.83230       -4.05740
C          3.26240       -1.12470       -5.75860
C          2.43590        0.00840       -6.29120
C          1.08980        0.12530       -5.92660
C          0.33250        1.19250       -6.38350
C          0.94180        2.14830       -7.21340
O          0.08800        3.13670       -7.58970
C          0.62250        4.19340       -8.37450
C          2.28160        2.04680       -7.58710
C          3.02400        0.96600       -7.11690
H          1.54440       -0.00970       -2.15820
H          6.00460        0.92420       -1.68660
H          8.12940        0.30630       -3.42530
H          7.49970        1.91010       -3.85650
H          7.69200        0.66590       -5.10810
H          2.62690       -1.98160       -5.44110
H          3.94430       -1.52650       -6.54310
H          0.63820       -0.62080       -5.27140
H         -0.71340        1.30520       -6.11110
H         -0.25130        4.84650       -8.50820
H          0.97420        3.82230       -9.34190
H          1.41430        4.72020       -7.83320
H          2.75050        2.78640       -8.22610
H          4.07820        0.87490       -7.38630
