40
rmsd19.gzmat
F          0.00000        0.00000        0.00000
C          1.32040        0.00000        0.00000
C          1.93890        0.00000        1.32280
O          1.39740       -0.00280        2.39670
N          3.35890        0.00480        1.27550
H          3.87290        0.01680        2.16390
C          4.12670        0.01370        0.10980
O          5.33390        0.05150        0.15190
N          3.41670       -0.03210       -1.12620
C          2.01860        0.00180       -1.15970
C          4.13800        0.03410       -2.35320
N          3.43470        0.56160       -3.39010
C          4.04510        0.62790       -4.59600
N          5.32390        0.23380       -4.81650
C          6.01670       -0.29970       -3.78880
C          5.44570       -0.43420       -2.50890
C          7.40560       -0.75340       -4.06540
C          3.24370        1.13530       -5.76330
C          2.63590       -0.05160       -6.45130
C          1.30360       -0.38870       -6.22800
C          0.74480       -1.50910       -6.84240
C          1.54670       -2.27890       -7.68310
O          1.15220       -3.39260       -8.35490
C         -0.19550       -3.81020       -8.18860
C          2.89510       -1.95680       -7.91620
C          3.43050       -0.84220       -7.29310
H          1.54090        0.01610       -2.15740
H          6.01600       -0.87650       -1.69310
H          7.51420       -1.83560       -3.88990
H          8.13360       -0.23930       -3.41780
H          7.70490       -0.56170       -5.11120
H          3.90030        1.70610       -6.45970
H          2.46610        1.85420       -5.42060
H          0.69030        0.21950       -5.56240
H         -0.29110       -1.76520       -6.65600
H         -0.24620       -4.69390       -8.83980
H         -0.89180       -3.04040       -8.53530
H         -0.39070       -4.09030       -7.14870
H          3.49320       -2.58390       -8.57230
H          4.48150       -0.58240       -7.44270
