
     RDKit          3D

 40 42  0  0  0  0  0  0  0  0999 V2000
    0.0618   -0.6106   -0.0520 F   0  0  0  0  0  0  0  0  0  0  0  0
    1.3570   -0.3155    0.0056 C   0  0  0  0  0  0  0  0  0  0  0  0
    1.9060    0.0116    1.3225 C   0  0  0  0  0  0  0  0  0  0  0  0
    1.3057    0.0406    2.3718 O   0  0  0  0  0  0  0  0  0  0  0  0
    3.2747    0.3053    1.2347 N   0  0  0  0  0  0  0  0  0  0  0  0
    3.7321    0.5402    2.1126 H   0  0  0  0  0  0  0  0  0  0  0  0
    4.1194    0.3197    0.1367 C   0  0  0  0  0  0  0  0  0  0  0  0
    5.2947    0.5900    0.2514 O   0  0  0  0  0  0  0  0  0  0  0  0
    3.4830   -0.0055   -1.0803 N   0  0  0  0  0  0  0  0  0  0  0  0
    2.1221   -0.3165   -1.1000 C   0  0  0  0  0  0  0  0  0  0  0  0
    4.1893   -0.0557   -2.3260 C   0  0  0  0  0  0  0  0  0  0  0  0
    3.4919   -0.5552   -3.3410 N   0  0  0  0  0  0  0  0  0  0  0  0
    4.0757   -0.6162   -4.5419 C   0  0  0  0  0  0  0  0  0  0  0  0
    5.3199   -0.2194   -4.8070 N   0  0  0  0  0  0  0  0  0  0  0  0
    6.0331    0.2873   -3.7895 C   0  0  0  0  0  0  0  0  0  0  0  0
    5.5048    0.3962   -2.4982 C   0  0  0  0  0  0  0  0  0  0  0  0
    7.4316    0.7365   -4.1008 C   0  0  0  0  0  0  0  0  0  0  0  0
    3.2321   -1.1098   -5.6923 C   0  0  0  0  0  0  0  0  0  0  0  0
    2.3998    0.0268   -6.2539 C   0  0  0  0  0  0  0  0  0  0  0  0
    1.0379    0.1562   -5.9400 C   0  0  0  0  0  0  0  0  0  0  0  0
    0.2886    1.2278   -6.4145 C   0  0  0  0  0  0  0  0  0  0  0  0
    0.8901    2.2103   -7.2176 C   0  0  0  0  0  0  0  0  0  0  0  0
    0.0842    3.2182   -7.6376 O   0  0  0  0  0  0  0  0  0  0  0  0
    0.6281    4.2342   -8.4465 C   0  0  0  0  0  0  0  0  0  0  0  0
    2.2526    2.0990   -7.5340 C   0  0  0  0  0  0  0  0  0  0  0  0
    2.9901    1.0151   -7.0484 C   0  0  0  0  0  0  0  0  0  0  0  0
    1.7302   -0.5639   -2.0845 H   0  0  0  0  0  0  0  0  0  0  0  0
    6.0827    0.8007   -1.6757 H   0  0  0  0  0  0  0  0  0  0  0  0
    8.0124   -0.1091   -4.5019 H   0  0  0  0  0  0  0  0  0  0  0  0
    7.9433    1.1390   -3.2166 H   0  0  0  0  0  0  0  0  0  0  0  0
    7.4081    1.5060   -4.8885 H   0  0  0  0  0  0  0  0  0  0  0  0
    2.5751   -1.9140   -5.3335 H   0  0  0  0  0  0  0  0  0  0  0  0
    3.9050   -1.5116   -6.4621 H   0  0  0  0  0  0  0  0  0  0  0  0
    0.5556   -0.5999   -5.3150 H   0  0  0  0  0  0  0  0  0  0  0  0
   -0.7723    1.3296   -6.1789 H   0  0  0  0  0  0  0  0  0  0  0  0
   -0.1897    4.9337   -8.6651 H   0  0  0  0  0  0  0  0  0  0  0  0
    1.0221    3.8351   -9.3987 H   0  0  0  0  0  0  0  0  0  0  0  0
    1.4386    4.7808   -7.9310 H   0  0  0  0  0  0  0  0  0  0  0  0
    2.7479    2.8454   -8.1544 H   0  0  0  0  0  0  0  0  0  0  0  0
    4.0545    0.9428   -7.2860 H   0  0  0  0  0  0  0  0  0  0  0  0
  1  2  1  0
  2  3  1  0
  2 10  2  0
  3  4  2  0
  3  5  1  0
  5  6  1  0
  5  7  1  0
  7  8  2  0
  7  9  1  0
  9 10  1  0
  9 11  1  0
 10 27  1  0
 11 12  2  0
 11 16  1  0
 12 13  1  0
 13 14  2  0
 13 18  1  0
 14 15  1  0
 15 16  2  0
 15 17  1  0
 16 28  1  0
 17 29  1  0
 17 30  1  0
 17 31  1  0
 18 19  1  0
 18 32  1  0
 18 33  1  0
 19 20  2  0
 19 26  1  0
 20 21  1  0
 20 34  1  0
 21 22  2  0
 21 35  1  0
 22 23  1  0
 22 25  1  0
 23 24  1  0
 24 36  1  0
 24 37  1  0
 24 38  1  0
 25 26  2  0
 25 39  1  0
 26 40  1  0
M  END

