rmsd137.gzmat
 OpenBabel08211713373D

 40 42  0  0  0  0  0  0  0  0999 V2000
    0.0000    0.0000    0.0000 F   0  0  0  0  0  0  0  0  0  0  0  0
    1.3205    0.0000    0.0000 C   0  0  0  0  0  0  0  0  0  0  0  0
    1.9396    0.0000    1.3228 C   0  0  0  0  0  0  0  0  0  0  0  0
    1.3989   -0.0030    2.3970 O   0  0  0  0  0  0  0  0  0  0  0  0
    3.3596    0.0037    1.2745 N   0  0  0  0  0  0  0  0  0  0  0  0
    3.8744    0.0116    2.1621 H   0  0  0  0  0  0  0  0  0  0  0  0
    4.1271    0.0082    0.1088 C   0  0  0  0  0  0  0  0  0  0  0  0
    5.3345    0.0426    0.1508 O   0  0  0  0  0  0  0  0  0  0  0  0
    3.4168   -0.0389   -1.1270 N   0  0  0  0  0  0  0  0  0  0  0  0
    2.0182   -0.0024   -1.1602 C   0  0  0  0  0  0  0  0  0  0  0  0
    4.1384    0.0301   -2.3534 C   0  0  0  0  0  0  0  0  0  0  0  0
    3.4340    0.5527   -3.3921 N   0  0  0  0  0  0  0  0  0  0  0  0
    4.0487    0.6299   -4.5954 C   0  0  0  0  0  0  0  0  0  0  0  0
    5.3324    0.2499   -4.8124 N   0  0  0  0  0  0  0  0  0  0  0  0
    6.0261   -0.2797   -3.7833 C   0  0  0  0  0  0  0  0  0  0  0  0
    5.4506   -0.4258   -2.5068 C   0  0  0  0  0  0  0  0  0  0  0  0
    7.4243   -0.7102   -4.0503 C   0  0  0  0  0  0  0  0  0  0  0  0
    3.2481    1.1485   -5.7582 C   0  0  0  0  0  0  0  0  0  0  0  0
    2.6760   -0.0259   -6.4955 C   0  0  0  0  0  0  0  0  0  0  0  0
    1.3607   -0.4355   -6.2499 C   0  0  0  0  0  0  0  0  0  0  0  0
    0.8333   -1.5293   -6.9185 C   0  0  0  0  0  0  0  0  0  0  0  0
    1.6422   -2.2134   -7.8407 C   0  0  0  0  0  0  0  0  0  0  0  0
    1.0016   -3.2591   -8.4267 O   0  0  0  0  0  0  0  0  0  0  0  0
    1.7334   -4.0216   -9.3762 C   0  0  0  0  0  0  0  0  0  0  0  0
    2.9576   -1.8232   -8.0922 C   0  0  0  0  0  0  0  0  0  0  0  0
    3.4675   -0.7223   -7.4080 C   0  0  0  0  0  0  0  0  0  0  0  0
    1.5405    0.0113   -2.1582 H   0  0  0  0  0  0  0  0  0  0  0  0
    6.0233   -0.8649   -1.6914 H   0  0  0  0  0  0  0  0  0  0  0  0
    7.5596   -1.7842   -3.8477 H   0  0  0  0  0  0  0  0  0  0  0  0
    8.1397   -0.1625   -3.4154 H   0  0  0  0  0  0  0  0  0  0  0  0
    7.7193   -0.5369   -5.1003 H   0  0  0  0  0  0  0  0  0  0  0  0
    3.8972    1.7600   -6.4264 H   0  0  0  0  0  0  0  0  0  0  0  0
    2.4474    1.8358   -5.4027 H   0  0  0  0  0  0  0  0  0  0  0  0
    0.7502    0.1036   -5.5242 H   0  0  0  0  0  0  0  0  0  0  0  0
   -0.1852   -1.8652   -6.7437 H   0  0  0  0  0  0  0  0  0  0  0  0
    0.9955   -4.7754   -9.6841 H   0  0  0  0  0  0  0  0  0  0  0  0
    2.5988   -4.5020   -8.9094 H   0  0  0  0  0  0  0  0  0  0  0  0
    2.0287   -3.4042  -10.2303 H   0  0  0  0  0  0  0  0  0  0  0  0
    3.5834   -2.3576   -8.7976 H   0  0  0  0  0  0  0  0  0  0  0  0
    4.5004   -0.4098   -7.5769 H   0  0  0  0  0  0  0  0  0  0  0  0
  2  1  1  0  0  0  0
  2  3  1  0  0  0  0
  3  4  2  0  0  0  0
  5  3  1  0  0  0  0
  5  6  1  0  0  0  0
  7  8  2  0  0  0  0
  7  5  1  0  0  0  0
  9  7  1  0  0  0  0
 10  9  1  0  0  0  0
 10  2  2  0  0  0  0
 11  9  1  0  0  0  0
 12 11  2  0  0  0  0
 13 12  2  0  0  0  0
 14 13  2  0  0  0  0
 14 15  2  0  0  0  0
 15 16  1  0  0  0  0
 16 11  1  0  0  0  0
 16 28  1  0  0  0  0
 17 29  1  0  0  0  0
 17 15  1  0  0  0  0
 17 30  1  0  0  0  0
 18 33  1  0  0  0  0
 18 13  1  0  0  0  0
 19 20  1  0  0  0  0
 19 18  1  0  0  0  0
 20 34  1  0  0  0  0
 21 35  1  0  0  0  0
 21 20  2  0  0  0  0
 22 21  1  0  0  0  0
 23 22  1  0  0  0  0
 24 37  1  0  0  0  0
 24 23  1  0  0  0  0
 25 22  2  0  0  0  0
 25 26  1  0  0  0  0
 26 19  2  0  0  0  0
 27 10  1  0  0  0  0
 31 17  1  0  0  0  0
 32 18  1  0  0  0  0
 36 24  1  0  0  0  0
 38 24  1  0  0  0  0
 39 25  1  0  0  0  0
 40 26  1  0  0  0  0
M  RAD  1  16   2
M  END
$$$$
