40
rmsd218.gzmat
F          0.00000        0.00000        0.00000
C          1.32040        0.00000        0.00000
C          1.93800        0.00000        1.32370
O          1.39570       -0.00910        2.39720
N          3.35810        0.01530        1.27840
H          3.87160        0.03340        2.16690
C          4.12620        0.03000        0.11350
O          5.33290        0.08640        0.15420
N          3.41740       -0.03410       -1.12260
C          2.01950        0.00020       -1.15940
C          4.14560        0.02260       -2.34590
N          3.46210        0.56360       -3.38820
C          4.09420        0.63910       -4.58340
N          5.37190        0.23430       -4.78790
C          6.04130       -0.32130       -3.75620
C          5.44860       -0.46330       -2.48760
C          7.42960       -0.78830       -4.01370
C          3.32290        1.19140       -5.75000
C          2.77770        0.04200       -6.54460
C          1.48350       -0.42850       -6.29500
C          0.97440       -1.49270       -7.02240
C          1.77930       -2.08350       -8.01070
O          1.15250       -3.10190       -8.65700
C          1.87880       -3.76940       -9.67890
C          3.07610       -1.63630       -8.26300
C          3.56950       -0.56910       -7.51540
H          1.54520        0.01310       -2.15850
H          6.00030       -0.92040       -1.66760
H          7.48000       -1.88940       -4.02680
H          8.12890       -0.43360       -3.24040
H          7.80930       -0.43920       -4.98980
H          3.98690        1.83040       -6.37690
H          2.50720        1.86210       -5.39530
H          0.87540        0.04150       -5.52090
H         -0.02710       -1.87530       -6.84430
H          1.14770       -4.50800      -10.03660
H          2.75960       -4.27110       -9.26630
H          2.14950       -3.07960      -10.48420
H          3.69990       -2.10020       -9.01820
H          4.58950       -0.21700       -7.68230
