40
rmsd137.gzmat
F          0.00000        0.00000        0.00000
C          1.32050        0.00000        0.00000
C          1.93960        0.00000        1.32280
O          1.39890       -0.00300        2.39700
N          3.35960        0.00370        1.27450
H          3.87440        0.01160        2.16210
C          4.12710        0.00820        0.10880
O          5.33450        0.04260        0.15080
N          3.41680       -0.03890       -1.12700
C          2.01820       -0.00240       -1.16020
C          4.13840        0.03010       -2.35340
N          3.43400        0.55270       -3.39210
C          4.04870        0.62990       -4.59540
N          5.33240        0.24990       -4.81240
C          6.02610       -0.27970       -3.78330
C          5.45060       -0.42580       -2.50680
C          7.42430       -0.71020       -4.05030
C          3.24810        1.14850       -5.75820
C          2.67600       -0.02590       -6.49550
C          1.36070       -0.43550       -6.24990
C          0.83330       -1.52930       -6.91850
C          1.64220       -2.21340       -7.84070
O          1.00160       -3.25910       -8.42670
C          1.73340       -4.02160       -9.37620
C          2.95760       -1.82320       -8.09220
C          3.46750       -0.72230       -7.40800
H          1.54050        0.01130       -2.15820
H          6.02330       -0.86490       -1.69140
H          7.55960       -1.78420       -3.84770
H          8.13970       -0.16250       -3.41540
H          7.71930       -0.53690       -5.10030
H          3.89720        1.76000       -6.42640
H          2.44740        1.83580       -5.40270
H          0.75020        0.10360       -5.52420
H         -0.18520       -1.86520       -6.74370
H          0.99550       -4.77540       -9.68410
H          2.59880       -4.50200       -8.90940
H          2.02870       -3.40420      -10.23030
H          3.58340       -2.35760       -8.79760
H          4.50040       -0.40980       -7.57690
