rmsd212.gzmat
 OpenBabel08211713373D

 40 42  0  0  0  0  0  0  0  0999 V2000
    0.0000    0.0000    0.0000 F   0  0  0  0  0  0  0  0  0  0  0  0
    1.3204    0.0000    0.0000 C   0  0  0  0  0  0  0  0  0  0  0  0
    1.9383    0.0000    1.3233 C   0  0  0  0  0  0  0  0  0  0  0  0
    1.3961   -0.0002    2.3967 O   0  0  0  0  0  0  0  0  0  0  0  0
    3.3587   -0.0007    1.2779 N   0  0  0  0  0  0  0  0  0  0  0  0
    3.8722   -0.0137    2.1662 H   0  0  0  0  0  0  0  0  0  0  0  0
    4.1275   -0.0041    0.1132 C   0  0  0  0  0  0  0  0  0  0  0  0
    5.3350   -0.0356    0.1545 O   0  0  0  0  0  0  0  0  0  0  0  0
    3.4182    0.0416   -1.1229 N   0  0  0  0  0  0  0  0  0  0  0  0
    2.0197    0.0034   -1.1592 C   0  0  0  0  0  0  0  0  0  0  0  0
    4.1418   -0.0147   -2.3487 C   0  0  0  0  0  0  0  0  0  0  0  0
    3.4499   -0.5572   -3.3845 N   0  0  0  0  0  0  0  0  0  0  0  0
    4.0575   -0.6028   -4.5931 C   0  0  0  0  0  0  0  0  0  0  0  0
    5.3253   -0.1767   -4.8162 N   0  0  0  0  0  0  0  0  0  0  0  0
    6.0118    0.3600   -3.7853 C   0  0  0  0  0  0  0  0  0  0  0  0
    5.4410    0.4775   -2.5041 C   0  0  0  0  0  0  0  0  0  0  0  0
    7.3957    0.8323   -4.0574 C   0  0  0  0  0  0  0  0  0  0  0  0
    3.2624   -1.1247   -5.7586 C   0  0  0  0  0  0  0  0  0  0  0  0
    2.4359    0.0084   -6.2912 C   0  0  0  0  0  0  0  0  0  0  0  0
    1.0898    0.1253   -5.9266 C   0  0  0  0  0  0  0  0  0  0  0  0
    0.3325    1.1925   -6.3835 C   0  0  0  0  0  0  0  0  0  0  0  0
    0.9418    2.1483   -7.2134 C   0  0  0  0  0  0  0  0  0  0  0  0
    0.0880    3.1367   -7.5897 O   0  0  0  0  0  0  0  0  0  0  0  0
    0.6225    4.1934   -8.3745 C   0  0  0  0  0  0  0  0  0  0  0  0
    2.2816    2.0468   -7.5871 C   0  0  0  0  0  0  0  0  0  0  0  0
    3.0240    0.9660   -7.1169 C   0  0  0  0  0  0  0  0  0  0  0  0
    1.5444   -0.0097   -2.1582 H   0  0  0  0  0  0  0  0  0  0  0  0
    6.0046    0.9242   -1.6866 H   0  0  0  0  0  0  0  0  0  0  0  0
    8.1294    0.3063   -3.4253 H   0  0  0  0  0  0  0  0  0  0  0  0
    7.4997    1.9101   -3.8565 H   0  0  0  0  0  0  0  0  0  0  0  0
    7.6920    0.6659   -5.1081 H   0  0  0  0  0  0  0  0  0  0  0  0
    2.6269   -1.9816   -5.4411 H   0  0  0  0  0  0  0  0  0  0  0  0
    3.9443   -1.5265   -6.5431 H   0  0  0  0  0  0  0  0  0  0  0  0
    0.6382   -0.6208   -5.2714 H   0  0  0  0  0  0  0  0  0  0  0  0
   -0.7134    1.3052   -6.1111 H   0  0  0  0  0  0  0  0  0  0  0  0
   -0.2513    4.8465   -8.5082 H   0  0  0  0  0  0  0  0  0  0  0  0
    0.9742    3.8223   -9.3419 H   0  0  0  0  0  0  0  0  0  0  0  0
    1.4143    4.7202   -7.8332 H   0  0  0  0  0  0  0  0  0  0  0  0
    2.7505    2.7864   -8.2261 H   0  0  0  0  0  0  0  0  0  0  0  0
    4.0782    0.8749   -7.3863 H   0  0  0  0  0  0  0  0  0  0  0  0
  1  2  1  0  0  0  0
  2  3  1  0  0  0  0
  3  4  2  0  0  0  0
  5  3  1  0  0  0  0
  5  6  1  0  0  0  0
  7  8  2  0  0  0  0
  7  5  1  0  0  0  0
  9  7  1  0  0  0  0
 10  9  1  0  0  0  0
 10  2  2  0  0  0  0
 11  9  1  0  0  0  0
 12 11  2  0  0  0  0
 13 12  2  0  0  0  0
 14 13  2  0  0  0  0
 14 15  2  0  0  0  0
 15 16  1  0  0  0  0
 16 11  1  0  0  0  0
 16 28  1  0  0  0  0
 17 30  1  0  0  0  0
 17 15  1  0  0  0  0
 17 29  1  0  0  0  0
 18 32  1  0  0  0  0
 18 13  1  0  0  0  0
 19 20  1  0  0  0  0
 19 18  1  0  0  0  0
 20 34  1  0  0  0  0
 21 35  1  0  0  0  0
 21 20  2  0  0  0  0
 22 21  1  0  0  0  0
 23 22  1  0  0  0  0
 24 38  1  0  0  0  0
 24 23  1  0  0  0  0
 25 22  2  0  0  0  0
 25 26  1  0  0  0  0
 26 19  2  0  0  0  0
 27 10  1  0  0  0  0
 31 17  1  0  0  0  0
 33 18  1  0  0  0  0
 36 24  1  0  0  0  0
 37 24  1  0  0  0  0
 39 25  1  0  0  0  0
 40 26  1  0  0  0  0
M  RAD  1  16   2
M  END
$$$$
