40
rmsd127.gzmat
F          0.00000        0.00000        0.00000
C          1.32060        0.00000        0.00000
C          1.93900        0.00000        1.32310
O          1.39670       -0.00250        2.39660
N          3.35910        0.00520        1.27700
H          3.87250        0.01950        2.16560
C          4.12760        0.01480        0.11200
O          5.33480        0.05460        0.15280
N          3.41770       -0.03380       -1.12400
C          2.01950        0.00120       -1.15950
C          4.14180        0.04660       -2.34860
N          3.45090        0.60700       -3.37540
C          4.06880        0.69400       -4.57690
N          5.34220        0.28600       -4.80130
C          6.02360       -0.27870       -3.78200
C          5.44380       -0.43560       -2.50840
C          7.41120       -0.73820       -4.05680
C          3.28170        1.25640       -5.72850
C          2.57170        0.12170       -6.40560
C          1.24580       -0.16530       -6.08910
C          0.58770       -1.23170       -6.70020
C          1.28440       -1.99970       -7.63200
O          0.78550       -3.06450       -8.31350
C         -0.56880       -3.41760       -8.07050
C          2.62440       -1.72880       -7.95900
C          3.25930       -0.66630       -7.33750
H          1.54410        0.01580       -2.15800
H          6.00370       -0.90160       -1.69910
H          7.48780       -1.83560       -3.99120
H          8.12770       -0.31390       -3.33540
H          7.75120       -0.45030       -5.06740
H          3.96110        1.78300       -6.43790
H          2.56440        2.02780       -5.36690
H          0.71750        0.44200       -5.35300
H         -0.44280       -1.44810       -6.44330
H         -0.70530       -4.28100       -8.73640
H         -1.24220       -2.60430       -8.35720
H         -0.71550       -3.71290       -7.02710
H          3.13860       -2.35280       -8.68520
H          4.30490       -0.44520       -7.56280
