
     RDKit          3D

 40 42  0  0  0  0  0  0  0  0999 V2000
    0.0540   -1.8770   -2.4279 F   0  0  0  0  0  0  0  0  0  0  0  0
    1.1864   -1.4845   -1.8431 C   0  0  0  0  0  0  0  0  0  0  0  0
    1.2533   -1.5999   -0.3857 C   0  0  0  0  0  0  0  0  0  0  0  0
    0.3870   -2.0131    0.3503 O   0  0  0  0  0  0  0  0  0  0  0  0
    2.4958   -1.1583    0.0944 N   0  0  0  0  0  0  0  0  0  0  0  0
    2.6211   -1.2079    1.1029 H   0  0  0  0  0  0  0  0  0  0  0  0
    3.5920   -0.6556   -0.5885 C   0  0  0  0  0  0  0  0  0  0  0  0
    4.5972   -0.3119   -0.0060 O   0  0  0  0  0  0  0  0  0  0  0  0
    3.4137   -0.5882   -1.9849 N   0  0  0  0  0  0  0  0  0  0  0  0
    2.2139   -1.0078   -2.5666 C   0  0  0  0  0  0  0  0  0  0  0  0
    4.4270   -0.0846   -2.8650 C   0  0  0  0  0  0  0  0  0  0  0  0
    4.0451   -0.0085   -4.1316 N   0  0  0  0  0  0  0  0  0  0  0  0
    4.9103    0.4169   -5.0488 C   0  0  0  0  0  0  0  0  0  0  0  0
    6.1598    0.8009   -4.7886 N   0  0  0  0  0  0  0  0  0  0  0  0
    6.5604    0.7426   -3.5087 C   0  0  0  0  0  0  0  0  0  0  0  0
    5.7193    0.2914   -2.4795 C   0  0  0  0  0  0  0  0  0  0  0  0
    7.9686    1.1795   -3.2218 C   0  0  0  0  0  0  0  0  0  0  0  0
    4.4137    0.4690   -6.4851 C   0  0  0  0  0  0  0  0  0  0  0  0
    3.1976   -0.3986   -6.6882 C   0  0  0  0  0  0  0  0  0  0  0  0
    1.9279    0.0592   -6.3229 C   0  0  0  0  0  0  0  0  0  0  0  0
    0.8211   -0.7927   -6.2873 C   0  0  0  0  0  0  0  0  0  0  0  0
    0.9737   -2.1436   -6.6375 C   0  0  0  0  0  0  0  0  0  0  0  0
   -0.0247   -3.0597   -6.5980 O   0  0  0  0  0  0  0  0  0  0  0  0
   -1.2402   -2.7070   -5.9739 C   0  0  0  0  0  0  0  0  0  0  0  0
    2.2324   -2.6047   -7.0561 C   0  0  0  0  0  0  0  0  0  0  0  0
    3.3245   -1.7421   -7.0716 C   0  0  0  0  0  0  0  0  0  0  0  0
    2.1717   -0.9151   -3.6516 H   0  0  0  0  0  0  0  0  0  0  0  0
    6.0511    0.2378   -1.4488 H   0  0  0  0  0  0  0  0  0  0  0  0
    8.6738    0.5727   -3.8112 H   0  0  0  0  0  0  0  0  0  0  0  0
    8.2196    1.0938   -2.1562 H   0  0  0  0  0  0  0  0  0  0  0  0
    8.1058    2.2242   -3.5430 H   0  0  0  0  0  0  0  0  0  0  0  0
    5.2490    0.1814   -7.1404 H   0  0  0  0  0  0  0  0  0  0  0  0
    4.1904    1.5251   -6.7187 H   0  0  0  0  0  0  0  0  0  0  0  0
    1.8021    1.1008   -6.0156 H   0  0  0  0  0  0  0  0  0  0  0  0
   -0.1467   -0.4002   -5.9766 H   0  0  0  0  0  0  0  0  0  0  0  0
   -1.8623   -3.6117   -5.9651 H   0  0  0  0  0  0  0  0  0  0  0  0
   -1.7747   -1.9144   -6.5281 H   0  0  0  0  0  0  0  0  0  0  0  0
   -1.0747   -2.3698   -4.9353 H   0  0  0  0  0  0  0  0  0  0  0  0
    2.3309   -3.6540   -7.3401 H   0  0  0  0  0  0  0  0  0  0  0  0
    4.3055   -2.1287   -7.3620 H   0  0  0  0  0  0  0  0  0  0  0  0
  1  2  1  0
  2  3  1  0
  2 10  2  0
  3  4  2  0
  3  5  1  0
  5  6  1  0
  5  7  1  0
  7  8  2  0
  7  9  1  0
  9 10  1  0
  9 11  1  0
 10 27  1  0
 11 12  2  0
 11 16  1  0
 12 13  1  0
 13 14  2  0
 13 18  1  0
 14 15  1  0
 15 16  2  0
 15 17  1  0
 16 28  1  0
 17 29  1  0
 17 30  1  0
 17 31  1  0
 18 19  1  0
 18 32  1  0
 18 33  1  0
 19 20  2  0
 19 26  1  0
 20 21  1  0
 20 34  1  0
 21 22  2  0
 21 35  1  0
 22 23  1  0
 22 25  1  0
 23 24  1  0
 24 36  1  0
 24 37  1  0
 24 38  1  0
 25 26  2  0
 25 39  1  0
 26 40  1  0
M  END

