40
rmsd39.gzmat
F          0.00000        0.00000        0.00000
C          1.32050        0.00000        0.00000
C          1.93840        0.00000        1.32330
O          1.39580        0.00810        2.39660
N          3.35850       -0.01090        1.27760
H          3.87180       -0.00290        2.16620
C          4.12740       -0.01040        0.11300
O          5.33520        0.00690        0.15520
N          3.41770       -0.04060       -1.12360
C          2.01970       -0.00100       -1.15910
C          4.14170        0.05230       -2.34730
N          3.45220        0.62740       -3.36690
C          4.07010        0.72760       -4.56800
N          5.34180        0.31870       -4.79750
C          6.02230       -0.26000       -3.78530
C          5.44280       -0.43090       -2.51370
C          7.41180       -0.71090       -4.06440
C          3.28590        1.31010       -5.71180
C          2.47670        0.21170       -6.33520
C          1.25070       -0.15520       -5.76580
C          0.50300       -1.18320       -6.31640
C          0.99740       -1.84400       -7.45410
O          0.16100       -2.81840       -7.89910
C          0.59660       -3.59630       -9.00530
C          2.21790       -1.49570       -8.03060
C          2.95570       -0.46090       -7.45730
H          1.54480        0.01450       -2.15760
H          6.00190       -0.90840       -1.71020
H          7.56680       -1.75960       -3.76700
H          8.14470       -0.09880       -3.51250
H          7.66740       -0.63040       -5.13550
H          3.97770        1.77510       -6.45120
H          2.62990        2.13550       -5.35120
H          0.89120        0.36680       -4.87720
H         -0.44850       -1.48760       -5.88810
H         -0.24460       -4.28870       -9.14610
H          1.50920       -4.14740       -8.75880
H          0.73080       -2.97470       -9.89520
H          2.59980       -2.00970       -8.90520
H          3.91830       -0.18370       -7.88900
