rmsd218.gzmat
 OpenBabel08211713373D

 40 42  0  0  0  0  0  0  0  0999 V2000
    0.0000    0.0000    0.0000 F   0  0  0  0  0  0  0  0  0  0  0  0
    1.3204    0.0000    0.0000 C   0  0  0  0  0  0  0  0  0  0  0  0
    1.9380    0.0000    1.3237 C   0  0  0  0  0  0  0  0  0  0  0  0
    1.3957   -0.0091    2.3972 O   0  0  0  0  0  0  0  0  0  0  0  0
    3.3581    0.0153    1.2784 N   0  0  0  0  0  0  0  0  0  0  0  0
    3.8716    0.0334    2.1669 H   0  0  0  0  0  0  0  0  0  0  0  0
    4.1262    0.0300    0.1135 C   0  0  0  0  0  0  0  0  0  0  0  0
    5.3329    0.0864    0.1542 O   0  0  0  0  0  0  0  0  0  0  0  0
    3.4174   -0.0341   -1.1226 N   0  0  0  0  0  0  0  0  0  0  0  0
    2.0195    0.0002   -1.1594 C   0  0  0  0  0  0  0  0  0  0  0  0
    4.1456    0.0226   -2.3459 C   0  0  0  0  0  0  0  0  0  0  0  0
    3.4621    0.5636   -3.3882 N   0  0  0  0  0  0  0  0  0  0  0  0
    4.0942    0.6391   -4.5834 C   0  0  0  0  0  0  0  0  0  0  0  0
    5.3719    0.2343   -4.7879 N   0  0  0  0  0  0  0  0  0  0  0  0
    6.0413   -0.3213   -3.7562 C   0  0  0  0  0  0  0  0  0  0  0  0
    5.4486   -0.4633   -2.4876 C   0  0  0  0  0  0  0  0  0  0  0  0
    7.4296   -0.7883   -4.0137 C   0  0  0  0  0  0  0  0  0  0  0  0
    3.3229    1.1914   -5.7500 C   0  0  0  0  0  0  0  0  0  0  0  0
    2.7777    0.0420   -6.5446 C   0  0  0  0  0  0  0  0  0  0  0  0
    1.4835   -0.4285   -6.2950 C   0  0  0  0  0  0  0  0  0  0  0  0
    0.9744   -1.4927   -7.0224 C   0  0  0  0  0  0  0  0  0  0  0  0
    1.7793   -2.0835   -8.0107 C   0  0  0  0  0  0  0  0  0  0  0  0
    1.1525   -3.1019   -8.6570 O   0  0  0  0  0  0  0  0  0  0  0  0
    1.8788   -3.7694   -9.6789 C   0  0  0  0  0  0  0  0  0  0  0  0
    3.0761   -1.6363   -8.2630 C   0  0  0  0  0  0  0  0  0  0  0  0
    3.5695   -0.5691   -7.5154 C   0  0  0  0  0  0  0  0  0  0  0  0
    1.5452    0.0131   -2.1585 H   0  0  0  0  0  0  0  0  0  0  0  0
    6.0003   -0.9204   -1.6676 H   0  0  0  0  0  0  0  0  0  0  0  0
    7.4800   -1.8894   -4.0268 H   0  0  0  0  0  0  0  0  0  0  0  0
    8.1289   -0.4336   -3.2404 H   0  0  0  0  0  0  0  0  0  0  0  0
    7.8093   -0.4392   -4.9898 H   0  0  0  0  0  0  0  0  0  0  0  0
    3.9869    1.8304   -6.3769 H   0  0  0  0  0  0  0  0  0  0  0  0
    2.5072    1.8621   -5.3953 H   0  0  0  0  0  0  0  0  0  0  0  0
    0.8754    0.0415   -5.5209 H   0  0  0  0  0  0  0  0  0  0  0  0
   -0.0271   -1.8753   -6.8443 H   0  0  0  0  0  0  0  0  0  0  0  0
    1.1477   -4.5080  -10.0366 H   0  0  0  0  0  0  0  0  0  0  0  0
    2.7596   -4.2711   -9.2663 H   0  0  0  0  0  0  0  0  0  0  0  0
    2.1495   -3.0796  -10.4842 H   0  0  0  0  0  0  0  0  0  0  0  0
    3.6999   -2.1002   -9.0182 H   0  0  0  0  0  0  0  0  0  0  0  0
    4.5895   -0.2170   -7.6823 H   0  0  0  0  0  0  0  0  0  0  0  0
  2  1  1  0  0  0  0
  2  3  1  0  0  0  0
  3  4  2  0  0  0  0
  5  3  1  0  0  0  0
  5  6  1  0  0  0  0
  7  8  2  0  0  0  0
  7  5  1  0  0  0  0
  9  7  1  0  0  0  0
 10  9  1  0  0  0  0
 10  2  2  0  0  0  0
 11  9  1  0  0  0  0
 12 11  2  0  0  0  0
 13 12  2  0  0  0  0
 14 13  2  0  0  0  0
 14 15  2  0  0  0  0
 15 16  1  0  0  0  0
 16 11  1  0  0  0  0
 16 28  1  0  0  0  0
 17 15  1  0  0  0  0
 17 30  1  0  0  0  0
 18 33  1  0  0  0  0
 18 13  1  0  0  0  0
 19 20  1  0  0  0  0
 19 18  1  0  0  0  0
 20 34  1  0  0  0  0
 21 35  1  0  0  0  0
 21 20  2  0  0  0  0
 22 21  1  0  0  0  0
 23 22  1  0  0  0  0
 24 37  1  0  0  0  0
 24 23  1  0  0  0  0
 25 22  2  0  0  0  0
 25 26  1  0  0  0  0
 26 19  2  0  0  0  0
 27 10  1  0  0  0  0
 29 17  1  0  0  0  0
 31 17  1  0  0  0  0
 32 18  1  0  0  0  0
 36 24  1  0  0  0  0
 38 24  1  0  0  0  0
 39 25  1  0  0  0  0
 40 26  1  0  0  0  0
M  RAD  1  16   2
M  END
$$$$
