40

F          0.05400       -1.87700       -2.42790
C          1.18640       -1.48450       -1.84310
C          1.25330       -1.59990       -0.38570
O          0.38700       -2.01310        0.35030
N          2.49580       -1.15830        0.09440
H          2.62110       -1.20790        1.10290
C          3.59200       -0.65560       -0.58850
O          4.59720       -0.31190       -0.00600
N          3.41370       -0.58820       -1.98490
C          2.21390       -1.00780       -2.56660
C          4.42700       -0.08460       -2.86500
N          4.04510       -0.00850       -4.13160
C          4.91030        0.41690       -5.04880
N          6.15980        0.80090       -4.78860
C          6.56040        0.74260       -3.50870
C          5.71930        0.29140       -2.47950
C          7.96860        1.17950       -3.22180
C          4.41370        0.46900       -6.48510
C          3.19760       -0.39860       -6.68820
C          1.92790        0.05920       -6.32290
C          0.82110       -0.79270       -6.28730
C          0.97370       -2.14360       -6.63750
O         -0.02470       -3.05970       -6.59800
C         -1.24020       -2.70700       -5.97390
C          2.23240       -2.60470       -7.05610
C          3.32450       -1.74210       -7.07160
H          2.17170       -0.91510       -3.65160
H          6.05110        0.23780       -1.44880
H          8.67380        0.57270       -3.81120
H          8.21960        1.09380       -2.15620
H          8.10580        2.22420       -3.54300
H          5.24900        0.18140       -7.14040
H          4.19040        1.52510       -6.71870
H          1.80210        1.10080       -6.01560
H         -0.14670       -0.40020       -5.97660
H         -1.86230       -3.61170       -5.96510
H         -1.77470       -1.91440       -6.52810
H         -1.07470       -2.36980       -4.93530
H          2.33090       -3.65400       -7.34010
H          4.30550       -2.12870       -7.36200
