rmsd56.gzmat
 OpenBabel08211713413D

 38 40  0  0  0  0  0  0  0  0999 V2000
    0.0000    0.0000    0.0000 N   0  0  0  0  0  0  0  0  0  0  0  0
    1.3646    0.0000    0.0000 C   0  0  0  0  0  0  0  0  0  0  0  0
    2.1265    0.0000    1.1759 C   0  0  0  0  0  0  0  0  0  0  0  0
    1.4464    0.0144    2.3958 C   0  0  0  0  0  0  0  0  0  0  0  0
    0.0514    0.0267    2.4077 C   0  0  0  0  0  0  0  0  0  0  0  0
   -0.6374    0.0130    1.1847 C   0  0  0  0  0  0  0  0  0  0  0  0
   -2.1300    0.0144    1.1403 C   0  0  0  0  0  0  0  0  0  0  0  0
    2.2113   -0.0039    3.6730 C   0  0  0  0  0  0  0  0  0  0  0  0
    1.8829   -0.0158   -1.3089 N   0  0  0  0  0  0  0  0  0  0  0  0
    3.2369    0.0561   -1.6254 C   0  0  0  0  0  0  0  0  0  0  0  0
    4.0925    0.1566   -0.7703 O   0  0  0  0  0  0  0  0  0  0  0  0
    3.5496   -0.0053   -3.0640 C   0  0  0  0  0  0  0  0  0  0  0  0
    4.8505    0.2207   -3.5214 N   0  0  0  0  0  0  0  0  0  0  0  0
    4.8669    0.0748   -4.8964 C   0  0  0  0  0  0  0  0  0  0  0  0
    5.9220    0.1903   -5.8239 C   0  0  0  0  0  0  0  0  0  0  0  0
    5.6271   -0.0231   -7.1505 C   0  0  0  0  0  0  0  0  0  0  0  0
    4.3133   -0.3444   -7.5802 C   0  0  0  0  0  0  0  0  0  0  0  0
    3.2751   -0.4594   -6.6844 C   0  0  0  0  0  0  0  0  0  0  0  0
    3.5334   -0.2528   -5.3183 C   0  0  0  0  0  0  0  0  0  0  0  0
    2.7235   -0.2981   -4.1494 C   0  0  0  0  0  0  0  0  0  0  0  0
    5.9829    0.5541   -2.6796 C   0  0  0  0  0  0  0  0  0  0  0  0
    3.2152   -0.0120    1.1474 H   0  0  0  0  0  0  0  0  0  0  0  0
   -0.4980    0.0448    3.3408 H   0  0  0  0  0  0  0  0  0  0  0  0
   -2.5112   -0.1572    0.1198 H   0  0  0  0  0  0  0  0  0  0  0  0
   -2.5325    0.9816    1.4764 H   0  0  0  0  0  0  0  0  0  0  0  0
   -2.5518   -0.7691    1.7848 H   0  0  0  0  0  0  0  0  0  0  0  0
    1.6891    0.5250    4.4823 H   0  0  0  0  0  0  0  0  0  0  0  0
    3.2050    0.4577    3.5727 H   0  0  0  0  0  0  0  0  0  0  0  0
    2.3724   -1.0405    4.0118 H   0  0  0  0  0  0  0  0  0  0  0  0
    1.1833   -0.0556   -2.0562 H   0  0  0  0  0  0  0  0  0  0  0  0
    6.9260    0.4351   -5.4955 H   0  0  0  0  0  0  0  0  0  0  0  0
    6.4121    0.0517   -7.9027 H   0  0  0  0  0  0  0  0  0  0  0  0
    4.1414   -0.5015   -8.6430 H   0  0  0  0  0  0  0  0  0  0  0  0
    2.2665   -0.7064   -7.0086 H   0  0  0  0  0  0  0  0  0  0  0  0
    1.6789   -0.5269   -4.1335 H   0  0  0  0  0  0  0  0  0  0  0  0
    6.9067    0.6540   -3.2724 H   0  0  0  0  0  0  0  0  0  0  0  0
    6.1406   -0.2298   -1.9078 H   0  0  0  0  0  0  0  0  0  0  0  0
    5.8014    1.5057   -2.1388 H   0  0  0  0  0  0  0  0  0  0  0  0
  1  2  2  0  0  0  0
  1  6  2  0  0  0  0
  2  3  1  0  0  0  0
  3  4  1  0  0  0  0
  4  5  2  0  0  0  0
  4  8  1  0  0  0  0
  5 23  1  0  0  0  0
  6  5  1  0  0  0  0
  7  6  1  0  0  0  0
  7 25  1  0  0  0  0
  7 26  1  0  0  0  0
  8 29  1  0  0  0  0
  8 27  1  0  0  0  0
  9  2  1  0  0  0  0
 10  9  1  0  0  0  0
 10 11  2  0  0  0  0
 12 10  1  0  0  0  0
 13 12  1  0  0  0  0
 13 21  1  0  0  0  0
 14 13  1  0  0  0  0
 15 31  1  0  0  0  0
 15 14  2  0  0  0  0
 16 15  1  0  0  0  0
 17 16  2  0  0  0  0
 17 18  1  0  0  0  0
 18 19  2  0  0  0  0
 19 14  1  0  0  0  0
 19 20  1  0  0  0  0
 20 35  1  0  0  0  0
 20 12  2  0  0  0  0
 21 38  1  0  0  0  0
 21 37  1  0  0  0  0
 22  3  1  0  0  0  0
 24  7  1  0  0  0  0
 28  8  1  0  0  0  0
 30  9  1  0  0  0  0
 32 16  1  0  0  0  0
 33 17  1  0  0  0  0
 34 18  1  0  0  0  0
 36 21  1  0  0  0  0
M  RAD  1   3   2
M  END
$$$$
