38
rmsd23.gzmat
N          0.00000        0.00000        0.00000
C          1.36480        0.00000        0.00000
C          2.12620        0.00000        1.17570
C          1.44680       -0.01490        2.39650
C          0.05240       -0.01250        2.40880
C         -0.63660       -0.00080        1.18480
C         -2.12920        0.01370        1.14260
C          2.21960       -0.02040        3.66900
N          1.88630       -0.02370       -1.30770
C          3.24020        0.07100       -1.61960
O          4.08880        0.22950       -0.76660
C          3.56350       -0.04560       -3.05260
N          4.82260        0.32510       -3.53130
C          4.86990        0.07230       -4.89010
C          5.90380        0.26550       -5.82830
C          5.65220       -0.09300       -7.13240
C          4.40100       -0.63210       -7.52920
C          3.38180       -0.81870       -6.62320
C          3.59830       -0.47040       -5.27900
C          2.79370       -0.53560       -4.10710
C          5.90190        0.84400       -2.71400
H          3.21500        0.01220        1.14760
H         -0.49830       -0.01720        3.34130
H         -2.51300        0.01460        0.10850
H         -2.53060        0.90940        1.63840
H         -2.55010       -0.86850        1.64600
H          1.62350       -0.35850        4.52740
H          2.58620        0.99190        3.90510
H          3.10370       -0.67370        3.60950
H          1.19100       -0.08510       -2.05740
H          6.85790        0.68180       -5.52500
H          6.42290        0.03580       -7.89230
H          4.26100       -0.89550       -8.57550
H          2.41890       -1.22580       -6.92390
H          1.79300       -0.91030       -4.06590
H          6.77910        1.10560       -3.32820
H          6.20950        0.09450       -1.95320
H          5.57440        1.74680       -2.15890
