rmsd20.gzmat
 OpenBabel08211713413D

 38 40  0  0  0  0  0  0  0  0999 V2000
    0.0000    0.0000    0.0000 N   0  0  0  0  0  0  0  0  0  0  0  0
    1.3645    0.0000    0.0000 C   0  0  0  0  0  0  0  0  0  0  0  0
    2.1271    0.0000    1.1756 C   0  0  0  0  0  0  0  0  0  0  0  0
    1.4470   -0.0063    2.3959 C   0  0  0  0  0  0  0  0  0  0  0  0
    0.0519   -0.0112    2.4078 C   0  0  0  0  0  0  0  0  0  0  0  0
   -0.6373   -0.0060    1.1846 C   0  0  0  0  0  0  0  0  0  0  0  0
   -2.1298   -0.0037    1.1417 C   0  0  0  0  0  0  0  0  0  0  0  0
    2.2082    0.0121    3.6756 C   0  0  0  0  0  0  0  0  0  0  0  0
    1.8833    0.0201   -1.3088 N   0  0  0  0  0  0  0  0  0  0  0  0
    3.2340   -0.0921   -1.6284 C   0  0  0  0  0  0  0  0  0  0  0  0
    4.0884   -0.2474   -0.7809 O   0  0  0  0  0  0  0  0  0  0  0  0
    3.5417   -0.0059   -3.0674 C   0  0  0  0  0  0  0  0  0  0  0  0
    4.7608   -0.4710   -3.5654 N   0  0  0  0  0  0  0  0  0  0  0  0
    4.8042   -0.2253   -4.9261 C   0  0  0  0  0  0  0  0  0  0  0  0
    5.8053   -0.4955   -5.8805 C   0  0  0  0  0  0  0  0  0  0  0  0
    5.5598   -0.1202   -7.1811 C   0  0  0  0  0  0  0  0  0  0  0  0
    4.3472    0.5123   -7.5588 C   0  0  0  0  0  0  0  0  0  0  0  0
    3.3583    0.7729   -6.6375 C   0  0  0  0  0  0  0  0  0  0  0  0
    3.5689    0.4087   -5.2967 C   0  0  0  0  0  0  0  0  0  0  0  0
    2.7911    0.5339   -4.1109 C   0  0  0  0  0  0  0  0  0  0  0  0
    5.8103   -1.0682   -2.7633 C   0  0  0  0  0  0  0  0  0  0  0  0
    3.2161    0.0070    1.1456 H   0  0  0  0  0  0  0  0  0  0  0  0
   -0.4983   -0.0154    3.3408 H   0  0  0  0  0  0  0  0  0  0  0  0
   -2.5124    0.0045    0.1074 H   0  0  0  0  0  0  0  0  0  0  0  0
   -2.5389    0.8830    1.6466 H   0  0  0  0  0  0  0  0  0  0  0  0
   -2.5437   -0.8949    1.6349 H   0  0  0  0  0  0  0  0  0  0  0  0
    1.6934   -0.5392    4.4752 H   0  0  0  0  0  0  0  0  0  0  0  0
    2.3439    1.0467    4.0313 H   0  0  0  0  0  0  0  0  0  0  0  0
    3.2124   -0.4254    3.5730 H   0  0  0  0  0  0  0  0  0  0  0  0
    1.1851    0.0799   -2.0566 H   0  0  0  0  0  0  0  0  0  0  0  0
    6.7316   -0.9790   -5.5919 H   0  0  0  0  0  0  0  0  0  0  0  0
    6.3056   -0.3064   -7.9536 H   0  0  0  0  0  0  0  0  0  0  0  0
    4.2153    0.7917   -8.6019 H   0  0  0  0  0  0  0  0  0  0  0  0
    2.4247    1.2524   -6.9236 H   0  0  0  0  0  0  0  0  0  0  0  0
    1.8197    0.9779   -4.0536 H   0  0  0  0  0  0  0  0  0  0  0  0
    6.6030   -1.4962   -3.3979 H   0  0  0  0  0  0  0  0  0  0  0  0
    5.4009   -1.8736   -2.1189 H   0  0  0  0  0  0  0  0  0  0  0  0
    6.2616   -0.3126   -2.0854 H   0  0  0  0  0  0  0  0  0  0  0  0
  1  2  2  0  0  0  0
  1  6  2  0  0  0  0
  2  3  1  0  0  0  0
  3  4  1  0  0  0  0
  4  5  2  0  0  0  0
  4  8  1  0  0  0  0
  5 23  1  0  0  0  0
  6  5  1  0  0  0  0
  7  6  1  0  0  0  0
  7 26  1  0  0  0  0
  7 25  1  0  0  0  0
  8 28  1  0  0  0  0
  8 27  1  0  0  0  0
  9  2  1  0  0  0  0
 10  9  1  0  0  0  0
 10 11  2  0  0  0  0
 12 10  1  0  0  0  0
 13 12  1  0  0  0  0
 13 21  1  0  0  0  0
 14 13  1  0  0  0  0
 15 31  1  0  0  0  0
 15 14  2  0  0  0  0
 16 15  1  0  0  0  0
 17 16  2  0  0  0  0
 17 18  1  0  0  0  0
 18 19  2  0  0  0  0
 19 14  1  0  0  0  0
 19 20  1  0  0  0  0
 20 35  1  0  0  0  0
 20 12  2  0  0  0  0
 21 37  1  0  0  0  0
 21 38  1  0  0  0  0
 22  3  1  0  0  0  0
 24  7  1  0  0  0  0
 29  8  1  0  0  0  0
 30  9  1  0  0  0  0
 32 16  1  0  0  0  0
 33 17  1  0  0  0  0
 34 18  1  0  0  0  0
 36 21  1  0  0  0  0
M  RAD  1   3   2
M  END
$$$$
