rmsd54.gzmat
 OpenBabel08211713413D

 38 40  0  0  0  0  0  0  0  0999 V2000
    0.0000    0.0000    0.0000 N   0  0  0  0  0  0  0  0  0  0  0  0
    1.3651    0.0000    0.0000 C   0  0  0  0  0  0  0  0  0  0  0  0
    2.1261    0.0000    1.1754 C   0  0  0  0  0  0  0  0  0  0  0  0
    1.4459    0.0030    2.3964 C   0  0  0  0  0  0  0  0  0  0  0  0
    0.0519    0.0103    2.4086 C   0  0  0  0  0  0  0  0  0  0  0  0
   -0.6369    0.0060    1.1843 C   0  0  0  0  0  0  0  0  0  0  0  0
   -2.1292    0.0020    1.1398 C   0  0  0  0  0  0  0  0  0  0  0  0
    2.2231   -0.0069    3.6662 C   0  0  0  0  0  0  0  0  0  0  0  0
    1.8855   -0.0151   -1.3082 N   0  0  0  0  0  0  0  0  0  0  0  0
    3.2383    0.0862   -1.6213 C   0  0  0  0  0  0  0  0  0  0  0  0
    4.0903    0.2191   -0.7673 O   0  0  0  0  0  0  0  0  0  0  0  0
    3.5542    0.0190   -3.0591 C   0  0  0  0  0  0  0  0  0  0  0  0
    4.7985    0.4365   -3.5365 N   0  0  0  0  0  0  0  0  0  0  0  0
    4.8442    0.2151   -4.9012 C   0  0  0  0  0  0  0  0  0  0  0  0
    5.8707    0.4485   -5.8380 C   0  0  0  0  0  0  0  0  0  0  0  0
    5.6189    0.1193   -7.1497 C   0  0  0  0  0  0  0  0  0  0  0  0
    4.3768   -0.4341   -7.5542 C   0  0  0  0  0  0  0  0  0  0  0  0
    3.3672   -0.6664   -6.6483 C   0  0  0  0  0  0  0  0  0  0  0  0
    3.5825   -0.3451   -5.2972 C   0  0  0  0  0  0  0  0  0  0  0  0
    2.7876   -0.4585   -4.1215 C   0  0  0  0  0  0  0  0  0  0  0  0
    5.8766    0.9543   -2.7171 C   0  0  0  0  0  0  0  0  0  0  0  0
    3.2150   -0.0032    1.1488 H   0  0  0  0  0  0  0  0  0  0  0  0
   -0.4994    0.0181    3.3407 H   0  0  0  0  0  0  0  0  0  0  0  0
   -2.5105    0.0766    0.1076 H   0  0  0  0  0  0  0  0  0  0  0  0
   -2.5496    0.8456    1.7047 H   0  0  0  0  0  0  0  0  0  0  0  0
   -2.5333   -0.9268    1.5679 H   0  0  0  0  0  0  0  0  0  0  0  0
    1.5858    0.0207    4.5598 H   0  0  0  0  0  0  0  0  0  0  0  0
    2.9039    0.8571    3.7241 H   0  0  0  0  0  0  0  0  0  0  0  0
    2.8480   -0.9113    3.7414 H   0  0  0  0  0  0  0  0  0  0  0  0
    1.1893   -0.0696   -2.0578 H   0  0  0  0  0  0  0  0  0  0  0  0
    6.8210    0.8678   -5.5278 H   0  0  0  0  0  0  0  0  0  0  0  0
    6.3840    0.2805   -7.9088 H   0  0  0  0  0  0  0  0  0  0  0  0
    4.2378   -0.6753   -8.6060 H   0  0  0  0  0  0  0  0  0  0  0  0
    2.4141   -1.0926   -6.9534 H   0  0  0  0  0  0  0  0  0  0  0  0
    1.7954   -0.8556   -4.0844 H   0  0  0  0  0  0  0  0  0  0  0  0
    6.6501    1.4378   -3.3363 H   0  0  0  0  0  0  0  0  0  0  0  0
    6.3440    0.1390   -2.1271 H   0  0  0  0  0  0  0  0  0  0  0  0
    5.4955    1.7006   -1.9888 H   0  0  0  0  0  0  0  0  0  0  0  0
  1  2  2  0  0  0  0
  1  6  2  0  0  0  0
  2  3  1  0  0  0  0
  3  4  1  0  0  0  0
  4  5  2  0  0  0  0
  4  8  1  0  0  0  0
  5 23  1  0  0  0  0
  6  5  1  0  0  0  0
  7  6  1  0  0  0  0
  7 26  1  0  0  0  0
  7 25  1  0  0  0  0
  8 28  1  0  0  0  0
  8 29  1  0  0  0  0
  8 27  1  0  0  0  0
  9  2  1  0  0  0  0
 10  9  1  0  0  0  0
 10 11  2  0  0  0  0
 12 10  1  0  0  0  0
 13 12  1  0  0  0  0
 13 21  1  0  0  0  0
 14 13  1  0  0  0  0
 15 31  1  0  0  0  0
 15 14  2  0  0  0  0
 16 15  1  0  0  0  0
 17 16  2  0  0  0  0
 17 18  1  0  0  0  0
 18 19  2  0  0  0  0
 19 14  1  0  0  0  0
 19 20  1  0  0  0  0
 20 35  1  0  0  0  0
 20 12  2  0  0  0  0
 21 37  1  0  0  0  0
 21 38  1  0  0  0  0
 22  3  1  0  0  0  0
 24  7  1  0  0  0  0
 30  9  1  0  0  0  0
 32 16  1  0  0  0  0
 33 17  1  0  0  0  0
 34 18  1  0  0  0  0
 36 21  1  0  0  0  0
M  RAD  1   3   2
M  END
$$$$
