38
rmsd53.gzmat
N          0.00000        0.00000        0.00000
C          1.36530        0.00000        0.00000
C          2.12610        0.00000        1.17550
C          1.44480       -0.00090        2.39600
C          0.05050       -0.00250        2.40800
C         -0.63770       -0.00100        1.18380
C         -2.13010       -0.00590        1.13770
C          2.21700       -0.00770        3.66870
N          1.88100        0.00480       -1.30980
C          3.23560       -0.00960       -1.63190
O          4.10050       -0.01750       -0.78020
C          3.53420       -0.00340       -3.07510
N          4.83460        0.22120       -3.53370
C          4.82970        0.17430       -4.91580
C          5.87390        0.34010       -5.84800
C          5.55480        0.24140       -7.18260
C          4.22810       -0.01660       -7.61520
C          3.20080       -0.18180       -6.71460
C          3.48300       -0.08830       -5.34080
C          2.68740       -0.19900       -4.16620
C          5.99220        0.42300       -2.68450
H          3.21490        0.00100        1.14810
H         -0.50070       -0.00390        3.34030
H         -2.51010        0.11570        0.10930
H         -2.55390        0.80770        1.74240
H         -2.53210       -0.95570        1.52030
H          1.59260        0.19970        4.54800
H          3.02340        0.74180        3.65850
H          2.69400       -0.98780        3.83140
H          1.17830        0.02160       -2.05530
H          6.88720        0.53780       -5.51740
H          6.32980        0.36200       -7.93920
H          4.03690       -0.08170       -8.68420
H          2.18250       -0.38100       -7.04150
H          1.63820       -0.40550       -4.15120
H          6.90370        0.58570       -3.28170
H          6.15070       -0.45730       -2.02530
H          5.84230        1.29760       -2.01850
