38
rmsd36.gzmat
N          0.00000        0.00000        0.00000
C          1.36530        0.00000        0.00000
C          2.12650        0.00000        1.17520
C          1.44580        0.00170        2.39610
C          0.05160        0.00510        2.40830
C         -0.63710        0.00430        1.18420
C         -2.12940        0.01230        1.13910
C          2.22130        0.00900        3.66710
N          1.88290       -0.01300       -1.30920
C          3.23540        0.07660       -1.62700
O          4.09190        0.18630       -0.77380
C          3.54380        0.02880       -3.06710
N          4.83100        0.31430       -3.52950
C          4.84600        0.17790       -4.90560
C          5.88790        0.35130       -5.83860
C          5.59320        0.13980       -7.16560
C          4.29290       -0.23840       -7.59010
C          3.26730       -0.41040       -6.68870
C          3.52520       -0.20440       -5.32260
C          2.72470       -0.29240       -4.14940
C          5.95730        0.66700       -2.68740
H          3.21560       -0.00080        1.14820
H         -0.49950        0.00870        3.34060
H         -2.50950       -0.01050        0.10380
H         -2.53530        0.91710        1.61420
H         -2.54940       -0.85990        1.66020
H          1.59300       -0.15420        4.55290
H          2.73670        0.97320        3.80620
H          2.99870       -0.77100        3.67110
H          1.18310       -0.05750       -2.05620
H          6.88140        0.63920       -5.51450
H          6.36780        0.26120       -7.92240
H          4.12120       -0.39200       -8.65350
H          2.26910       -0.70110       -7.00870
H          1.69130       -0.56650       -4.12910
H          6.85350        0.88850       -3.28880
H          6.19380       -0.16170       -1.98650
H          5.71880        1.55410       -2.06480
