rmsd222.gzmat
 OpenBabel08211713413D

 30 30  0  0  1  0  0  0  0  0999 V2000
    0.0000    0.0000    0.0000 C   0  0  0  0  0  0  0  0  0  0  0  0
    1.3905    0.0000    0.0000 C   0  0  0  0  0  0  0  0  0  0  0  0
    2.0959    0.0000    1.2038 C   0  0  0  0  0  0  0  0  0  0  0  0
    1.4092    0.0251    2.4198 C   0  0  0  0  0  0  0  0  0  0  0  0
    0.0219    0.0220    2.4344 C   0  0  0  0  0  0  0  0  0  0  0  0
   -0.6917    0.0013    1.2190 C   0  0  0  0  0  0  0  0  0  0  0  0
   -2.0977   -0.0083    1.3117 N   0  0  0  0  0  0  0  0  0  0  0  0
   -2.9751   -0.1081    0.2402 C   0  0  0  0  0  0  0  0  0  0  0  0
   -2.6250   -0.2121   -0.9099 O   0  0  0  0  0  0  0  0  0  0  0  0
   -4.4642   -0.0815    0.6112 C   0  0  2  0  0  0  0  0  0  0  0  0
   -5.0426   -0.0114   -0.3610 H   0  0  0  0  0  0  0  0  0  0  0  0
   -4.7779    1.0622    1.4339 C   0  0  0  0  0  0  0  0  0  0  0  0
   -5.0377    1.9795    2.0875 N   0  0  0  0  0  0  0  0  0  0  0  0
   -4.8804   -1.4021    1.3285 C   0  0  2  0  0  0  0  0  0  0  0  0
   -5.8714   -1.2680    1.8289 H   0  0  0  0  0  0  0  0  0  0  0  0
   -4.0010   -1.5956    2.4114 O   0  0  0  0  0  0  0  0  0  0  0  0
   -4.8755   -2.5764    0.3658 C   0  0  0  0  0  0  0  0  0  0  0  0
    3.5927    0.0032    1.1947 C   0  0  0  0  0  0  0  0  0  0  0  0
    4.1245    1.2269    1.1765 F   0  0  0  0  0  0  0  0  0  0  0  0
    4.1606   -0.5854    2.2487 F   0  0  0  0  0  0  0  0  0  0  0  0
    4.1486   -0.6136    0.1509 F   0  0  0  0  0  0  0  0  0  0  0  0
   -0.5352    0.0030   -0.9530 H   0  0  0  0  0  0  0  0  0  0  0  0
    1.9153    0.0039   -0.9598 H   0  0  0  0  0  0  0  0  0  0  0  0
    1.9501    0.0511    3.3693 H   0  0  0  0  0  0  0  0  0  0  0  0
   -0.5080    0.0413    3.3848 H   0  0  0  0  0  0  0  0  0  0  0  0
   -2.5017   -0.0038    2.2557 H   0  0  0  0  0  0  0  0  0  0  0  0
   -3.3356   -2.2921    2.2315 H   0  0  0  0  0  0  0  0  0  0  0  0
   -5.6473   -2.4750   -0.4097 H   0  0  0  0  0  0  0  0  0  0  0  0
   -5.0791   -3.5210    0.8906 H   0  0  0  0  0  0  0  0  0  0  0  0
   -3.9151   -2.6886   -0.1586 H   0  0  0  0  0  0  0  0  0  0  0  0
  1  2  2  0  0  0  0
  1  6  1  0  0  0  0
  2  3  1  0  0  0  0
  3  4  2  0  0  0  0
  4  5  1  0  0  0  0
  4 24  1  0  0  0  0
  5 25  1  0  0  0  0
  6  7  1  0  0  0  0
  6  5  2  0  0  0  0
  7 26  1  0  0  0  0
  8 10  1  0  0  0  0
  8  7  1  0  0  0  0
  9  8  2  0  0  0  0
 10 11  1  6  0  0  0
 10 14  1  0  0  0  0
 10 12  1  0  0  0  0
 12 13  3  0  0  0  0
 14 15  1  1  0  0  0
 14 16  1  0  0  0  0
 17 29  1  0  0  0  0
 17 14  1  0  0  0  0
 18  3  1  0  0  0  0
 18 20  1  0  0  0  0
 19 18  1  0  0  0  0
 21 18  1  0  0  0  0
 22  1  1  0  0  0  0
 23  2  1  0  0  0  0
 27 16  1  0  0  0  0
 28 17  1  0  0  0  0
 30 17  1  0  0  0  0
M  END
$$$$
