rmsd244.gzmat
 OpenBabel08211713413D

 30 30  0  0  1  0  0  0  0  0999 V2000
    0.0000    0.0000    0.0000 C   0  0  0  0  0  0  0  0  0  0  0  0
    1.3911    0.0000    0.0000 C   0  0  0  0  0  0  0  0  0  0  0  0
    2.0930    0.0000    1.2045 C   0  0  0  0  0  0  0  0  0  0  0  0
    1.4043    0.0152    2.4209 C   0  0  0  0  0  0  0  0  0  0  0  0
    0.0177    0.0173    2.4350 C   0  0  0  0  0  0  0  0  0  0  0  0
   -0.6927   -0.0023    1.2180 C   0  0  0  0  0  0  0  0  0  0  0  0
   -2.0995   -0.0122    1.3030 N   0  0  0  0  0  0  0  0  0  0  0  0
   -2.9598   -0.2995    0.2521 C   0  0  0  0  0  0  0  0  0  0  0  0
   -2.5909   -0.5651   -0.8661 O   0  0  0  0  0  0  0  0  0  0  0  0
   -4.4540   -0.2611    0.6019 C   0  0  2  0  0  0  0  0  0  0  0  0
   -5.0191   -0.3868   -0.3727 H   0  0  0  0  0  0  0  0  0  0  0  0
   -4.8120    1.0012    1.2043 C   0  0  0  0  0  0  0  0  0  0  0  0
   -5.1059    2.0109    1.6831 N   0  0  0  0  0  0  0  0  0  0  0  0
   -4.8470   -1.4405    1.5412 C   0  0  2  0  0  0  0  0  0  0  0  0
   -5.8680   -1.2654    1.9623 H   0  0  0  0  0  0  0  0  0  0  0  0
   -4.0106   -1.3715    2.6753 O   0  0  0  0  0  0  0  0  0  0  0  0
   -4.7408   -2.7773    0.8286 C   0  0  0  0  0  0  0  0  0  0  0  0
    3.5888   -0.0366    1.2353 C   0  0  0  0  0  0  0  0  0  0  0  0
    4.1409    0.9281    1.9741 F   0  0  0  0  0  0  0  0  0  0  0  0
    4.0799   -1.1660    1.7511 F   0  0  0  0  0  0  0  0  0  0  0  0
    4.1982    0.0727    0.0554 F   0  0  0  0  0  0  0  0  0  0  0  0
   -0.5364    0.0012   -0.9523 H   0  0  0  0  0  0  0  0  0  0  0  0
    1.9135   -0.0003   -0.9605 H   0  0  0  0  0  0  0  0  0  0  0  0
    1.9495    0.0215    3.3686 H   0  0  0  0  0  0  0  0  0  0  0  0
   -0.5142    0.0311    3.3840 H   0  0  0  0  0  0  0  0  0  0  0  0
   -2.5135    0.1072    2.2352 H   0  0  0  0  0  0  0  0  0  0  0  0
   -3.3790   -2.1183    2.7172 H   0  0  0  0  0  0  0  0  0  0  0  0
   -5.4628   -2.8638    0.0047 H   0  0  0  0  0  0  0  0  0  0  0  0
   -4.9472   -3.6113    1.5144 H   0  0  0  0  0  0  0  0  0  0  0  0
   -3.7449   -2.9447    0.3924 H   0  0  0  0  0  0  0  0  0  0  0  0
  1  6  1  0  0  0  0
  2  1  2  0  0  0  0
  2  3  1  0  0  0  0
  3 18  1  0  0  0  0
  3  4  2  0  0  0  0
  4  5  1  0  0  0  0
  4 24  1  0  0  0  0
  5 25  1  0  0  0  0
  6  7  1  0  0  0  0
  6  5  2  0  0  0  0
  7 26  1  0  0  0  0
  8 10  1  0  0  0  0
  8  7  1  0  0  0  0
  9  8  2  0  0  0  0
 10 11  1  6  0  0  0
 10 12  1  0  0  0  0
 10 14  1  0  0  0  0
 12 13  3  0  0  0  0
 14 15  1  1  0  0  0
 14 16  1  0  0  0  0
 16 27  1  0  0  0  0
 17 29  1  0  0  0  0
 17 14  1  0  0  0  0
 18 20  1  0  0  0  0
 18 19  1  0  0  0  0
 21 18  1  0  0  0  0
 22  1  1  0  0  0  0
 23  2  1  0  0  0  0
 28 17  1  0  0  0  0
 30 17  1  0  0  0  0
M  END
$$$$
