rmsd162.gzmat
 OpenBabel08211713413D

 30 30  0  0  1  0  0  0  0  0999 V2000
    0.0000    0.0000    0.0000 C   0  0  0  0  0  0  0  0  0  0  0  0
    1.3899    0.0000    0.0000 C   0  0  0  0  0  0  0  0  0  0  0  0
    2.0963    0.0000    1.2041 C   0  0  0  0  0  0  0  0  0  0  0  0
    1.4114    0.0234    2.4203 C   0  0  0  0  0  0  0  0  0  0  0  0
    0.0237    0.0274    2.4343 C   0  0  0  0  0  0  0  0  0  0  0  0
   -0.6907    0.0109    1.2198 C   0  0  0  0  0  0  0  0  0  0  0  0
   -2.0965    0.0290    1.3109 N   0  0  0  0  0  0  0  0  0  0  0  0
   -2.9742   -0.1061    0.2440 C   0  0  0  0  0  0  0  0  0  0  0  0
   -2.6263   -0.2949   -0.8962 O   0  0  0  0  0  0  0  0  0  0  0  0
   -4.4627    0.0063    0.6042 C   0  0  2  0  0  0  0  0  0  0  0  0
   -5.0344    0.0140   -0.3749 H   0  0  0  0  0  0  0  0  0  0  0  0
   -4.7316    1.2293    1.3230 C   0  0  0  0  0  0  0  0  0  0  0  0
   -4.9545    2.2105    1.8926 N   0  0  0  0  0  0  0  0  0  0  0  0
   -4.9359   -1.2276    1.4289 C   0  0  2  0  0  0  0  0  0  0  0  0
   -5.9471   -1.0302    1.8627 H   0  0  0  0  0  0  0  0  0  0  0  0
   -4.1041   -1.3128    2.5648 O   0  0  0  0  0  0  0  0  0  0  0  0
   -4.9075   -2.4947    0.5925 C   0  0  0  0  0  0  0  0  0  0  0  0
    3.5925    0.0027    1.1714 C   0  0  0  0  0  0  0  0  0  0  0  0
    4.1190    1.2069    0.9399 F   0  0  0  0  0  0  0  0  0  0  0  0
    4.1883   -0.4058    2.2922 F   0  0  0  0  0  0  0  0  0  0  0  0
    4.1244   -0.7764    0.2279 F   0  0  0  0  0  0  0  0  0  0  0  0
   -0.5368   -0.0037   -0.9519 H   0  0  0  0  0  0  0  0  0  0  0  0
    1.9186    0.0067   -0.9574 H   0  0  0  0  0  0  0  0  0  0  0  0
    1.9504    0.0441    3.3713 H   0  0  0  0  0  0  0  0  0  0  0  0
   -0.5051    0.0496    3.3849 H   0  0  0  0  0  0  0  0  0  0  0  0
   -2.5035    0.0907    2.2518 H   0  0  0  0  0  0  0  0  0  0  0  0
   -3.5188   -2.0963    2.5407 H   0  0  0  0  0  0  0  0  0  0  0  0
   -5.6669   -2.4782   -0.2013 H   0  0  0  0  0  0  0  0  0  0  0  0
   -5.1147   -3.3836    1.2048 H   0  0  0  0  0  0  0  0  0  0  0  0
   -3.9391   -2.6528    0.0965 H   0  0  0  0  0  0  0  0  0  0  0  0
  1  6  1  0  0  0  0
  2  1  2  0  0  0  0
  2  3  1  0  0  0  0
  3  4  2  0  0  0  0
  4  5  1  0  0  0  0
  4 24  1  0  0  0  0
  5 25  1  0  0  0  0
  6  7  1  0  0  0  0
  6  5  2  0  0  0  0
  7 26  1  0  0  0  0
  8 10  1  0  0  0  0
  8  7  1  0  0  0  0
  9  8  2  0  0  0  0
 10 11  1  6  0  0  0
 10 12  1  0  0  0  0
 10 14  1  0  0  0  0
 12 13  3  0  0  0  0
 14 15  1  1  0  0  0
 14 16  1  0  0  0  0
 17 29  1  0  0  0  0
 17 14  1  0  0  0  0
 18  3  1  0  0  0  0
 18 20  1  0  0  0  0
 19 18  1  0  0  0  0
 21 18  1  0  0  0  0
 22  1  1  0  0  0  0
 23  2  1  0  0  0  0
 27 16  1  0  0  0  0
 28 17  1  0  0  0  0
 30 17  1  0  0  0  0
M  END
$$$$
