30
rmsd100.gzmat
C          0.00000        0.00000        0.00000
C          1.38730        0.00000        0.00000
C          2.08560        0.00000        1.20940
C          1.39180        0.00250        2.42030
C          0.00140       -0.00430        2.43520
C         -0.70170       -0.00220        1.22290
N         -2.10840        0.00400        1.14160
C         -2.98040       -0.00360        2.22220
O         -2.62570        0.00630        3.37530
C         -4.47050       -0.01800        1.85580
H         -5.04150       -0.19620        2.81820
C         -4.77380       -1.07200        0.91750
N         -5.02450       -1.91740        0.16940
C         -4.90780        1.36520        1.28240
H         -5.90640        1.27440        0.78770
O         -4.04910        1.67420        0.20980
C         -4.89260        2.43400        2.36110
C          3.58190        0.02750        1.21580
F          4.08840        1.25760        1.32790
F          4.14740       -0.65350        2.21360
F          4.16440       -0.46800        0.12340
H         -0.53900       -0.00260       -0.94580
H          1.91710        0.00170       -0.95670
H          1.92800        0.01340        3.37350
H         -0.52280       -0.01390        3.39420
H         -2.51900        0.06490        0.20230
H         -3.37330        2.34130        0.45320
H         -5.66380        2.25870        3.12340
H         -5.08950        3.42900        1.93670
H         -3.93120        2.48310        2.89350
