rmsd100.gzmat
 OpenBabel08211713413D

 30 30  0  0  1  0  0  0  0  0999 V2000
    0.0000    0.0000    0.0000 C   0  0  0  0  0  0  0  0  0  0  0  0
    1.3873    0.0000    0.0000 C   0  0  0  0  0  0  0  0  0  0  0  0
    2.0856    0.0000    1.2094 C   0  0  0  0  0  0  0  0  0  0  0  0
    1.3918    0.0025    2.4203 C   0  0  0  0  0  0  0  0  0  0  0  0
    0.0014   -0.0043    2.4352 C   0  0  0  0  0  0  0  0  0  0  0  0
   -0.7017   -0.0022    1.2229 C   0  0  0  0  0  0  0  0  0  0  0  0
   -2.1084    0.0040    1.1416 N   0  0  0  0  0  0  0  0  0  0  0  0
   -2.9804   -0.0036    2.2222 C   0  0  0  0  0  0  0  0  0  0  0  0
   -2.6257    0.0063    3.3753 O   0  0  0  0  0  0  0  0  0  0  0  0
   -4.4705   -0.0180    1.8558 C   0  0  2  0  0  0  0  0  0  0  0  0
   -5.0415   -0.1962    2.8182 H   0  0  0  0  0  0  0  0  0  0  0  0
   -4.7738   -1.0720    0.9175 C   0  0  0  0  0  0  0  0  0  0  0  0
   -5.0245   -1.9174    0.1694 N   0  0  0  0  0  0  0  0  0  0  0  0
   -4.9078    1.3652    1.2824 C   0  0  2  0  0  0  0  0  0  0  0  0
   -5.9064    1.2744    0.7877 H   0  0  0  0  0  0  0  0  0  0  0  0
   -4.0491    1.6742    0.2098 O   0  0  0  0  0  0  0  0  0  0  0  0
   -4.8926    2.4340    2.3611 C   0  0  0  0  0  0  0  0  0  0  0  0
    3.5819    0.0275    1.2158 C   0  0  0  0  0  0  0  0  0  0  0  0
    4.0884    1.2576    1.3279 F   0  0  0  0  0  0  0  0  0  0  0  0
    4.1474   -0.6535    2.2136 F   0  0  0  0  0  0  0  0  0  0  0  0
    4.1644   -0.4680    0.1234 F   0  0  0  0  0  0  0  0  0  0  0  0
   -0.5390   -0.0026   -0.9458 H   0  0  0  0  0  0  0  0  0  0  0  0
    1.9171    0.0017   -0.9567 H   0  0  0  0  0  0  0  0  0  0  0  0
    1.9280    0.0134    3.3735 H   0  0  0  0  0  0  0  0  0  0  0  0
   -0.5228   -0.0139    3.3942 H   0  0  0  0  0  0  0  0  0  0  0  0
   -2.5190    0.0649    0.2023 H   0  0  0  0  0  0  0  0  0  0  0  0
   -3.3733    2.3413    0.4532 H   0  0  0  0  0  0  0  0  0  0  0  0
   -5.6638    2.2587    3.1234 H   0  0  0  0  0  0  0  0  0  0  0  0
   -5.0895    3.4290    1.9367 H   0  0  0  0  0  0  0  0  0  0  0  0
   -3.9312    2.4831    2.8935 H   0  0  0  0  0  0  0  0  0  0  0  0
  1  6  1  0  0  0  0
  2  1  2  0  0  0  0
  2  3  1  0  0  0  0
  3 18  1  0  0  0  0
  3  4  2  0  0  0  0
  4  5  1  0  0  0  0
  4 24  1  0  0  0  0
  5 25  1  0  0  0  0
  6  5  2  0  0  0  0
  7  6  1  0  0  0  0
  7  8  1  0  0  0  0
  8  9  2  0  0  0  0
 10  8  1  0  0  0  0
 10 11  1  1  0  0  0
 12 10  1  0  0  0  0
 13 12  3  0  0  0  0
 14 15  1  6  0  0  0
 14 10  1  0  0  0  0
 14 17  1  0  0  0  0
 16 27  1  0  0  0  0
 16 14  1  0  0  0  0
 17 30  1  0  0  0  0
 17 28  1  0  0  0  0
 18 19  1  0  0  0  0
 18 20  1  0  0  0  0
 21 18  1  0  0  0  0
 22  1  1  0  0  0  0
 23  2  1  0  0  0  0
 26  7  1  0  0  0  0
 29 17  1  0  0  0  0
M  END
$$$$
