
     RDKit          3D

 30 30  0  0  0  0  0  0  0  0999 V2000
    0.0345   -0.3781    0.0658 C   0  0  0  0  0  0  0  0  0  0  0  0
    1.4281   -0.3606    0.0864 C   0  0  0  0  0  0  0  0  0  0  0  0
    2.1260    0.0317    1.2322 C   0  0  0  0  0  0  0  0  0  0  0  0
    1.4150    0.4187    2.3738 C   0  0  0  0  0  0  0  0  0  0  0  0
    0.0250    0.4066    2.3651 C   0  0  0  0  0  0  0  0  0  0  0  0
   -0.6776    0.0056    1.2148 C   0  0  0  0  0  0  0  0  0  0  0  0
   -2.0813    0.0135    1.2832 N   0  0  0  0  0  0  0  0  0  0  0  0
   -2.9885   -0.3032    0.3076 C   0  0  0  0  0  0  0  0  0  0  0  0
   -2.7139   -0.6961   -0.8093 O   0  0  0  0  0  0  0  0  0  0  0  0
   -4.4575   -0.2229    0.7705 C   0  0  2  0  0  0  0  0  0  0  0  0
   -5.0533   -0.1221   -0.1484 H   0  0  0  0  0  0  0  0  0  0  0  0
   -4.7114    0.9337    1.6285 C   0  0  0  0  0  0  0  0  0  0  0  0
   -4.8799    1.8401    2.3304 N   0  0  0  0  0  0  0  0  0  0  0  0
   -4.8698   -1.5497    1.5001 C   0  0  2  0  0  0  0  0  0  0  0  0
   -5.8994   -1.3961    1.8603 H   0  0  0  0  0  0  0  0  0  0  0  0
   -4.0839   -1.7382    2.6563 O   0  0  0  0  0  0  0  0  0  0  0  0
   -4.8319   -2.7512    0.5660 C   0  0  0  0  0  0  0  0  0  0  0  0
    3.6298   -0.0113    1.2590 C   0  0  0  0  0  0  0  0  0  0  0  0
    4.1412    0.9213    2.0827 F   0  0  0  0  0  0  0  0  0  0  0  0
    4.0852   -1.2044    1.6917 F   0  0  0  0  0  0  0  0  0  0  0  0
    4.1588    0.1885    0.0394 F   0  0  0  0  0  0  0  0  0  0  0  0
   -0.5087   -0.6795   -0.8258 H   0  0  0  0  0  0  0  0  0  0  0  0
    1.9799   -0.6518   -0.8089 H   0  0  0  0  0  0  0  0  0  0  0  0
    1.9512    0.7386    3.2684 H   0  0  0  0  0  0  0  0  0  0  0  0
   -0.5270    0.7170    3.2562 H   0  0  0  0  0  0  0  0  0  0  0  0
   -2.4731    0.3007    2.1754 H   0  0  0  0  0  0  0  0  0  0  0  0
   -3.2677   -2.1912    2.4025 H   0  0  0  0  0  0  0  0  0  0  0  0
   -5.5106   -2.6146   -0.2888 H   0  0  0  0  0  0  0  0  0  0  0  0
   -5.1400   -3.6512    1.1181 H   0  0  0  0  0  0  0  0  0  0  0  0
   -3.8208   -2.9101    0.1582 H   0  0  0  0  0  0  0  0  0  0  0  0
  1  2  2  0
  1  6  1  0
  1 22  1  0
  2  3  1  0
  2 23  1  0
  3  4  2  0
  3 18  1  0
  4  5  1  0
  4 24  1  0
  5  6  2  0
  5 25  1  0
  6  7  1  0
  7  8  1  0
  7 26  1  0
  8  9  2  0
  8 10  1  0
 10 11  1  6
 10 12  1  0
 10 14  1  0
 12 13  3  0
 14 15  1  1
 14 16  1  0
 14 17  1  0
 16 27  1  0
 17 28  1  0
 17 29  1  0
 17 30  1  0
 18 19  1  0
 18 20  1  0
 18 21  1  0
M  END

