30
rmsd126.gzmat
C          0.00000        0.00000        0.00000
C          1.38780        0.00000        0.00000
C          2.08470        0.00000        1.20950
C          1.39060        0.00910        2.42050
C          0.00060        0.00410        2.43520
C         -0.70160       -0.00560        1.22250
N         -2.10910       -0.01440        1.14350
C         -2.97620       -0.14120        2.22090
O         -2.61600       -0.21320        3.37040
C         -4.46640       -0.18040        1.85780
H         -5.02360       -0.46790        2.80210
C         -4.73510       -1.15700        0.82940
N         -4.95980       -1.93820        0.00780
C         -4.95890        1.23000        1.40650
H         -5.94770        1.14220        0.89130
O         -4.10890        1.67490        0.37660
C         -5.00230        2.19960        2.57470
C          3.58120        0.01010        1.23380
F          4.09930        1.20660        1.51990
F          4.12070       -0.80740        2.13980
F          4.17690       -0.34030        0.09390
H         -0.53930       -0.00460       -0.94550
H          1.91650       -0.00100       -0.95700
H          1.92910        0.02180        3.37260
H         -0.52470        0.00490        3.39350
H         -2.52160        0.09210        0.21000
H         -3.42360        2.29580        0.70130
H         -5.80830        1.95610        3.28000
H         -5.18610        3.22710        2.22850
H         -4.06780        2.20910        3.15400
