rmsd152.gzmat
 OpenBabel08211713413D

 30 30  0  0  1  0  0  0  0  0999 V2000
    0.0000    0.0000    0.0000 C   0  0  0  0  0  0  0  0  0  0  0  0
    1.3909    0.0000    0.0000 C   0  0  0  0  0  0  0  0  0  0  0  0
    2.0946    0.0000    1.2037 C   0  0  0  0  0  0  0  0  0  0  0  0
    1.4076    0.0238    2.4201 C   0  0  0  0  0  0  0  0  0  0  0  0
    0.0208    0.0258    2.4346 C   0  0  0  0  0  0  0  0  0  0  0  0
   -0.6920    0.0049    1.2181 C   0  0  0  0  0  0  0  0  0  0  0  0
   -2.0980   -0.0003    1.3105 N   0  0  0  0  0  0  0  0  0  0  0  0
   -2.9772   -0.0738    0.2381 C   0  0  0  0  0  0  0  0  0  0  0  0
   -2.6297   -0.1724   -0.9135 O   0  0  0  0  0  0  0  0  0  0  0  0
   -4.4654   -0.0250    0.6101 C   0  0  2  0  0  0  0  0  0  0  0  0
   -5.0413    0.0772   -0.3607 H   0  0  0  0  0  0  0  0  0  0  0  0
   -4.7581    1.1042    1.4602 C   0  0  0  0  0  0  0  0  0  0  0  0
   -5.0012    2.0076    2.1386 N   0  0  0  0  0  0  0  0  0  0  0  0
   -4.9060   -1.3532    1.2991 C   0  0  2  0  0  0  0  0  0  0  0  0
   -5.9005   -1.2161    1.7914 H   0  0  0  0  0  0  0  0  0  0  0  0
   -4.0410   -1.5757    2.3878 O   0  0  0  0  0  0  0  0  0  0  0  0
   -4.9057   -2.5093    0.3144 C   0  0  0  0  0  0  0  0  0  0  0  0
    3.5910    0.0038    1.2134 C   0  0  0  0  0  0  0  0  0  0  0  0
    4.1199    1.2145    1.4018 F   0  0  0  0  0  0  0  0  0  0  0  0
    4.1372   -0.7462    2.1727 F   0  0  0  0  0  0  0  0  0  0  0  0
    4.1702   -0.4381    0.0968 F   0  0  0  0  0  0  0  0  0  0  0  0
   -0.5347    0.0010   -0.9535 H   0  0  0  0  0  0  0  0  0  0  0  0
    1.9152    0.0034   -0.9597 H   0  0  0  0  0  0  0  0  0  0  0  0
    1.9516    0.0445    3.3683 H   0  0  0  0  0  0  0  0  0  0  0  0
   -0.5093    0.0506    3.3847 H   0  0  0  0  0  0  0  0  0  0  0  0
   -2.5016    0.0024    2.2549 H   0  0  0  0  0  0  0  0  0  0  0  0
   -3.3729   -2.2669    2.1976 H   0  0  0  0  0  0  0  0  0  0  0  0
   -5.6924   -2.3998   -0.4447 H   0  0  0  0  0  0  0  0  0  0  0  0
   -5.0905   -3.4660    0.8235 H   0  0  0  0  0  0  0  0  0  0  0  0
   -3.9543   -2.6017   -0.2294 H   0  0  0  0  0  0  0  0  0  0  0  0
  1  2  2  0  0  0  0
  1  6  1  0  0  0  0
  2  3  1  0  0  0  0
  3 18  1  0  0  0  0
  3  4  2  0  0  0  0
  4  5  1  0  0  0  0
  4 24  1  0  0  0  0
  5 25  1  0  0  0  0
  6  7  1  0  0  0  0
  6  5  2  0  0  0  0
  7 26  1  0  0  0  0
  8 10  1  0  0  0  0
  8  7  1  0  0  0  0
  9  8  2  0  0  0  0
 10 11  1  6  0  0  0
 10 14  1  0  0  0  0
 10 12  1  0  0  0  0
 12 13  3  0  0  0  0
 14 15  1  1  0  0  0
 14 16  1  0  0  0  0
 17 29  1  0  0  0  0
 17 14  1  0  0  0  0
 18 19  1  0  0  0  0
 18 20  1  0  0  0  0
 21 18  1  0  0  0  0
 22  1  1  0  0  0  0
 23  2  1  0  0  0  0
 27 16  1  0  0  0  0
 28 17  1  0  0  0  0
 30 17  1  0  0  0  0
M  END
$$$$
