rmsd203.gzmat
 OpenBabel08211713413D

 30 30  0  0  1  0  0  0  0  0999 V2000
    0.0000    0.0000    0.0000 C   0  0  0  0  0  0  0  0  0  0  0  0
    1.3915    0.0000    0.0000 C   0  0  0  0  0  0  0  0  0  0  0  0
    2.0930    0.0000    1.2043 C   0  0  0  0  0  0  0  0  0  0  0  0
    1.4043   -0.0097    2.4211 C   0  0  0  0  0  0  0  0  0  0  0  0
    0.0180   -0.0173    2.4351 C   0  0  0  0  0  0  0  0  0  0  0  0
   -0.6928   -0.0060    1.2175 C   0  0  0  0  0  0  0  0  0  0  0  0
   -2.0995   -0.0142    1.3070 N   0  0  0  0  0  0  0  0  0  0  0  0
   -2.9745    0.1661    0.2441 C   0  0  0  0  0  0  0  0  0  0  0  0
   -2.6228    0.3052   -0.9017 O   0  0  0  0  0  0  0  0  0  0  0  0
   -4.4625    0.1806    0.6197 C   0  0  2  0  0  0  0  0  0  0  0  0
   -5.0317    0.4790   -0.3137 H   0  0  0  0  0  0  0  0  0  0  0  0
   -4.7275    1.1373    1.6678 C   0  0  0  0  0  0  0  0  0  0  0  0
   -4.9468    1.9032    2.5055 N   0  0  0  0  0  0  0  0  0  0  0  0
   -4.9436   -1.2385    1.0499 C   0  0  2  0  0  0  0  0  0  0  0  0
   -5.9558   -1.1690    1.5206 H   0  0  0  0  0  0  0  0  0  0  0  0
   -4.1246   -1.6602    2.1156 O   0  0  0  0  0  0  0  0  0  0  0  0
   -4.9153   -2.2099   -0.1168 C   0  0  0  0  0  0  0  0  0  0  0  0
    3.5891    0.0102    1.2396 C   0  0  0  0  0  0  0  0  0  0  0  0
    4.1034    1.0469    1.9047 F   0  0  0  0  0  0  0  0  0  0  0  0
    4.1167   -1.0588    1.8404 F   0  0  0  0  0  0  0  0  0  0  0  0
    4.1994    0.0504    0.0558 F   0  0  0  0  0  0  0  0  0  0  0  0
   -0.5343    0.0063   -0.9533 H   0  0  0  0  0  0  0  0  0  0  0  0
    1.9138   -0.0025   -0.9607 H   0  0  0  0  0  0  0  0  0  0  0  0
    1.9513   -0.0094    3.3681 H   0  0  0  0  0  0  0  0  0  0  0  0
   -0.5138   -0.0222    3.3847 H   0  0  0  0  0  0  0  0  0  0  0  0
   -2.5058   -0.1640    2.2373 H   0  0  0  0  0  0  0  0  0  0  0  0
   -3.4675   -2.3316    1.8372 H   0  0  0  0  0  0  0  0  0  0  0  0
   -5.6361   -1.9346   -0.8987 H   0  0  0  0  0  0  0  0  0  0  0  0
   -5.1769   -3.2270    0.2079 H   0  0  0  0  0  0  0  0  0  0  0  0
   -3.9300   -2.2596   -0.6015 H   0  0  0  0  0  0  0  0  0  0  0  0
  1  2  2  0  0  0  0
  1  6  1  0  0  0  0
  2  3  1  0  0  0  0
  3 18  1  0  0  0  0
  3  4  2  0  0  0  0
  4  5  1  0  0  0  0
  4 24  1  0  0  0  0
  5 25  1  0  0  0  0
  6  7  1  0  0  0  0
  6  5  2  0  0  0  0
  7 26  1  0  0  0  0
  8 10  1  0  0  0  0
  8  7  1  0  0  0  0
  9  8  2  0  0  0  0
 10 11  1  6  0  0  0
 10 14  1  0  0  0  0
 10 12  1  0  0  0  0
 12 13  3  0  0  0  0
 14 15  1  1  0  0  0
 14 16  1  0  0  0  0
 17 29  1  0  0  0  0
 17 14  1  0  0  0  0
 18 20  1  0  0  0  0
 18 19  1  0  0  0  0
 21 18  1  0  0  0  0
 22  1  1  0  0  0  0
 23  2  1  0  0  0  0
 27 16  1  0  0  0  0
 28 17  1  0  0  0  0
 30 17  1  0  0  0  0
M  END
$$$$
