46
rmsd12.gzmat
O          0.00000        0.00000        0.00000
C          1.21730        0.00000        0.00000
N          1.90330        0.00000        1.20660
C          3.27240        0.37820        1.30910
C          3.75130        1.64110        0.89120
N          2.85550        2.61130        0.36440
C          3.18500        3.17540       -0.94670
C          1.85560        3.14620        1.17370
O          1.79500        2.84100        2.34420
C          0.86360        4.03290        0.50980
C         -0.29090        3.46010       -0.02170
C         -1.24870        4.28150       -0.61180
C         -1.05040        5.66100       -0.66030
C          0.10210        6.22560       -0.11460
C          1.06570        5.41060        0.47550
C          5.11970        1.92440        0.97520
C          5.99830        0.97750        1.48920
C          5.52270       -0.25530        1.93270
C          4.16760       -0.55400        1.84810
C          1.13010        0.05070        2.45840
C          1.99750       -0.05990       -1.26580
C          3.10040       -0.89860       -1.41550
C          3.79380       -0.91620       -2.62350
C          3.37820       -0.10470       -3.67810
C          2.26020        0.71590       -3.53310
C          1.56150        0.73310       -2.32860
H          3.69030        2.41840       -1.57550
H          3.84510        4.05470       -0.85390
H          2.26600        3.48130       -1.47990
H         -0.44880        2.37760        0.03260
H         -2.15430        3.84330       -1.02840
H         -1.80160        6.30090       -1.11950
H          0.24750        7.30300       -0.14410
H          1.96220        5.84620        0.91350
H          5.49090        2.89550        0.65150
H          7.06100        1.20560        1.55470
H          6.21400       -0.98770        2.34590
H          3.79100       -1.51720        2.19470
H          1.63810        0.67090        3.21920
H          0.99820       -0.97320        2.84570
H          0.12910        0.49350        2.28960
H          3.42140       -1.53780       -0.59250
H          4.65880       -1.56540       -2.74160
H          3.92260       -0.11890       -4.62020
H          1.92790        1.33540       -4.36330
H          0.67200        1.35480       -2.21040
