
     RDKit          3D

 46 48  0  0  0  0  0  0  0  0999 V2000
   -0.0183   -0.0576    0.1452 O   0  0  0  0  0  0  0  0  0  0  0  0
    1.2065   -0.0640    0.1388 C   0  0  0  0  0  0  0  0  0  0  0  0
    1.9401    0.0491    1.3036 N   0  0  0  0  0  0  0  0  0  0  0  0
    3.2913   -0.3689    1.4414 C   0  0  0  0  0  0  0  0  0  0  0  0
    3.7290   -1.6525    1.0402 C   0  0  0  0  0  0  0  0  0  0  0  0
    2.8413   -2.5832    0.4274 N   0  0  0  0  0  0  0  0  0  0  0  0
    3.2389   -3.1355   -0.8655 C   0  0  0  0  0  0  0  0  0  0  0  0
    1.7270   -3.0078    1.1300 C   0  0  0  0  0  0  0  0  0  0  0  0
    1.4970   -2.6366    2.2670 O   0  0  0  0  0  0  0  0  0  0  0  0
    0.7646   -3.9126    0.4080 C   0  0  0  0  0  0  0  0  0  0  0  0
    1.0749   -5.2463    0.1134 C   0  0  0  0  0  0  0  0  0  0  0  0
    0.1227   -6.0709   -0.4904 C   0  0  0  0  0  0  0  0  0  0  0  0
   -1.1390   -5.5629   -0.8127 C   0  0  0  0  0  0  0  0  0  0  0  0
   -1.4505   -4.2319   -0.5175 C   0  0  0  0  0  0  0  0  0  0  0  0
   -0.5080   -3.4082    0.1018 C   0  0  0  0  0  0  0  0  0  0  0  0
    5.0789   -1.9918    1.1896 C   0  0  0  0  0  0  0  0  0  0  0  0
    5.9904   -1.1025    1.7577 C   0  0  0  0  0  0  0  0  0  0  0  0
    5.5509    0.1487    2.1952 C   0  0  0  0  0  0  0  0  0  0  0  0
    4.2126    0.5043    2.0359 C   0  0  0  0  0  0  0  0  0  0  0  0
    1.2242    0.3427    2.5480 C   0  0  0  0  0  0  0  0  0  0  0  0
    1.9370   -0.1613   -1.1716 C   0  0  0  0  0  0  0  0  0  0  0  0
    3.1715    0.4528   -1.4280 C   0  0  0  0  0  0  0  0  0  0  0  0
    3.7575    0.3527   -2.6926 C   0  0  0  0  0  0  0  0  0  0  0  0
    3.1177   -0.3594   -3.7109 C   0  0  0  0  0  0  0  0  0  0  0  0
    1.8751   -0.9543   -3.4669 C   0  0  0  0  0  0  0  0  0  0  0  0
    1.2841   -0.8445   -2.2094 C   0  0  0  0  0  0  0  0  0  0  0  0
    3.7899   -2.3695   -1.4247 H   0  0  0  0  0  0  0  0  0  0  0  0
    2.3526   -3.4101   -1.4462 H   0  0  0  0  0  0  0  0  0  0  0  0
    3.8777   -4.0292   -0.7594 H   0  0  0  0  0  0  0  0  0  0  0  0
    2.0611   -5.6448    0.3640 H   0  0  0  0  0  0  0  0  0  0  0  0
    0.3668   -7.1131   -0.7097 H   0  0  0  0  0  0  0  0  0  0  0  0
   -1.8815   -6.2064   -1.2907 H   0  0  0  0  0  0  0  0  0  0  0  0
   -2.4368   -3.8324   -0.7652 H   0  0  0  0  0  0  0  0  0  0  0  0
   -0.7432   -2.3685    0.3399 H   0  0  0  0  0  0  0  0  0  0  0  0
    5.4092   -2.9819    0.8710 H   0  0  0  0  0  0  0  0  0  0  0  0
    7.0370   -1.3933    1.8704 H   0  0  0  0  0  0  0  0  0  0  0  0
    6.2504    0.8531    2.6505 H   0  0  0  0  0  0  0  0  0  0  0  0
    3.8666    1.4906    2.3500 H   0  0  0  0  0  0  0  0  0  0  0  0
    0.1670    0.4857    2.3015 H   0  0  0  0  0  0  0  0  0  0  0  0
    1.6205    1.2592    3.0128 H   0  0  0  0  0  0  0  0  0  0  0  0
    1.3233   -0.5044    3.2391 H   0  0  0  0  0  0  0  0  0  0  0  0
    3.6760    1.0196   -0.6468 H   0  0  0  0  0  0  0  0  0  0  0  0
    4.7170    0.8391   -2.8834 H   0  0  0  0  0  0  0  0  0  0  0  0
    3.5814   -0.4411   -4.6969 H   0  0  0  0  0  0  0  0  0  0  0  0
    1.3639   -1.5018   -4.2624 H   0  0  0  0  0  0  0  0  0  0  0  0
    0.3103   -1.2906   -2.0042 H   0  0  0  0  0  0  0  0  0  0  0  0
  1  2  2  0
  2  3  1  0
  2 21  1  0
  3  4  1  0
  3 20  1  0
  4  5  1  0
  4 19  2  0
  5  6  1  0
  5 16  2  0
  6  7  1  0
  6  8  1  0
  7 27  1  0
  7 28  1  0
  7 29  1  0
  8  9  2  0
  8 10  1  0
 10 11  2  0
 10 15  1  0
 11 12  1  0
 11 30  1  0
 12 13  2  0
 12 31  1  0
 13 14  1  0
 13 32  1  0
 14 15  2  0
 14 33  1  0
 15 34  1  0
 16 17  1  0
 16 35  1  0
 17 18  2  0
 17 36  1  0
 18 19  1  0
 18 37  1  0
 19 38  1  0
 20 39  1  0
 20 40  1  0
 20 41  1  0
 21 22  2  0
 21 26  1  0
 22 23  1  0
 22 42  1  0
 23 24  2  0
 23 43  1  0
 24 25  1  0
 24 44  1  0
 25 26  2  0
 25 45  1  0
 26 46  1  0
M  END

