46
rmsd217.gzmat
O          0.00000        0.00000        0.00000
C          1.21750        0.00000        0.00000
N          1.91470        0.00000        1.19300
C          1.25870       -0.28250        2.42780
C          0.48420       -1.44050        2.65790
N          0.18730       -2.41020        1.65530
C         -1.21850       -2.45240        1.22490
C          1.18850       -3.00360        0.90940
O          2.35370       -2.89810        1.24380
C          0.78540       -3.82250       -0.26800
C          0.28600       -3.20580       -1.41450
C         -0.03220       -3.98230       -2.52570
C          0.14270       -5.36540       -2.48230
C          0.64480       -5.97480       -1.33330
C          0.97390       -5.20200       -0.22140
C         -0.05870       -1.66030        3.93310
C          0.13130       -0.73690        4.95260
C          0.86460        0.42460        4.71450
C          1.42620        0.64840        3.46430
C          3.38210       -0.07020        1.24050
C          1.99080        0.05680       -1.27150
C          1.86450        1.18330       -2.08160
C          2.52960        1.22350       -3.30580
C          3.30090        0.13750       -3.71640
C          3.41380       -0.99180       -2.90500
C          2.76170       -1.03300       -1.67550
H         -1.88930       -2.24860        2.07630
H         -1.47070       -3.44820        0.82320
H         -1.42160       -1.68660        0.44850
H          0.14290       -2.12170       -1.44190
H         -0.41940       -3.50780       -3.42550
H         -0.11350       -5.97140       -3.34930
H          0.78400       -7.05320       -1.30490
H          1.38130       -5.66810        0.67590
H         -0.62630       -2.57230        4.12030
H         -0.29440       -0.92030        5.93760
H          0.99680        1.15750        5.50840
H          1.99400        1.55970        3.27500
H          3.73180       -1.12340        1.24560
H          3.75860        0.41570        2.15660
H          3.82750        0.44750        0.37510
H          1.24310        2.01970       -1.76060
H          2.44210        2.10140       -3.94210
H          3.81590        0.16980       -4.67460
H          4.01010       -1.84200       -3.23060
H          2.85490       -1.91360       -1.03260
