rmsd149.gzmat
 OpenBabel08211713413D

 46 48  0  0  0  0  0  0  0  0999 V2000
    0.0000    0.0000    0.0000 O   0  0  0  0  0  0  0  0  0  0  0  0
    1.2117    0.0000    0.0000 C   0  0  0  0  0  0  0  0  0  0  0  0
    1.9103    0.0000    1.2095 N   0  0  0  0  0  0  0  0  0  0  0  0
    1.1730    0.0497    2.4292 C   0  0  0  0  0  0  0  0  0  0  0  0
    0.5910    1.2676    2.8467 C   0  0  0  0  0  0  0  0  0  0  0  0
    0.7245    2.4835    2.1130 N   0  0  0  0  0  0  0  0  0  0  0  0
   -0.4293    2.8395    1.2717 C   0  0  0  0  0  0  0  0  0  0  0  0
    1.9728    3.0062    1.7867 C   0  0  0  0  0  0  0  0  0  0  0  0
    2.0830    3.7709    0.8468 O   0  0  0  0  0  0  0  0  0  0  0  0
    3.1280    2.6816    2.6671 C   0  0  0  0  0  0  0  0  0  0  0  0
    4.3704    2.4892    2.0606 C   0  0  0  0  0  0  0  0  0  0  0  0
    5.4810    2.1869    2.8449 C   0  0  0  0  0  0  0  0  0  0  0  0
    5.3518    2.0928    4.2299 C   0  0  0  0  0  0  0  0  0  0  0  0
    4.1156    2.3144    4.8347 C   0  0  0  0  0  0  0  0  0  0  0  0
    3.0020    2.6156    4.0539 C   0  0  0  0  0  0  0  0  0  0  0  0
   -0.1433    1.3056    4.0386 C   0  0  0  0  0  0  0  0  0  0  0  0
   -0.2679    0.1629    4.8207 C   0  0  0  0  0  0  0  0  0  0  0  0
    0.3286   -1.0312    4.4196 C   0  0  0  0  0  0  0  0  0  0  0  0
    1.0414   -1.0918    3.2273 C   0  0  0  0  0  0  0  0  0  0  0  0
    3.2840   -0.5034    1.2982 C   0  0  0  0  0  0  0  0  0  0  0  0
    2.0217    0.0865   -1.2429 C   0  0  0  0  0  0  0  0  0  0  0  0
    2.6678    1.2821   -1.5554 C   0  0  0  0  0  0  0  0  0  0  0  0
    3.3808    1.3796   -2.7477 C   0  0  0  0  0  0  0  0  0  0  0  0
    3.4380    0.2912   -3.6177 C   0  0  0  0  0  0  0  0  0  0  0  0
    2.7788   -0.8963   -3.3026 C   0  0  0  0  0  0  0  0  0  0  0  0
    2.0629   -1.0015   -2.1116 C   0  0  0  0  0  0  0  0  0  0  0  0
   -0.6321    2.0737    0.4997 H   0  0  0  0  0  0  0  0  0  0  0  0
   -0.2425    3.8011    0.7571 H   0  0  0  0  0  0  0  0  0  0  0  0
   -1.3261    2.9445    1.9037 H   0  0  0  0  0  0  0  0  0  0  0  0
    4.4654    2.5873    0.9777 H   0  0  0  0  0  0  0  0  0  0  0  0
    6.4508    2.0333    2.3769 H   0  0  0  0  0  0  0  0  0  0  0  0
    6.2201    1.8533    4.8409 H   0  0  0  0  0  0  0  0  0  0  0  0
    4.0177    2.2541    5.9164 H   0  0  0  0  0  0  0  0  0  0  0  0
    2.0367    2.7993    4.5276 H   0  0  0  0  0  0  0  0  0  0  0  0
   -0.6083    2.2414    4.3510 H   0  0  0  0  0  0  0  0  0  0  0  0
   -0.8326    0.2028    5.7508 H   0  0  0  0  0  0  0  0  0  0  0  0
    0.2292   -1.9230    5.0364 H   0  0  0  0  0  0  0  0  0  0  0  0
    1.4857   -2.0315    2.9036 H   0  0  0  0  0  0  0  0  0  0  0  0
    3.3197   -1.6058    1.3111 H   0  0  0  0  0  0  0  0  0  0  0  0
    3.7679   -0.1259    2.2188 H   0  0  0  0  0  0  0  0  0  0  0  0
    3.8805   -0.1437    0.4402 H   0  0  0  0  0  0  0  0  0  0  0  0
    2.6025    2.1407   -0.8788 H   0  0  0  0  0  0  0  0  0  0  0  0
    3.8858    2.3100   -3.0015 H   0  0  0  0  0  0  0  0  0  0  0  0
    3.9940    0.3713   -4.5498 H   0  0  0  0  0  0  0  0  0  0  0  0
    2.8159   -1.7392   -3.9893 H   0  0  0  0  0  0  0  0  0  0  0  0
    1.5303   -1.9202   -1.8678 H   0  0  0  0  0  0  0  0  0  0  0  0
  1  2  2  0  0  0  0
  2  3  1  0  0  0  0
  3 20  1  0  0  0  0
  3  4  1  0  0  0  0
  4  5  2  0  0  0  0
  4 19  1  0  0  0  0
  5 16  1  0  0  0  0
  6  5  1  0  0  0  0
  7 29  1  0  0  0  0
  7  6  1  0  0  0  0
  8  6  1  0  0  0  0
  8 10  1  0  0  0  0
  9  8  2  0  0  0  0
 10 15  1  0  0  0  0
 11 10  2  0  0  0  0
 11 12  1  0  0  0  0
 12 13  2  0  0  0  0
 13 14  1  0  0  0  0
 13 32  1  0  0  0  0
 14 33  1  0  0  0  0
 15 34  1  0  0  0  0
 15 14  2  0  0  0  0
 16 35  1  0  0  0  0
 16 17  2  0  0  0  0
 17 36  1  0  0  0  0
 18 17  1  0  0  0  0
 18 37  1  0  0  0  0
 19 18  2  0  0  0  0
 20 39  1  0  0  0  0
 20 40  1  0  0  0  0
 21  2  1  0  0  0  0
 22 21  1  0  0  0  0
 22 42  1  0  0  0  0
 23 22  2  0  0  0  0
 24 25  2  0  0  0  0
 24 23  1  0  0  0  0
 25 26  1  0  0  0  0
 26 46  1  0  0  0  0
 26 21  2  0  0  0  0
 27  7  1  0  0  0  0
 28  7  1  0  0  0  0
 30 11  1  0  0  0  0
 31 12  1  0  0  0  0
 38 19  1  0  0  0  0
 41 20  1  0  0  0  0
 43 23  1  0  0  0  0
 44 24  1  0  0  0  0
 45 25  1  0  0  0  0
M  END
$$$$
