rmsd12.gzmat
 OpenBabel08211713413D

 46 48  0  0  0  0  0  0  0  0999 V2000
    0.0000    0.0000    0.0000 O   0  0  0  0  0  0  0  0  0  0  0  0
    1.2173    0.0000    0.0000 C   0  0  0  0  0  0  0  0  0  0  0  0
    1.9033    0.0000    1.2066 N   0  0  0  0  0  0  0  0  0  0  0  0
    3.2724    0.3782    1.3091 C   0  0  0  0  0  0  0  0  0  0  0  0
    3.7513    1.6411    0.8912 C   0  0  0  0  0  0  0  0  0  0  0  0
    2.8555    2.6113    0.3644 N   0  0  0  0  0  0  0  0  0  0  0  0
    3.1850    3.1754   -0.9467 C   0  0  0  0  0  0  0  0  0  0  0  0
    1.8556    3.1462    1.1737 C   0  0  0  0  0  0  0  0  0  0  0  0
    1.7950    2.8410    2.3442 O   0  0  0  0  0  0  0  0  0  0  0  0
    0.8636    4.0329    0.5098 C   0  0  0  0  0  0  0  0  0  0  0  0
   -0.2909    3.4601   -0.0217 C   0  0  0  0  0  0  0  0  0  0  0  0
   -1.2487    4.2815   -0.6118 C   0  0  0  0  0  0  0  0  0  0  0  0
   -1.0504    5.6610   -0.6603 C   0  0  0  0  0  0  0  0  0  0  0  0
    0.1021    6.2256   -0.1146 C   0  0  0  0  0  0  0  0  0  0  0  0
    1.0657    5.4106    0.4755 C   0  0  0  0  0  0  0  0  0  0  0  0
    5.1197    1.9244    0.9752 C   0  0  0  0  0  0  0  0  0  0  0  0
    5.9983    0.9775    1.4892 C   0  0  0  0  0  0  0  0  0  0  0  0
    5.5227   -0.2553    1.9327 C   0  0  0  0  0  0  0  0  0  0  0  0
    4.1676   -0.5540    1.8481 C   0  0  0  0  0  0  0  0  0  0  0  0
    1.1301    0.0507    2.4584 C   0  0  0  0  0  0  0  0  0  0  0  0
    1.9975   -0.0599   -1.2658 C   0  0  0  0  0  0  0  0  0  0  0  0
    3.1004   -0.8986   -1.4155 C   0  0  0  0  0  0  0  0  0  0  0  0
    3.7938   -0.9162   -2.6235 C   0  0  0  0  0  0  0  0  0  0  0  0
    3.3782   -0.1047   -3.6781 C   0  0  0  0  0  0  0  0  0  0  0  0
    2.2602    0.7159   -3.5331 C   0  0  0  0  0  0  0  0  0  0  0  0
    1.5615    0.7331   -2.3286 C   0  0  0  0  0  0  0  0  0  0  0  0
    3.6903    2.4184   -1.5755 H   0  0  0  0  0  0  0  0  0  0  0  0
    3.8451    4.0547   -0.8539 H   0  0  0  0  0  0  0  0  0  0  0  0
    2.2660    3.4813   -1.4799 H   0  0  0  0  0  0  0  0  0  0  0  0
   -0.4488    2.3776    0.0326 H   0  0  0  0  0  0  0  0  0  0  0  0
   -2.1543    3.8433   -1.0284 H   0  0  0  0  0  0  0  0  0  0  0  0
   -1.8016    6.3009   -1.1195 H   0  0  0  0  0  0  0  0  0  0  0  0
    0.2475    7.3030   -0.1441 H   0  0  0  0  0  0  0  0  0  0  0  0
    1.9622    5.8462    0.9135 H   0  0  0  0  0  0  0  0  0  0  0  0
    5.4909    2.8955    0.6515 H   0  0  0  0  0  0  0  0  0  0  0  0
    7.0610    1.2056    1.5547 H   0  0  0  0  0  0  0  0  0  0  0  0
    6.2140   -0.9877    2.3459 H   0  0  0  0  0  0  0  0  0  0  0  0
    3.7910   -1.5172    2.1947 H   0  0  0  0  0  0  0  0  0  0  0  0
    1.6381    0.6709    3.2192 H   0  0  0  0  0  0  0  0  0  0  0  0
    0.9982   -0.9732    2.8457 H   0  0  0  0  0  0  0  0  0  0  0  0
    0.1291    0.4935    2.2896 H   0  0  0  0  0  0  0  0  0  0  0  0
    3.4214   -1.5378   -0.5925 H   0  0  0  0  0  0  0  0  0  0  0  0
    4.6588   -1.5654   -2.7416 H   0  0  0  0  0  0  0  0  0  0  0  0
    3.9226   -0.1189   -4.6202 H   0  0  0  0  0  0  0  0  0  0  0  0
    1.9279    1.3354   -4.3633 H   0  0  0  0  0  0  0  0  0  0  0  0
    0.6720    1.3548   -2.2104 H   0  0  0  0  0  0  0  0  0  0  0  0
  1  2  2  0  0  0  0
  2  3  1  0  0  0  0
  3  4  1  0  0  0  0
  3 20  1  0  0  0  0
  4 19  2  0  0  0  0
  5 16  2  0  0  0  0
  5  4  1  0  0  0  0
  6  5  1  0  0  0  0
  6  8  1  0  0  0  0
  7 28  1  0  0  0  0
  7  6  1  0  0  0  0
  8  9  2  0  0  0  0
 10  8  1  0  0  0  0
 11 30  1  0  0  0  0
 11 10  2  0  0  0  0
 12 11  1  0  0  0  0
 13 12  2  0  0  0  0
 13 14  1  0  0  0  0
 14 15  2  0  0  0  0
 15 10  1  0  0  0  0
 15 34  1  0  0  0  0
 16 17  1  0  0  0  0
 17 36  1  0  0  0  0
 17 18  2  0  0  0  0
 18 37  1  0  0  0  0
 19 18  1  0  0  0  0
 19 38  1  0  0  0  0
 20 40  1  0  0  0  0
 20 39  1  0  0  0  0
 21  2  1  0  0  0  0
 22 21  1  0  0  0  0
 22 42  1  0  0  0  0
 23 22  2  0  0  0  0
 24 25  2  0  0  0  0
 24 23  1  0  0  0  0
 25 26  1  0  0  0  0
 26 46  1  0  0  0  0
 26 21  2  0  0  0  0
 27  7  1  0  0  0  0
 29  7  1  0  0  0  0
 31 12  1  0  0  0  0
 32 13  1  0  0  0  0
 33 14  1  0  0  0  0
 35 16  1  0  0  0  0
 41 20  1  0  0  0  0
 43 23  1  0  0  0  0
 44 24  1  0  0  0  0
 45 25  1  0  0  0  0
M  END
$$$$
