46
rmsd126.gzmat
O          0.00000        0.00000        0.00000
C          1.21140        0.00000        0.00000
N          1.91090        0.00000        1.20770
C          1.18100        0.03700        2.43230
C          0.57220        1.24050        2.85420
N          0.67020        2.45770        2.11710
C         -0.50110        2.78730        1.29030
C          1.90330        3.01670        1.79500
O          2.00060        3.77530        0.84920
C          3.05330        2.73250        2.69620
C          4.29970        2.50340        2.11270
C          5.39980        2.23540        2.92420
C          5.25540        2.21420        4.31080
C          4.01430        2.47290        4.89090
C          2.91050        2.73670        4.08340
C         -0.15730        1.26050        4.04960
C         -0.25210        0.11500        4.83170
C          0.37200       -1.06390        4.42740
C          1.08100       -1.10680        3.23190
C          3.29530       -0.47480        1.28580
C          2.02250        0.08500       -1.24370
C          2.26980       -1.06340       -1.99230
C          2.98260       -0.95950       -3.18520
C          3.43370        0.28540       -3.62250
C          3.17530        1.43050       -2.86980
C          2.46650        1.33440       -1.67440
H         -0.80100        1.94310        0.64140
H         -0.28350        3.65540        0.63950
H         -1.34880        3.04340        1.94670
H          4.40530        2.54460        1.02680
H          6.37350        2.05160        2.47530
H          6.11460        2.00180        4.94420
H          3.90560        2.47010        5.97340
H          1.93940        2.94470        4.53460
H         -0.64440        2.18450        4.36290
H         -0.81590        0.13990        5.76310
H          0.29660       -1.95840        5.04380
H          1.54710       -2.03550        2.90680
H          3.35120       -1.57590        1.31040
H          3.78210       -0.07840        2.19700
H          3.87490       -0.11240        0.41670
H          1.90110       -2.03070       -1.65500
H          3.18160       -1.84960       -3.77770
H          3.98560        0.36350       -4.55730
H          3.52230        2.40260       -3.21690
H          2.25430        2.23230       -1.08390
