46
rmsd150.gzmat
O          0.00000        0.00000        0.00000
C          1.21130        0.00000        0.00000
N          1.91010        0.00000        1.20690
C          1.19160        0.06020        2.43250
C          0.43530        1.21030        2.75530
N          0.39090        2.36580        1.92220
C         -0.78760        2.48800        1.04730
C          1.54330        3.05560        1.56140
O          1.52650        3.78400        0.58700
C          2.74470        2.92750        2.42960
C          3.98380        2.77730        1.80580
C          5.13310        2.64650        2.58180
C          5.04290        2.68200        3.97260
C          3.80630        2.86050        4.59080
C          2.65360        2.98740        3.81900
C         -0.30490        1.23690        3.94330
C         -0.25550        0.16090        4.82260
C          0.52880       -0.95230        4.52560
C          1.24380       -1.00910        3.33440
C          3.32450       -0.37510        1.27680
C          2.02580        0.07530       -1.24140
C          2.36320       -1.08830       -1.92840
C          3.07960       -0.99250       -3.12000
C          3.44850        0.25860       -3.61330
C          3.10250        1.41840       -2.92040
C          2.38540        1.33140       -1.72940
H         -1.45910        1.61960        1.15870
H         -0.49190        2.54050       -0.01880
H         -1.33150        3.41350        1.30180
H          4.04460        2.77090        0.71610
H          6.10180        2.52520        2.10230
H          5.94090        2.57610        4.57840
H          3.73900        2.90000        5.67590
H          1.68550        3.13110        4.29990
H         -0.91520        2.11140        4.17260
H         -0.83170        0.18870        5.74580
H          0.57350       -1.78730        5.22300
H          1.83150       -1.89260        3.09160
H          3.45860       -1.46850        1.20730
H          3.77010       -0.02250        2.22550
H          3.88860        0.10080        0.45260
H          2.06320       -2.06150       -1.54340
H          3.34660       -1.89400       -3.66670
H          4.00620        0.33030       -4.54500
H          3.38620        2.39450       -3.31080
H          2.10090        2.24060       -1.18840
