rmsd246.gzmat
 OpenBabel08211713413D

 46 48  0  0  0  0  0  0  0  0999 V2000
    0.0000    0.0000    0.0000 O   0  0  0  0  0  0  0  0  0  0  0  0
    1.2171    0.0000    0.0000 C   0  0  0  0  0  0  0  0  0  0  0  0
    1.9008    0.0000    1.2100 N   0  0  0  0  0  0  0  0  0  0  0  0
    3.2576   -0.4227    1.3132 C   0  0  0  0  0  0  0  0  0  0  0  0
    3.6921   -1.7088    0.9204 C   0  0  0  0  0  0  0  0  0  0  0  0
    2.7597   -2.6592    0.4197 N   0  0  0  0  0  0  0  0  0  0  0  0
    3.0583   -3.2506   -0.8868 C   0  0  0  0  0  0  0  0  0  0  0  0
    1.7653   -3.1617    1.2567 C   0  0  0  0  0  0  0  0  0  0  0  0
    1.7343   -2.8351    2.4230 O   0  0  0  0  0  0  0  0  0  0  0  0
    0.7470   -4.0426    0.6255 C   0  0  0  0  0  0  0  0  0  0  0  0
    0.8737   -5.4269    0.7137 C   0  0  0  0  0  0  0  0  0  0  0  0
   -0.1047   -6.2387    0.1426 C   0  0  0  0  0  0  0  0  0  0  0  0
   -1.1950   -5.6635   -0.5092 C   0  0  0  0  0  0  0  0  0  0  0  0
   -1.3200   -4.2763   -0.5809 C   0  0  0  0  0  0  0  0  0  0  0  0
   -0.3502   -3.4583   -0.0057 C   0  0  0  0  0  0  0  0  0  0  0  0
    5.0506   -2.0353    1.0039 C   0  0  0  0  0  0  0  0  0  0  0  0
    5.9638   -1.1045    1.4870 C   0  0  0  0  0  0  0  0  0  0  0  0
    5.5315    0.1526    1.9062 C   0  0  0  0  0  0  0  0  0  0  0  0
    4.1857    0.4920    1.8252 C   0  0  0  0  0  0  0  0  0  0  0  0
    1.1078   -0.0700    2.4493 C   0  0  0  0  0  0  0  0  0  0  0  0
    1.9978    0.0687   -1.2647 C   0  0  0  0  0  0  0  0  0  0  0  0
    3.1164    0.8882   -1.4027 C   0  0  0  0  0  0  0  0  0  0  0  0
    3.8071    0.9133   -2.6125 C   0  0  0  0  0  0  0  0  0  0  0  0
    3.3719    0.1304   -3.6806 C   0  0  0  0  0  0  0  0  0  0  0  0
    2.2371   -0.6689   -3.5476 C   0  0  0  0  0  0  0  0  0  0  0  0
    1.5440   -0.6969   -2.3403 C   0  0  0  0  0  0  0  0  0  0  0  0
    3.5202   -2.4968   -1.5518 H   0  0  0  0  0  0  0  0  0  0  0  0
    2.1306   -3.5961   -1.3789 H   0  0  0  0  0  0  0  0  0  0  0  0
    3.7463   -4.1084   -0.7954 H   0  0  0  0  0  0  0  0  0  0  0  0
    1.7234   -5.8698    1.2310 H   0  0  0  0  0  0  0  0  0  0  0  0
   -0.0185   -7.3212    0.2101 H   0  0  0  0  0  0  0  0  0  0  0  0
   -1.9546   -6.3006   -0.9585 H   0  0  0  0  0  0  0  0  0  0  0  0
   -2.1776   -3.8286   -1.0809 H   0  0  0  0  0  0  0  0  0  0  0  0
   -0.4555   -2.3685   -0.0398 H   0  0  0  0  0  0  0  0  0  0  0  0
    5.3866   -3.0272    0.7056 H   0  0  0  0  0  0  0  0  0  0  0  0
    7.0194   -1.3645    1.5472 H   0  0  0  0  0  0  0  0  0  0  0  0
    6.2486    0.8715    2.2986 H   0  0  0  0  0  0  0  0  0  0  0  0
    3.8414    1.4736    2.1536 H   0  0  0  0  0  0  0  0  0  0  0  0
    0.7921    0.9479    2.7328 H   0  0  0  0  0  0  0  0  0  0  0  0
    1.6886   -0.5210    3.2718 H   0  0  0  0  0  0  0  0  0  0  0  0
    0.2008   -0.6899    2.3093 H   0  0  0  0  0  0  0  0  0  0  0  0
    3.4525    1.5059   -0.5693 H   0  0  0  0  0  0  0  0  0  0  0  0
    4.6861    1.5450   -2.7214 H   0  0  0  0  0  0  0  0  0  0  0  0
    3.9155    0.1489   -4.6232 H   0  0  0  0  0  0  0  0  0  0  0  0
    1.8877   -1.2634   -4.3889 H   0  0  0  0  0  0  0  0  0  0  0  0
    0.6434   -1.3042   -2.2303 H   0  0  0  0  0  0  0  0  0  0  0  0
  1  2  2  0  0  0  0
  2  3  1  0  0  0  0
  3  4  1  0  0  0  0
  3 20  1  0  0  0  0
  4 19  2  0  0  0  0
  5 16  2  0  0  0  0
  5  4  1  0  0  0  0
  6  5  1  0  0  0  0
  6  8  1  0  0  0  0
  7 29  1  0  0  0  0
  7  6  1  0  0  0  0
  8  9  2  0  0  0  0
 10 11  1  0  0  0  0
 10  8  1  0  0  0  0
 11 30  1  0  0  0  0
 12 31  1  0  0  0  0
 12 11  2  0  0  0  0
 13 12  1  0  0  0  0
 14 13  2  0  0  0  0
 14 15  1  0  0  0  0
 15 10  2  0  0  0  0
 16 17  1  0  0  0  0
 17 36  1  0  0  0  0
 17 18  2  0  0  0  0
 18 37  1  0  0  0  0
 19 18  1  0  0  0  0
 19 38  1  0  0  0  0
 20 39  1  0  0  0  0
 20 40  1  0  0  0  0
 21  2  1  0  0  0  0
 22 21  1  0  0  0  0
 22 42  1  0  0  0  0
 23 22  2  0  0  0  0
 24 25  2  0  0  0  0
 24 23  1  0  0  0  0
 25 26  1  0  0  0  0
 26 46  1  0  0  0  0
 26 21  2  0  0  0  0
 27  7  1  0  0  0  0
 28  7  1  0  0  0  0
 32 13  1  0  0  0  0
 33 14  1  0  0  0  0
 34 15  1  0  0  0  0
 35 16  1  0  0  0  0
 41 20  1  0  0  0  0
 43 23  1  0  0  0  0
 44 24  1  0  0  0  0
 45 25  1  0  0  0  0
M  END
$$$$
