rmsd100.gzmat
 OpenBabel08211713413D

 46 48  0  0  0  0  0  0  0  0999 V2000
    0.0000    0.0000    0.0000 O   0  0  0  0  0  0  0  0  0  0  0  0
    1.2173    0.0000    0.0000 C   0  0  0  0  0  0  0  0  0  0  0  0
    1.9102    0.0000    1.2036 N   0  0  0  0  0  0  0  0  0  0  0  0
    3.2712    0.4113    1.2989 C   0  0  0  0  0  0  0  0  0  0  0  0
    3.7219    1.6811    0.8708 C   0  0  0  0  0  0  0  0  0  0  0  0
    2.7974    2.6241    0.3385 N   0  0  0  0  0  0  0  0  0  0  0  0
    3.0990    3.1697   -0.9877 C   0  0  0  0  0  0  0  0  0  0  0  0
    1.8758    3.2361    1.1882 C   0  0  0  0  0  0  0  0  0  0  0  0
    1.9138    3.0233    2.3799 O   0  0  0  0  0  0  0  0  0  0  0  0
    0.8299    4.0722    0.5416 C   0  0  0  0  0  0  0  0  0  0  0  0
    0.9616    5.4582    0.5143 C   0  0  0  0  0  0  0  0  0  0  0  0
   -0.0530    6.2279   -0.0520 C   0  0  0  0  0  0  0  0  0  0  0  0
   -1.1837    5.6096   -0.5842 C   0  0  0  0  0  0  0  0  0  0  0  0
   -1.3115    4.2217   -0.5423 C   0  0  0  0  0  0  0  0  0  0  0  0
   -0.3044    3.4456    0.0261 C   0  0  0  0  0  0  0  0  0  0  0  0
    5.0831    1.9962    0.9505 C   0  0  0  0  0  0  0  0  0  0  0  0
    5.9847    1.0733    1.4685 C   0  0  0  0  0  0  0  0  0  0  0  0
    5.5383   -0.1679    1.9187 C   0  0  0  0  0  0  0  0  0  0  0  0
    4.1903   -0.4981    1.8384 C   0  0  0  0  0  0  0  0  0  0  0  0
    1.1561    0.0134    2.4666 C   0  0  0  0  0  0  0  0  0  0  0  0
    1.9959   -0.0829   -1.2653 C   0  0  0  0  0  0  0  0  0  0  0  0
    1.5634    0.6880   -2.3454 C   0  0  0  0  0  0  0  0  0  0  0  0
    2.2605    0.6363   -3.5501 C   0  0  0  0  0  0  0  0  0  0  0  0
    3.3726   -0.1949   -3.6772 C   0  0  0  0  0  0  0  0  0  0  0  0
    3.7839   -0.9845   -2.6047 C   0  0  0  0  0  0  0  0  0  0  0  0
    3.0929   -0.9325   -1.3965 C   0  0  0  0  0  0  0  0  0  0  0  0
    3.5961    2.4050   -1.6131 H   0  0  0  0  0  0  0  0  0  0  0  0
    3.7565    4.0534   -0.9262 H   0  0  0  0  0  0  0  0  0  0  0  0
    2.1648    3.4601   -1.5037 H   0  0  0  0  0  0  0  0  0  0  0  0
    1.8430    5.9361    0.9395 H   0  0  0  0  0  0  0  0  0  0  0  0
    0.0352    7.3117   -0.0718 H   0  0  0  0  0  0  0  0  0  0  0  0
   -1.9717    6.2138   -1.0294 H   0  0  0  0  0  0  0  0  0  0  0  0
   -2.2012    3.7419   -0.9469 H   0  0  0  0  0  0  0  0  0  0  0  0
   -0.4084    2.3564    0.0749 H   0  0  0  0  0  0  0  0  0  0  0  0
    5.4302    2.9744    0.6211 H   0  0  0  0  0  0  0  0  0  0  0  0
    7.0416    1.3267    1.5322 H   0  0  0  0  0  0  0  0  0  0  0  0
    6.2469   -0.8824    2.3341 H   0  0  0  0  0  0  0  0  0  0  0  0
    3.8391   -1.4693    2.1886 H   0  0  0  0  0  0  0  0  0  0  0  0
    1.2442    0.9867    2.9861 H   0  0  0  0  0  0  0  0  0  0  0  0
    1.5409   -0.7772    3.1314 H   0  0  0  0  0  0  0  0  0  0  0  0
    0.0819   -0.1763    2.2792 H   0  0  0  0  0  0  0  0  0  0  0  0
    0.6782    1.3183   -2.2417 H   0  0  0  0  0  0  0  0  0  0  0  0
    1.9296    1.2366   -4.3949 H   0  0  0  0  0  0  0  0  0  0  0  0
    3.9165   -0.2343   -4.6190 H   0  0  0  0  0  0  0  0  0  0  0  0
    4.6431   -1.6437   -2.7079 H   0  0  0  0  0  0  0  0  0  0  0  0
    3.4101   -1.5541   -0.5584 H   0  0  0  0  0  0  0  0  0  0  0  0
  1  2  2  0  0  0  0
  2  3  1  0  0  0  0
  3  4  1  0  0  0  0
  3 20  1  0  0  0  0
  4 19  2  0  0  0  0
  5 16  2  0  0  0  0
  5  4  1  0  0  0  0
  6  5  1  0  0  0  0
  6  8  1  0  0  0  0
  7 28  1  0  0  0  0
  7  6  1  0  0  0  0
  8  9  2  0  0  0  0
 10  8  1  0  0  0  0
 11 10  1  0  0  0  0
 11 30  1  0  0  0  0
 12 11  2  0  0  0  0
 13 14  2  0  0  0  0
 13 12  1  0  0  0  0
 14 15  1  0  0  0  0
 15 34  1  0  0  0  0
 15 10  2  0  0  0  0
 16 17  1  0  0  0  0
 17 36  1  0  0  0  0
 17 18  2  0  0  0  0
 18 37  1  0  0  0  0
 19 18  1  0  0  0  0
 19 38  1  0  0  0  0
 20 39  1  0  0  0  0
 20 40  1  0  0  0  0
 21  2  1  0  0  0  0
 22 42  1  0  0  0  0
 22 21  2  0  0  0  0
 23 22  1  0  0  0  0
 24 23  2  0  0  0  0
 24 25  1  0  0  0  0
 25 26  2  0  0  0  0
 26 21  1  0  0  0  0
 26 46  1  0  0  0  0
 27  7  1  0  0  0  0
 29  7  1  0  0  0  0
 31 12  1  0  0  0  0
 32 13  1  0  0  0  0
 33 14  1  0  0  0  0
 35 16  1  0  0  0  0
 41 20  1  0  0  0  0
 43 23  1  0  0  0  0
 44 24  1  0  0  0  0
 45 25  1  0  0  0  0
M  END
$$$$
