36
rmsd80.gzmat
S          0.00000        0.00000        0.00000
C          1.69070        0.00000        0.00000
N          2.20800        0.00000        1.25320
C          1.23130        0.03060        2.25920
C          1.61290        0.05940        3.68240
C         -0.04530        0.03420        1.72810
C         -1.32420        0.07480        2.46270
C         -2.34740       -0.90090        1.85190
O         -2.20280       -0.80340        0.44500
C          3.64580        0.03090        1.57540
C          4.53920       -0.09630        0.38820
C          4.92150       -1.37440       -0.15930
N          5.82600       -1.42570       -1.20810
C          6.35480       -0.33390       -1.71830
N          5.99730        0.93490       -1.21190
H          6.42030        1.78580       -1.61430
C          5.11310        1.03080       -0.17120
C          7.33290       -0.39120       -2.82230
N          4.47550       -2.56500        0.25690
H          2.30660       -0.00310       -0.89380
H          2.16460       -0.84170        4.00560
H          0.72710        0.11230        4.35060
H          2.22460        0.94080        3.95040
H         -1.73950        1.11520        2.46270
H         -1.19500       -0.16720        3.54470
H         -3.38080       -0.66680        2.16750
H         -2.11460       -1.95760        2.09290
H         -3.04680       -0.55590        0.00130
H          3.86340       -0.77500        2.33040
H          3.85710        0.99090        2.13160
H          4.88790        2.05160        0.20180
H          7.42800       -1.42420       -3.24050
H          8.36210       -0.12030       -2.49910
H          7.07780        0.25740       -3.68290
H          3.80090       -2.66120        0.99530
H          4.82240       -3.42930       -0.17050
