36
rmsd7.gzmat
S          0.00000        0.00000        0.00000
C          1.68940        0.00000        0.00000
N          2.19610        0.00000        1.25930
C          1.21550       -0.03090        2.26090
C          1.57180       -0.17630        3.68330
C         -0.05850        0.03300        1.71670
C         -1.29110        0.24800        2.49720
C         -1.36780        1.73900        2.88770
O         -0.09040        2.08730        3.41010
C          3.63610        0.08970        1.53550
C          4.24170        1.37960        1.07610
C          3.78030        2.68520        1.48320
N          4.51330        3.80660        1.11940
C          5.60790        3.71970        0.39460
N          6.06100        2.46400       -0.05730
H          6.91360        2.40170       -0.63390
C          5.38260        1.32830        0.29610
C          6.38890        4.91740        0.02460
N          2.68960        2.97250        2.20300
H          2.32350       -0.00840       -0.88920
H          0.70450        0.04120        4.34650
H          2.36880        0.49330        4.03860
H          1.87780       -1.21440        3.92960
H         -1.29890       -0.38670        3.41870
H         -2.22560       -0.05080        1.96780
H         -2.15980        1.91790        3.63980
H         -1.53170        2.39570        2.01300
H         -0.18690        2.61480        4.23260
H          4.14310       -0.79960        1.06240
H          3.82410       -0.04490        2.63970
H          5.80550        0.36730       -0.06450
H          5.98510        5.84080        0.50800
H          6.37140        5.12870       -1.06510
H          7.45350        4.86450        0.33280
H          2.00630        2.29340        2.50000
H          2.47540        3.94730        2.43620
