rmsd22.gzmat
 OpenBabel08211713363D

 36 37  0  0  0  0  0  0  0  0999 V2000
    0.0000    0.0000    0.0000 S   0  0  0  0  0  0  0  0  0  0  0  0
    1.6925    0.0000    0.0000 C   0  0  0  0  0  0  0  0  0  0  0  0
    2.2137    0.0000    1.2509 N   0  0  0  0  0  0  0  0  0  0  0  0
    1.2399   -0.0038    2.2614 C   0  0  0  0  0  0  0  0  0  0  0  0
    1.6134   -0.0264    3.6874 C   0  0  0  0  0  0  0  0  0  0  0  0
   -0.0367    0.0094    1.7332 C   0  0  0  0  0  0  0  0  0  0  0  0
   -1.3153    0.0441    2.4683 C   0  0  0  0  0  0  0  0  0  0  0  0
   -2.4207   -0.6967    1.6956 C   0  0  0  0  0  0  0  0  0  0  0  0
   -2.2203   -0.4217    0.3166 O   0  0  0  0  0  0  0  0  0  0  0  0
    3.6580   -0.0362    1.5413 C   0  0  0  0  0  0  0  0  0  0  0  0
    4.4841    0.6068    0.4766 C   0  0  0  0  0  0  0  0  0  0  0  0
    5.2147   -0.1461   -0.5121 C   0  0  0  0  0  0  0  0  0  0  0  0
    6.0078    0.5254   -1.4303 N   0  0  0  0  0  0  0  0  0  0  0  0
    6.1258    1.8357   -1.4171 C   0  0  0  0  0  0  0  0  0  0  0  0
    5.4240    2.6043   -0.4634 N   0  0  0  0  0  0  0  0  0  0  0  0
    5.5274    3.6304   -0.4551 H   0  0  0  0  0  0  0  0  0  0  0  0
    4.6294    1.9824    0.4615 C   0  0  0  0  0  0  0  0  0  0  0  0
    6.9862    2.5471   -2.3831 C   0  0  0  0  0  0  0  0  0  0  0  0
    5.2120   -1.4767   -0.6492 N   0  0  0  0  0  0  0  0  0  0  0  0
    2.3060   -0.0089   -0.8960 H   0  0  0  0  0  0  0  0  0  0  0  0
    0.7350   -0.2113    4.3416 H   0  0  0  0  0  0  0  0  0  0  0  0
    2.0373    0.9329    4.0379 H   0  0  0  0  0  0  0  0  0  0  0  0
    2.3319   -0.8249    3.9451 H   0  0  0  0  0  0  0  0  0  0  0  0
   -1.6211    1.1034    2.6601 H   0  0  0  0  0  0  0  0  0  0  0  0
   -1.2237   -0.4023    3.4881 H   0  0  0  0  0  0  0  0  0  0  0  0
   -3.4342   -0.3960    2.0187 H   0  0  0  0  0  0  0  0  0  0  0  0
   -2.3218   -1.8000    1.7697 H   0  0  0  0  0  0  0  0  0  0  0  0
   -2.9205    0.1732   -0.0466 H   0  0  0  0  0  0  0  0  0  0  0  0
    3.9582   -1.1022    1.7256 H   0  0  0  0  0  0  0  0  0  0  0  0
    3.8431    0.4737    2.5314 H   0  0  0  0  0  0  0  0  0  0  0  0
    4.1133    2.6326    1.1963 H   0  0  0  0  0  0  0  0  0  0  0  0
    7.5356    1.8377   -3.0511 H   0  0  0  0  0  0  0  0  0  0  0  0
    7.7735    3.1627   -1.9006 H   0  0  0  0  0  0  0  0  0  0  0  0
    6.4210    3.2131   -3.0667 H   0  0  0  0  0  0  0  0  0  0  0  0
    4.6836   -2.0891   -0.0511 H   0  0  0  0  0  0  0  0  0  0  0  0
    5.7886   -1.9238   -1.3695 H   0  0  0  0  0  0  0  0  0  0  0  0
  1  6  1  0  0  0  0
  2  1  1  0  0  0  0
  2  3  1  0  0  0  0
  3 10  1  0  0  0  0
  3  4  1  0  0  0  0
  4  5  1  0  0  0  0
  5 23  1  0  0  0  0
  5 22  1  0  0  0  0
  5 21  1  0  0  0  0
  6  4  2  0  0  0  0
  6  7  1  0  0  0  0
  7 24  1  0  0  0  0
  7 25  1  0  0  0  0
  8 27  1  0  0  0  0
  8 26  1  0  0  0  0
  8  7  1  0  0  0  0
  9  8  1  0  0  0  0
 10 29  1  0  0  0  0
 10 30  1  0  0  0  0
 11 10  1  0  0  0  0
 12 11  1  0  0  0  0
 13 14  2  0  0  0  0
 13 12  2  0  0  0  0
 14 15  1  0  0  0  0
 15 16  1  0  0  0  0
 15 17  1  0  0  0  0
 17 11  2  0  0  0  0
 17 31  1  0  0  0  0
 18 33  1  0  0  0  0
 18 14  1  0  0  0  0
 19 12  1  0  0  0  0
 19 35  1  0  0  0  0
 20  2  1  0  0  0  0
 28  9  1  0  0  0  0
 32 18  1  0  0  0  0
 34 18  1  0  0  0  0
 36 19  1  0  0  0  0
M  END
$$$$
