36
rmsd127.gzmat
S          0.00000        0.00000        0.00000
C          1.69430        0.00000        0.00000
N          2.21460        0.00000        1.24990
C          1.24000       -0.02860        2.26110
C          1.62500       -0.08510        3.68250
C         -0.03620       -0.02080        1.73480
C         -1.31160       -0.05180        2.47550
C         -2.43040        0.64830        1.68530
O         -2.25130        0.31390        0.31750
C          3.65340       -0.06460        1.55970
C          4.54060        0.29650        0.41630
C          4.75660        1.66430        0.01200
N          5.70110        1.95070       -0.95780
C          6.40450        0.99940       -1.53880
N          6.19260       -0.35220       -1.19560
H          6.74310       -1.09220       -1.65920
C          5.28190       -0.67820       -0.22560
C          7.42040        1.31480       -2.56130
N          4.10550        2.72690        0.50090
H          2.30930       -0.00420       -0.89580
H          0.74570       -0.01680        4.35680
H          2.29250        0.73450        3.99800
H          2.11810       -1.03960        3.95130
H         -1.22170        0.42770        3.48020
H         -1.60230       -1.10930        2.70110
H         -2.33480        1.75350        1.70660
H         -3.43840        0.36110        2.03690
H         -2.91060       -0.35820        0.01460
H          3.87980       -1.10420        1.93650
H          3.86760        0.60170        2.44300
H          5.17860       -1.75510        0.02210
H          8.00530        2.22980       -2.29200
H          6.95960        1.57310       -3.54320
H          8.16120        0.51800       -2.75130
H          3.38360        2.63900        1.19310
H          4.33410        3.67190        0.18020
