rmsd7.gzmat
 OpenBabel08211713363D

 36 37  0  0  0  0  0  0  0  0999 V2000
    0.0000    0.0000    0.0000 S   0  0  0  0  0  0  0  0  0  0  0  0
    1.6894    0.0000    0.0000 C   0  0  0  0  0  0  0  0  0  0  0  0
    2.1961    0.0000    1.2593 N   0  0  0  0  0  0  0  0  0  0  0  0
    1.2155   -0.0309    2.2609 C   0  0  0  0  0  0  0  0  0  0  0  0
    1.5718   -0.1763    3.6833 C   0  0  0  0  0  0  0  0  0  0  0  0
   -0.0585    0.0330    1.7167 C   0  0  0  0  0  0  0  0  0  0  0  0
   -1.2911    0.2480    2.4972 C   0  0  0  0  0  0  0  0  0  0  0  0
   -1.3678    1.7390    2.8877 C   0  0  0  0  0  0  0  0  0  0  0  0
   -0.0904    2.0873    3.4101 O   0  0  0  0  0  0  0  0  0  0  0  0
    3.6361    0.0897    1.5355 C   0  0  0  0  0  0  0  0  0  0  0  0
    4.2417    1.3796    1.0761 C   0  0  0  0  0  0  0  0  0  0  0  0
    3.7803    2.6852    1.4832 C   0  0  0  0  0  0  0  0  0  0  0  0
    4.5133    3.8066    1.1194 N   0  0  0  0  0  0  0  0  0  0  0  0
    5.6079    3.7197    0.3946 C   0  0  0  0  0  0  0  0  0  0  0  0
    6.0610    2.4640   -0.0573 N   0  0  0  0  0  0  0  0  0  0  0  0
    6.9136    2.4017   -0.6339 H   0  0  0  0  0  0  0  0  0  0  0  0
    5.3826    1.3283    0.2961 C   0  0  0  0  0  0  0  0  0  0  0  0
    6.3889    4.9174    0.0246 C   0  0  0  0  0  0  0  0  0  0  0  0
    2.6896    2.9725    2.2030 N   0  0  0  0  0  0  0  0  0  0  0  0
    2.3235   -0.0084   -0.8892 H   0  0  0  0  0  0  0  0  0  0  0  0
    0.7045    0.0412    4.3465 H   0  0  0  0  0  0  0  0  0  0  0  0
    2.3688    0.4933    4.0386 H   0  0  0  0  0  0  0  0  0  0  0  0
    1.8778   -1.2144    3.9296 H   0  0  0  0  0  0  0  0  0  0  0  0
   -1.2989   -0.3867    3.4187 H   0  0  0  0  0  0  0  0  0  0  0  0
   -2.2256   -0.0508    1.9678 H   0  0  0  0  0  0  0  0  0  0  0  0
   -2.1598    1.9179    3.6398 H   0  0  0  0  0  0  0  0  0  0  0  0
   -1.5317    2.3957    2.0130 H   0  0  0  0  0  0  0  0  0  0  0  0
   -0.1869    2.6148    4.2326 H   0  0  0  0  0  0  0  0  0  0  0  0
    4.1431   -0.7996    1.0624 H   0  0  0  0  0  0  0  0  0  0  0  0
    3.8241   -0.0449    2.6397 H   0  0  0  0  0  0  0  0  0  0  0  0
    5.8055    0.3673   -0.0645 H   0  0  0  0  0  0  0  0  0  0  0  0
    5.9851    5.8408    0.5080 H   0  0  0  0  0  0  0  0  0  0  0  0
    6.3714    5.1287   -1.0651 H   0  0  0  0  0  0  0  0  0  0  0  0
    7.4535    4.8645    0.3328 H   0  0  0  0  0  0  0  0  0  0  0  0
    2.0063    2.2934    2.5000 H   0  0  0  0  0  0  0  0  0  0  0  0
    2.4754    3.9473    2.4362 H   0  0  0  0  0  0  0  0  0  0  0  0
  1  6  1  0  0  0  0
  2  1  1  0  0  0  0
  2  3  1  0  0  0  0
  3 10  1  0  0  0  0
  3  4  1  0  0  0  0
  4  5  1  0  0  0  0
  5 23  1  0  0  0  0
  5 22  1  0  0  0  0
  5 21  1  0  0  0  0
  6  4  2  0  0  0  0
  6  7  1  0  0  0  0
  7  8  1  0  0  0  0
  7 24  1  0  0  0  0
  8  9  1  0  0  0  0
  8 26  1  0  0  0  0
  9 28  1  0  0  0  0
 10 30  1  0  0  0  0
 11 12  1  0  0  0  0
 11 10  1  0  0  0  0
 12 19  1  0  0  0  0
 13 12  2  0  0  0  0
 14 13  2  0  0  0  0
 15 17  1  0  0  0  0
 15 14  1  0  0  0  0
 16 15  1  0  0  0  0
 17 11  2  0  0  0  0
 18 34  1  0  0  0  0
 18 14  1  0  0  0  0
 18 32  1  0  0  0  0
 19 36  1  0  0  0  0
 19 35  1  0  0  0  0
 20  2  1  0  0  0  0
 25  7  1  0  0  0  0
 27  8  1  0  0  0  0
 29 10  1  0  0  0  0
 31 17  1  0  0  0  0
 33 18  1  0  0  0  0
M  END
$$$$
