36
rmsd184.gzmat
S          0.00000        0.00000        0.00000
C          1.69210        0.00000        0.00000
N          2.21340        0.00000        1.25110
C          1.23930       -0.02900        2.26070
C          1.61330       -0.07640        3.68590
C         -0.03720       -0.02220        1.73210
C         -1.31600       -0.03950        2.46800
C         -2.39100        0.76380        1.71500
O         -2.23550        0.47540        0.33370
C          3.65830       -0.01240        1.54300
C          4.47610        0.65690        0.48840
C          5.13720       -0.06690       -0.56890
N          5.90840        0.62460       -1.48990
C          6.07920        1.92750       -1.41200
N          5.46000        2.66560       -0.38050
H          5.60880        3.68430       -0.31720
C          4.68110        2.02380        0.54440
C          6.92520        2.65450       -2.37860
N          5.08030       -1.38850       -0.77150
H          2.30520        0.00920       -0.89610
H          0.72650       -0.18960        4.34480
H          2.11710        0.84310        4.03620
H          2.26170       -0.93530        3.93790
H         -1.21080        0.37290        3.50020
H         -1.66030       -1.09310        2.62600
H         -2.22470        1.85910        1.78290
H         -3.41390        0.52640        2.06100
H         -2.94570       -0.12670        0.00190
H          3.97920       -1.07540        1.71420
H          3.83080        0.48660        2.54050
H          4.22960        2.65180        1.33900
H          7.09970        2.05870       -3.30870
H          7.94640        2.85160       -1.97920
H          6.51210        3.62520       -2.71140
H          4.56980       -2.01290       -0.17060
H          5.60430       -1.81760       -1.54130
