rmsd98.gzmat
 OpenBabel08211713363D

 36 36  0  0  0  0  0  0  0  0999 V2000
    0.0000    0.0000    0.0000 S   0  0  0  0  0  0  0  0  0  0  0  0
    1.6891    0.0000    0.0000 C   0  0  0  0  0  0  0  0  0  0  0  0
    2.1961    0.0000    1.2594 N   0  0  0  0  0  0  0  0  0  0  0  0
    1.2154   -0.0294    2.2610 C   0  0  0  0  0  0  0  0  0  0  0  0
    1.5709   -0.1729    3.6836 C   0  0  0  0  0  0  0  0  0  0  0  0
   -0.0586    0.0329    1.7165 C   0  0  0  0  0  0  0  0  0  0  0  0
   -1.2933    0.2410    2.4960 C   0  0  0  0  0  0  0  0  0  0  0  0
   -1.3800    1.7304    2.8919 C   0  0  0  0  0  0  0  0  0  0  0  0
   -0.0957    2.0928    3.3871 O   0  0  0  0  0  0  0  0  0  0  0  0
    3.6369    0.0837    1.5347 C   0  0  0  0  0  0  0  0  0  0  0  0
    4.2515    1.3613    1.0542 C   0  0  0  0  0  0  0  0  0  0  0  0
    3.7930    2.6765    1.4319 C   0  0  0  0  0  0  0  0  0  0  0  0
    4.5308    3.7875    1.0465 N   0  0  0  0  0  0  0  0  0  0  0  0
    5.6284    3.6813    0.3285 C   0  0  0  0  0  0  0  0  0  0  0  0
    6.0796    2.4147   -0.0947 N   0  0  0  0  0  0  0  0  0  0  0  0
    6.9359    2.3373   -0.6647 H   0  0  0  0  0  0  0  0  0  0  0  0
    5.3952    1.2891    0.2791 C   0  0  0  0  0  0  0  0  0  0  0  0
    6.4192    4.8671   -0.0581 C   0  0  0  0  0  0  0  0  0  0  0  0
    2.6997    2.9812    2.1411 N   0  0  0  0  0  0  0  0  0  0  0  0
    2.3234   -0.0085   -0.8889 H   0  0  0  0  0  0  0  0  0  0  0  0
    0.7109    0.0737    4.3467 H   0  0  0  0  0  0  0  0  0  0  0  0
    2.3864    0.4783    4.0317 H   0  0  0  0  0  0  0  0  0  0  0  0
    1.8484   -1.2182    3.9361 H   0  0  0  0  0  0  0  0  0  0  0  0
   -1.3000   -0.3971    3.4153 H   0  0  0  0  0  0  0  0  0  0  0  0
   -2.2253   -0.0595    1.9626 H   0  0  0  0  0  0  0  0  0  0  0  0
   -2.1562    1.8962    3.6638 H   0  0  0  0  0  0  0  0  0  0  0  0
   -1.5721    2.3875    2.0231 H   0  0  0  0  0  0  0  0  0  0  0  0
   -0.1816    2.6467    4.1930 H   0  0  0  0  0  0  0  0  0  0  0  0
    4.1382   -0.8163    1.0757 H   0  0  0  0  0  0  0  0  0  0  0  0
    3.8231   -0.0351    2.6409 H   0  0  0  0  0  0  0  0  0  0  0  0
    5.8151    0.3191   -0.0606 H   0  0  0  0  0  0  0  0  0  0  0  0
    5.9540    5.8146    0.3099 H   0  0  0  0  0  0  0  0  0  0  0  0
    6.5177    4.9939   -1.1551 H   0  0  0  0  0  0  0  0  0  0  0  0
    7.4454    4.8630    0.3668 H   0  0  0  0  0  0  0  0  0  0  0  0
    2.0164    2.3086    2.4518 H   0  0  0  0  0  0  0  0  0  0  0  0
    2.4862    3.9611    2.3521 H   0  0  0  0  0  0  0  0  0  0  0  0
  1  6  1  0  0  0  0
  2  1  1  0  0  0  0
  2  3  1  0  0  0  0
  3 10  1  0  0  0  0
  3  4  1  0  0  0  0
  4  5  1  0  0  0  0
  5 23  1  0  0  0  0
  5 22  1  0  0  0  0
  5 21  1  0  0  0  0
  6  4  2  0  0  0  0
  6  7  1  0  0  0  0
  7  8  1  0  0  0  0
  7 24  1  0  0  0  0
  8  9  1  0  0  0  0
  8 26  1  0  0  0  0
  9 28  1  0  0  0  0
 10 30  1  0  0  0  0
 11 12  1  0  0  0  0
 11 10  1  0  0  0  0
 12 19  1  0  0  0  0
 13 12  2  0  0  0  0
 14 13  2  0  0  0  0
 15 17  1  0  0  0  0
 15 14  1  0  0  0  0
 16 15  1  0  0  0  0
 17 11  2  0  0  0  0
 18 32  1  0  0  0  0
 18 14  1  0  0  0  0
 18 34  1  0  0  0  0
 19 36  1  0  0  0  0
 19 35  1  0  0  0  0
 20  2  1  0  0  0  0
 25  7  1  0  0  0  0
 27  8  1  0  0  0  0
 29 10  1  0  0  0  0
 31 17  1  0  0  0  0
M  RAD  2  18   2  33   2
M  END
$$$$
