rmsd247.gzmat
 OpenBabel08211713363D

 36 37  0  0  0  0  0  0  0  0999 V2000
    0.0000    0.0000    0.0000 S   0  0  0  0  0  0  0  0  0  0  0  0
    1.6923    0.0000    0.0000 C   0  0  0  0  0  0  0  0  0  0  0  0
    2.2163    0.0000    1.2502 N   0  0  0  0  0  0  0  0  0  0  0  0
    1.2419    0.0315    2.2616 C   0  0  0  0  0  0  0  0  0  0  0  0
    1.6168    0.0965    3.6858 C   0  0  0  0  0  0  0  0  0  0  0  0
   -0.0342    0.0215    1.7352 C   0  0  0  0  0  0  0  0  0  0  0  0
   -1.3128    0.0440    2.4710 C   0  0  0  0  0  0  0  0  0  0  0  0
   -2.4065   -0.7100    1.6950 C   0  0  0  0  0  0  0  0  0  0  0  0
   -2.2323   -0.4009    0.3202 O   0  0  0  0  0  0  0  0  0  0  0  0
    3.6606    0.0902    1.5260 C   0  0  0  0  0  0  0  0  0  0  0  0
    4.5073   -0.6797    0.5660 C   0  0  0  0  0  0  0  0  0  0  0  0
    4.5153   -2.1211    0.5294 C   0  0  0  0  0  0  0  0  0  0  0  0
    5.4012   -2.7813   -0.3038 N   0  0  0  0  0  0  0  0  0  0  0  0
    6.2520   -2.1240   -1.0654 C   0  0  0  0  0  0  0  0  0  0  0  0
    6.2672   -0.7138   -1.0625 N   0  0  0  0  0  0  0  0  0  0  0  0
    6.9434   -0.2062   -1.6544 H   0  0  0  0  0  0  0  0  0  0  0  0
    5.4082   -0.0212   -0.2501 C   0  0  0  0  0  0  0  0  0  0  0  0
    7.2138   -2.8329   -1.9323 C   0  0  0  0  0  0  0  0  0  0  0  0
    3.7222   -2.9184    1.2569 N   0  0  0  0  0  0  0  0  0  0  0  0
    2.3109    0.0023   -0.8947 H   0  0  0  0  0  0  0  0  0  0  0  0
    0.7297    0.0459    4.3521 H   0  0  0  0  0  0  0  0  0  0  0  0
    2.1138    1.0509    3.9513 H   0  0  0  0  0  0  0  0  0  0  0  0
    2.2746   -0.7237    4.0156 H   0  0  0  0  0  0  0  0  0  0  0  0
   -1.6334    1.1000    2.6631 H   0  0  0  0  0  0  0  0  0  0  0  0
   -1.2167   -0.3996    3.4908 H   0  0  0  0  0  0  0  0  0  0  0  0
   -3.4254   -0.4495    2.0360 H   0  0  0  0  0  0  0  0  0  0  0  0
   -2.2761   -1.8105    1.7417 H   0  0  0  0  0  0  0  0  0  0  0  0
   -2.9093    0.2464    0.0015 H   0  0  0  0  0  0  0  0  0  0  0  0
    3.8660   -0.2579    2.5774 H   0  0  0  0  0  0  0  0  0  0  0  0
    3.9436    1.1823    1.5350 H   0  0  0  0  0  0  0  0  0  0  0  0
    5.4839    1.0862   -0.2737 H   0  0  0  0  0  0  0  0  0  0  0  0
    6.9712   -3.9213   -2.0170 H   0  0  0  0  0  0  0  0  0  0  0  0
    8.2507   -2.8080   -1.5287 H   0  0  0  0  0  0  0  0  0  0  0  0
    7.2550   -2.4528   -2.9710 H   0  0  0  0  0  0  0  0  0  0  0  0
    3.0157   -2.5526    1.8676 H   0  0  0  0  0  0  0  0  0  0  0  0
    3.8074   -3.9360    1.1940 H   0  0  0  0  0  0  0  0  0  0  0  0
  1  2  1  0  0  0  0
  1  6  1  0  0  0  0
  2  3  1  0  0  0  0
  3 10  1  0  0  0  0
  3  4  1  0  0  0  0
  4  5  1  0  0  0  0
  5 22  1  0  0  0  0
  5 23  1  0  0  0  0
  5 21  1  0  0  0  0
  6  4  2  0  0  0  0
  6  7  1  0  0  0  0
  7 24  1  0  0  0  0
  7 25  1  0  0  0  0
  8 27  1  0  0  0  0
  8 26  1  0  0  0  0
  8  7  1  0  0  0  0
  9  8  1  0  0  0  0
 10 30  1  0  0  0  0
 10 29  1  0  0  0  0
 11 10  1  0  0  0  0
 12 11  1  0  0  0  0
 12 19  1  0  0  0  0
 13 12  2  0  0  0  0
 14 15  1  0  0  0  0
 14 13  2  0  0  0  0
 15 17  1  0  0  0  0
 16 15  1  0  0  0  0
 17 11  2  0  0  0  0
 18 33  1  0  0  0  0
 18 14  1  0  0  0  0
 19 35  1  0  0  0  0
 20  2  1  0  0  0  0
 28  9  1  0  0  0  0
 31 17  1  0  0  0  0
 32 18  1  0  0  0  0
 34 18  1  0  0  0  0
 36 19  1  0  0  0  0
M  END
$$$$
