52

S          0.12160        0.25330        0.17210
C          1.89180        0.30850        0.08050
C          2.61080        0.47020        1.27210
C          4.00190        0.52810        1.25690
C          4.66430        0.46320        0.02950
Cl         6.42000        0.58670        0.02630
C          3.96750        0.30600       -1.16740
C          2.56690        0.17910       -1.15300
C          1.78400       -0.06790       -2.39100
C          2.09530       -1.00440       -3.31490
C          3.25010       -1.95780       -3.31840
C          4.29300       -1.58190       -4.37880
N          5.33760       -2.58620       -4.54980
C          6.25550       -2.25330       -5.63610
C          7.13220       -1.03700       -5.31790
N          7.82110       -1.19930       -4.04320
C          6.98830       -1.66460       -2.93650
C          6.13540       -2.85900       -3.35570
C          8.68780       -0.08590       -3.69790
C          8.07610        1.32300       -3.79960
O          6.82110        1.47010       -3.16720
C          0.54280        0.73590       -2.53050
C          0.15310        1.29060       -3.76040
C         -1.05100        1.98180       -3.89240
C         -1.88520        2.14660       -2.78210
C         -1.50330        1.63410       -1.54250
C         -0.29550        0.93570       -1.41520
H          2.07360        0.56770        2.21790
H          4.56750        0.65420        2.18080
H          4.50500        0.30430       -2.11480
H          1.40380       -1.10330       -4.15940
H          2.88500       -2.97330       -3.55000
H          3.71200       -1.99800       -2.32220
H          4.68440       -0.57220       -4.13600
H          3.78420       -1.47480       -5.35230
H          5.68100       -2.06290       -6.55730
H          6.89900       -3.13050       -5.81850
H          7.88950       -0.91190       -6.11260
H          6.49770       -0.12730       -5.34190
H          7.64890       -1.95900       -2.10300
H          6.33070       -0.87050       -2.54110
H          6.79280       -3.71400       -3.58620
H          5.48660       -3.16580       -2.52230
H          9.58330       -0.09420       -4.35070
H          9.05420       -0.25510       -2.67050
H          7.90730        1.57730       -4.85760
H          8.81970        2.05470       -3.42110
H          6.92490        1.33460       -2.21400
H          0.81600        1.17550       -4.62060
H         -1.33460        2.40080       -4.86040
H         -2.82670        2.69270       -2.87540
H         -2.13640        1.78010       -0.66430
