52
rmsd68.gzmat
S          0.00000        0.00000        0.00000
C          1.76910        0.00000        0.00000
C          2.45050        0.00000        1.21580
C          3.84370        0.05980        1.22820
C          4.51130        0.15350        0.01420
Cl         6.21870        0.27040        0.01110
C          3.85610        0.14720       -1.20760
C          2.46480        0.02210       -1.21560
C          1.72960       -0.09190       -2.47840
C          2.02520       -0.97610       -3.44590
C          3.12060       -1.98180       -3.37930
C          4.29930       -1.54670       -4.27940
N          5.41760       -2.49180       -4.05530
C          6.31690       -2.59070       -5.22020
C          7.21640       -1.34510       -5.41770
N          8.02200       -1.15000       -4.18940
C          7.14270       -0.94570       -3.01330
C          6.21180       -2.17290       -2.85230
C          8.97820       -0.02680       -4.34630
C         10.16110       -0.27840       -3.38470
O         10.74510       -1.53770       -3.63520
C          0.55070        0.77720       -2.58480
C          0.29390        1.50330       -3.74980
C         -0.86390        2.27030       -3.84910
C         -1.76460        2.32120       -2.78580
C         -1.50180        1.62300       -1.60820
C         -0.34070        0.86140       -1.50990
H          1.91000       -0.04050        2.16400
H          4.38670        0.04480        2.17240
H          4.40130        0.23760       -2.14780
H          1.42330       -1.01980       -4.35750
H          2.75860       -2.97990       -3.71050
H          3.47040       -2.15250       -2.34030
H          4.57150       -0.48980       -4.07960
H          3.98190       -1.59290       -5.34330
H          5.72420       -2.78560       -6.13620
H          6.95990       -3.48820       -5.05950
H          7.90950       -1.52450       -6.26750
H          6.59970       -0.46080       -5.67630
H          7.78910       -0.86190       -2.11180
H          6.54870       -0.01110       -3.07820
H          6.82580       -3.07490       -2.62160
H          5.53480       -2.02220       -1.98580
H          8.52970        0.96900       -4.16010
H          9.36620       -0.01760       -5.38860
H          9.84990       -0.24760       -2.32540
H         10.98360        0.43860       -3.55430
H         10.02360       -2.19400       -3.78940
H          1.00300        1.47120       -4.57550
H         -1.06650        2.83050       -4.76030
H         -2.67250        2.91580       -2.87070
H         -2.20650        1.68870       -0.77790
