
     RDKit          3D

 52 55  0  0  0  0  0  0  0  0999 V2000
    0.1377    0.3722    0.1191 S   0  0  0  0  0  0  0  0  0  0  0  0
    1.9040    0.3139   -0.0198 C   0  0  0  0  0  0  0  0  0  0  0  0
    2.6707    0.4076    1.1504 C   0  0  0  0  0  0  0  0  0  0  0  0
    4.0614    0.3517    1.0946 C   0  0  0  0  0  0  0  0  0  0  0  0
    4.6819    0.2439   -0.1524 C   0  0  0  0  0  0  0  0  0  0  0  0
    6.4270    0.1612   -0.2472 Cl  0  0  0  0  0  0  0  0  0  0  0  0
    3.9323    0.1693   -1.3238 C   0  0  0  0  0  0  0  0  0  0  0  0
    2.5302    0.1504   -1.2738 C   0  0  0  0  0  0  0  0  0  0  0  0
    1.7042   -0.0398   -2.4946 C   0  0  0  0  0  0  0  0  0  0  0  0
    1.9451   -0.9893   -3.4283 C   0  0  0  0  0  0  0  0  0  0  0  0
    3.0092   -2.0549   -3.3944 C   0  0  0  0  0  0  0  0  0  0  0  0
    2.8034   -3.0451   -2.2286 C   0  0  0  0  0  0  0  0  0  0  0  0
    3.9366   -3.9442   -2.0733 N   0  0  0  0  0  0  0  0  0  0  0  0
    5.0879   -3.3497   -1.4005 C   0  0  0  0  0  0  0  0  0  0  0  0
    4.9079   -3.2461    0.1152 C   0  0  0  0  0  0  0  0  0  0  0  0
    4.6086   -4.5590    0.6848 N   0  0  0  0  0  0  0  0  0  0  0  0
    3.4346   -5.1544    0.0543 C   0  0  0  0  0  0  0  0  0  0  0  0
    3.6286   -5.2313   -1.4639 C   0  0  0  0  0  0  0  0  0  0  0  0
    4.5536   -4.5533    2.1420 C   0  0  0  0  0  0  0  0  0  0  0  0
    5.9717   -4.5176    2.7162 C   0  0  0  0  0  0  0  0  0  0  0  0
    6.7601   -5.5032    2.1022 O   0  0  0  0  0  0  0  0  0  0  0  0
    0.5099    0.8355   -2.5981 C   0  0  0  0  0  0  0  0  0  0  0  0
    0.1137    1.4119   -3.8160 C   0  0  0  0  0  0  0  0  0  0  0  0
   -1.0511    2.1727   -3.9107 C   0  0  0  0  0  0  0  0  0  0  0  0
   -1.8379    2.3864   -2.7744 C   0  0  0  0  0  0  0  0  0  0  0  0
   -1.4478    1.8515   -1.5470 C   0  0  0  0  0  0  0  0  0  0  0  0
   -0.2799    1.0829   -1.4563 C   0  0  0  0  0  0  0  0  0  0  0  0
    2.1706    0.5339    2.1131 H   0  0  0  0  0  0  0  0  0  0  0  0
    4.6622    0.4083    2.0029 H   0  0  0  0  0  0  0  0  0  0  0  0
    4.4430    0.1142   -2.2831 H   0  0  0  0  0  0  0  0  0  0  0  0
    1.2235   -1.0528   -4.2489 H   0  0  0  0  0  0  0  0  0  0  0  0
    4.0152   -1.6207   -3.3135 H   0  0  0  0  0  0  0  0  0  0  0  0
    3.0070   -2.6218   -4.3366 H   0  0  0  0  0  0  0  0  0  0  0  0
    1.9063   -3.6489   -2.4366 H   0  0  0  0  0  0  0  0  0  0  0  0
    2.5720   -2.4704   -1.3109 H   0  0  0  0  0  0  0  0  0  0  0  0
    5.2954   -2.3527   -1.8135 H   0  0  0  0  0  0  0  0  0  0  0  0
    5.9728   -3.9762   -1.6070 H   0  0  0  0  0  0  0  0  0  0  0  0
    5.8290   -2.8462    0.5631 H   0  0  0  0  0  0  0  0  0  0  0  0
    4.0999   -2.5221    0.3556 H   0  0  0  0  0  0  0  0  0  0  0  0
    3.2873   -6.1671    0.4630 H   0  0  0  0  0  0  0  0  0  0  0  0
    2.5137   -4.5720    0.2867 H   0  0  0  0  0  0  0  0  0  0  0  0
    4.4685   -5.9189   -1.6682 H   0  0  0  0  0  0  0  0  0  0  0  0
    2.7297   -5.6552   -1.9381 H   0  0  0  0  0  0  0  0  0  0  0  0
    4.0720   -5.4918    2.4597 H   0  0  0  0  0  0  0  0  0  0  0  0
    3.9418   -3.7136    2.5396 H   0  0  0  0  0  0  0  0  0  0  0  0
    5.9357   -4.7086    3.8022 H   0  0  0  0  0  0  0  0  0  0  0  0
    6.4078   -3.5036    2.5889 H   0  0  0  0  0  0  0  0  0  0  0  0
    6.4134   -5.5415    1.1917 H   0  0  0  0  0  0  0  0  0  0  0  0
    0.7403    1.2575   -4.6970 H   0  0  0  0  0  0  0  0  0  0  0  0
   -1.3406    2.6076   -4.8698 H   0  0  0  0  0  0  0  0  0  0  0  0
   -2.7479    2.9874   -2.8383 H   0  0  0  0  0  0  0  0  0  0  0  0
   -2.0435    2.0338   -0.6497 H   0  0  0  0  0  0  0  0  0  0  0  0
  1  2  1  0
  1 27  1  0
  2  3  1  0
  2  8  2  0
  3  4  2  0
  3 28  1  0
  4  5  1  0
  4 29  1  0
  5  6  1  0
  5  7  2  0
  7  8  1  0
  7 30  1  0
  8  9  1  0
  9 10  2  0
  9 22  1  0
 10 11  1  0
 10 31  1  0
 11 12  1  0
 11 32  1  0
 11 33  1  0
 12 13  1  0
 12 34  1  0
 12 35  1  0
 13 14  1  0
 13 18  1  0
 14 15  1  0
 14 36  1  0
 14 37  1  0
 15 16  1  0
 15 38  1  0
 15 39  1  0
 16 17  1  0
 16 19  1  0
 17 18  1  0
 17 40  1  0
 17 41  1  0
 18 42  1  0
 18 43  1  0
 19 20  1  0
 19 44  1  0
 19 45  1  0
 20 21  1  0
 20 46  1  0
 20 47  1  0
 21 48  1  0
 22 23  1  0
 22 27  2  0
 23 24  2  0
 23 49  1  0
 24 25  1  0
 24 50  1  0
 25 26  2  0
 25 51  1  0
 26 27  1  0
 26 52  1  0
M  END

