52
rmsd25.gzmat
S          0.00000        0.00000        0.00000
C          1.77020        0.00000        0.00000
C          2.45270        0.00000        1.21470
C          3.84460        0.07790        1.22520
C          4.50980        0.18400        0.01020
Cl         6.21580        0.33180        0.02140
C          3.85450        0.16660       -1.21140
C          2.46390        0.02920       -1.21650
C          1.72160       -0.07990       -2.47620
C          2.00110       -0.96830       -3.44410
C          3.07510       -1.99660       -3.37040
C          4.23990       -1.61190       -4.30730
N          5.32400       -2.61240       -4.15920
C          6.26970       -2.57050       -5.29290
C          7.15010       -1.29560       -5.31890
N          7.89310       -1.18910       -4.04170
C          6.97920       -1.19100       -2.87480
C          6.08900       -2.45440       -2.90490
C          8.77590       -0.00570       -4.01880
C          8.09870        1.37470       -4.10840
O          7.39700        1.70330       -2.92930
C          0.55210        0.80290       -2.57560
C          0.29840        1.53820       -3.73520
C         -0.84300        2.33170       -3.81830
C         -1.73380        2.39380       -2.74730
C         -1.47900        1.67680       -1.57920
C         -0.33310        0.89130       -1.49610
H          1.91450       -0.05150        2.16290
H          4.38910        0.07050        2.16840
H          4.39870        0.26540       -2.15270
H          1.40160       -0.99940       -4.35720
H          2.68240       -2.99410       -3.66570
H          3.44130       -2.14110       -2.33330
H          4.57180       -0.57260       -4.10020
H          3.88210       -1.62880       -5.35980
H          5.71240       -2.66940       -6.24550
H          6.92230       -3.47040       -5.20910
H          7.89300       -1.37890       -6.14040
H          6.51850       -0.40900       -5.53330
H          7.60530       -1.20590       -1.95690
H          6.34470       -0.27870       -2.82840
H          6.72280       -3.36340       -2.79140
H          5.39260       -2.44360       -2.04110
H          9.50350       -0.11510       -4.85480
H          9.37930       -0.06730       -3.08370
H          7.30520        1.40880       -4.87790
H          8.83630        2.17070       -4.31430
H          7.97480        1.63660       -2.14310
H          0.99690        1.49120       -4.56950
H         -1.03980        2.90550       -4.72220
H         -2.62720        3.01150       -2.81840
H         -2.17710        1.74720       -0.74410
