52
rmsd188.gzmat
S          0.00000        0.00000        0.00000
C          1.76890        0.00000        0.00000
C          2.44820        0.00000        1.21650
C          3.84150        0.04040        1.22900
C          4.51150        0.11210        0.01380
Cl         6.22030        0.13670        0.01690
C          3.85680        0.12350       -1.20930
C          2.46400        0.01920       -1.21680
C          1.71720       -0.09270       -2.47420
C          1.97620       -0.99670       -3.43430
C          3.05060       -2.02820       -3.38090
C          2.76730       -3.01930       -2.22940
N          3.84320       -4.03610       -2.17420
C          5.11330       -3.51160       -1.63300
C          5.06900       -3.20960       -0.11640
N          4.66620       -4.42900        0.62330
C          3.34870       -4.91760        0.14880
C          3.43660       -5.20810       -1.37070
C          4.63930       -4.17510        2.08600
C          6.08950       -4.26140        2.60940
O          6.65760       -5.51220        2.29040
C          0.55050        0.79420       -2.57640
C          0.29740        1.52550       -3.73860
C         -0.84560        2.31620       -3.82640
C         -1.73820        2.37890       -2.75690
C         -1.48370        1.66700       -1.58580
C         -0.33590        0.88480       -1.49740
H          1.90520       -0.02240        2.16450
H          4.38460        0.03190        2.17400
H          4.40570        0.20670       -2.14860
H          1.34990       -1.03790       -4.32990
H          4.04890       -1.56280       -3.25600
H          3.12240       -2.59580       -4.33250
H          1.80140       -3.53490       -2.42920
H          2.64050       -2.47120       -1.27210
H          5.41070       -2.59880       -2.18820
H          5.89530       -4.27880       -1.83950
H          6.08440       -2.91350        0.22590
H          4.38960       -2.35400        0.08130
H          3.11430       -5.86000        0.68880
H          2.52480       -4.20380        0.35560
H          4.19030       -6.00880       -1.55390
H          2.46590       -5.59380       -1.74290
H          4.03820       -4.96910        2.58170
H          4.18270       -3.20420        2.36180
H          6.12690       -4.22260        3.71230
H          6.73380       -3.47130        2.18530
H          6.39640       -5.75090        1.36850
H          0.99700        1.47850       -4.57200
H         -1.04200        2.88710       -4.73260
H         -2.63430        2.99260       -2.83180
H         -2.18440        1.73880       -0.75290
