52
rmsd241.gzmat
S          0.00000        0.00000        0.00000
C          1.76850        0.00000        0.00000
C          2.44340        0.00000        1.21950
C          3.83710        0.03080        1.24020
C          4.51250        0.09580        0.02870
Cl         6.22290        0.14910        0.03370
C          3.86290        0.10650       -1.19600
C          2.46870        0.01420       -1.21360
C          1.73870       -0.07510       -2.48170
C          2.04620       -0.92840       -3.47330
C          3.15930       -1.91560       -3.44500
C          4.31490       -1.42320       -4.34530
N          5.41290       -2.41540       -4.28690
C          6.31750       -2.31630       -5.44910
C          7.24320       -1.07470       -5.41080
N          8.04420       -1.12840       -4.16570
C          7.15980       -1.11450       -2.97670
C          6.20630       -2.33330       -3.04480
C          9.04250       -0.03330       -4.11210
C         10.32370       -0.54620       -4.80650
O         10.79200       -1.71450       -4.16960
C          0.55220        0.78540       -2.58180
C          0.29020        1.51290       -3.74550
C         -0.87100        2.27480       -3.84320
C         -1.77510        2.31420       -2.78220
C         -1.50920        1.61350       -1.60720
C         -0.34200        0.86080       -1.50900
H          1.89710       -0.01860        2.16520
H          4.37470        0.01500        2.18750
H          4.41700        0.18360       -2.13220
H          1.44240       -0.95450       -4.38500
H          2.81270       -2.90940       -3.80530
H          3.52140       -2.11150       -2.41540
H          4.63010       -0.40130       -4.04850
H          3.95050       -1.34960       -5.39340
H          5.72580       -2.32680       -6.38590
H          6.94170       -3.24070       -5.45540
H          7.93670       -1.10300       -6.27750
H          6.64420       -0.14540       -5.50000
H          7.79830       -1.20690       -2.07010
H          6.58270       -0.17250       -2.88070
H          6.80430       -3.27280       -2.98190
H          5.52900       -2.33040       -2.16580
H          9.28630        0.20170       -3.05210
H          8.69560        0.90980       -4.57640
H         11.15950        0.16770       -4.70490
H         10.15380       -0.77820       -5.87210
H         10.02000       -2.30220       -3.98660
H          0.99790        1.48620       -4.57280
H         -1.07320        2.84090       -4.75120
H         -2.68830        2.90040       -2.86760
H         -2.21600        1.66930       -0.77800
