rmsd250.gzmat
 OpenBabel08211713383D

 52 55  0  0  0  0  0  0  0  0999 V2000
    0.0000    0.0000    0.0000 S   0  0  0  0  0  0  0  0  0  0  0  0
    1.7686    0.0000    0.0000 C   0  0  0  0  0  0  0  0  0  0  0  0
    2.4455    0.0000    1.2181 C   0  0  0  0  0  0  0  0  0  0  0  0
    3.8385    0.0313    1.2338 C   0  0  0  0  0  0  0  0  0  0  0  0
    4.5113    0.0933    0.0198 C   0  0  0  0  0  0  0  0  0  0  0  0
    6.2195    0.0945    0.0255 Cl  0  0  0  0  0  0  0  0  0  0  0  0
    3.8593    0.1134   -1.2043 C   0  0  0  0  0  0  0  0  0  0  0  0
    2.4655    0.0193   -1.2159 C   0  0  0  0  0  0  0  0  0  0  0  0
    1.7220   -0.0740   -2.4763 C   0  0  0  0  0  0  0  0  0  0  0  0
    1.9843   -0.9585   -3.4537 C   0  0  0  0  0  0  0  0  0  0  0  0
    3.0613   -1.9872   -3.4249 C   0  0  0  0  0  0  0  0  0  0  0  0
    2.7802   -3.0187   -2.3077 C   0  0  0  0  0  0  0  0  0  0  0  0
    3.9429   -3.9288   -2.1904 N   0  0  0  0  0  0  0  0  0  0  0  0
    5.0726   -3.3274   -1.4530 C   0  0  0  0  0  0  0  0  0  0  0  0
    4.8213   -3.1809    0.0668 C   0  0  0  0  0  0  0  0  0  0  0  0
    4.4726   -4.5006    0.6434 N   0  0  0  0  0  0  0  0  0  0  0  0
    3.2799   -5.0694   -0.0291 C   0  0  0  0  0  0  0  0  0  0  0  0
    3.5779   -5.2051   -1.5431 C   0  0  0  0  0  0  0  0  0  0  0  0
    4.2562   -4.3974    2.1084 C   0  0  0  0  0  0  0  0  0  0  0  0
    5.6406   -4.3903    2.7936 C   0  0  0  0  0  0  0  0  0  0  0  0
    6.3928   -5.5194    2.4078 O   0  0  0  0  0  0  0  0  0  0  0  0
    0.5551    0.8142   -2.5692 C   0  0  0  0  0  0  0  0  0  0  0  0
    0.3040    1.5564   -3.7251 C   0  0  0  0  0  0  0  0  0  0  0  0
   -0.8401    2.3460   -3.8085 C   0  0  0  0  0  0  0  0  0  0  0  0
   -1.7346    2.3995   -2.7400 C   0  0  0  0  0  0  0  0  0  0  0  0
   -1.4802    1.6802   -1.5735 C   0  0  0  0  0  0  0  0  0  0  0  0
   -0.3330    0.8963   -1.4910 C   0  0  0  0  0  0  0  0  0  0  0  0
    1.9005   -0.0157    2.1651 H   0  0  0  0  0  0  0  0  0  0  0  0
    4.3795    0.0214    2.1801 H   0  0  0  0  0  0  0  0  0  0  0  0
    4.4112    0.1965   -2.1418 H   0  0  0  0  0  0  0  0  0  0  0  0
    1.3583   -0.9818   -4.3505 H   0  0  0  0  0  0  0  0  0  0  0  0
    4.0585   -1.5240   -3.2818 H   0  0  0  0  0  0  0  0  0  0  0  0
    3.1432   -2.5224   -4.3942 H   0  0  0  0  0  0  0  0  0  0  0  0
    1.8802   -3.6103   -2.5836 H   0  0  0  0  0  0  0  0  0  0  0  0
    2.5366   -2.5017   -1.3559 H   0  0  0  0  0  0  0  0  0  0  0  0
    5.3194   -2.3372   -1.8881 H   0  0  0  0  0  0  0  0  0  0  0  0
    5.9588   -3.9816   -1.6237 H   0  0  0  0  0  0  0  0  0  0  0  0
    5.7537   -2.8239    0.5563 H   0  0  0  0  0  0  0  0  0  0  0  0
    4.0371   -2.4165    0.2523 H   0  0  0  0  0  0  0  0  0  0  0  0
    3.0884   -6.0777    0.3975 H   0  0  0  0  0  0  0  0  0  0  0  0
    2.3649   -4.4630    0.1294 H   0  0  0  0  0  0  0  0  0  0  0  0
    4.4341   -5.9041   -1.6916 H   0  0  0  0  0  0  0  0  0  0  0  0
    2.7086   -5.6516   -2.0666 H   0  0  0  0  0  0  0  0  0  0  0  0
    3.6951   -5.2929    2.4555 H   0  0  0  0  0  0  0  0  0  0  0  0
    3.6663   -3.5097    2.4097 H   0  0  0  0  0  0  0  0  0  0  0  0
    5.5521   -4.4874    3.8900 H   0  0  0  0  0  0  0  0  0  0  0  0
    6.2258   -3.4875    2.5434 H   0  0  0  0  0  0  0  0  0  0  0  0
    6.2510   -5.6783    1.4433 H   0  0  0  0  0  0  0  0  0  0  0  0
    1.0055    1.5176   -4.5574 H   0  0  0  0  0  0  0  0  0  0  0  0
   -1.0365    2.9229   -4.7109 H   0  0  0  0  0  0  0  0  0  0  0  0
   -2.6322    3.0112   -2.8132 H   0  0  0  0  0  0  0  0  0  0  0  0
   -2.1799    1.7468   -0.7392 H   0  0  0  0  0  0  0  0  0  0  0  0
  1  2  1  0  0  0  0
  2  3  2  0  0  0  0
  3  4  1  0  0  0  0
  3 28  1  0  0  0  0
  4 29  1  0  0  0  0
  5  6  1  0  0  0  0
  5  4  2  0  0  0  0
  7  5  1  0  0  0  0
  8  7  2  0  0  0  0
  8  2  1  0  0  0  0
  9  8  1  0  0  0  0
 10 11  1  0  0  0  0
 10  9  2  0  0  0  0
 11 32  1  0  0  0  0
 11 12  1  0  0  0  0
 12 13  1  0  0  0  0
 12 35  1  0  0  0  0
 13 18  1  0  0  0  0
 13 14  1  0  0  0  0
 14 15  1  0  0  0  0
 15 39  1  0  0  0  0
 15 38  1  0  0  0  0
 15 16  1  0  0  0  0
 16 19  1  0  0  0  0
 17 41  1  0  0  0  0
 17 40  1  0  0  0  0
 17 16  1  0  0  0  0
 18 17  1  0  0  0  0
 19 45  1  0  0  0  0
 19 44  1  0  0  0  0
 19 20  1  0  0  0  0
 20 46  1  0  0  0  0
 21 20  1  0  0  0  0
 22  9  1  0  0  0  0
 22 27  2  0  0  0  0
 23 22  1  0  0  0  0
 24 23  2  0  0  0  0
 24 25  1  0  0  0  0
 25 26  2  0  0  0  0
 26 27  1  0  0  0  0
 26 52  1  0  0  0  0
 27  1  1  0  0  0  0
 30  7  1  0  0  0  0
 31 10  1  0  0  0  0
 33 11  1  0  0  0  0
 34 12  1  0  0  0  0
 36 14  1  0  0  0  0
 37 14  1  0  0  0  0
 42 18  1  0  0  0  0
 43 18  1  0  0  0  0
 47 20  1  0  0  0  0
 48 21  1  0  0  0  0
 49 23  1  0  0  0  0
 50 24  1  0  0  0  0
 51 25  1  0  0  0  0
M  END
$$$$
