
     RDKit          3D

 52 55  0  0  0  0  0  0  0  0999 V2000
    0.1015   -0.0468    0.0973 S   0  0  0  0  0  0  0  0  0  0  0  0
    1.8718    0.0427    0.0336 C   0  0  0  0  0  0  0  0  0  0  0  0
    2.5882    0.0612    1.2370 C   0  0  0  0  0  0  0  0  0  0  0  0
    3.9791    0.1248    1.2290 C   0  0  0  0  0  0  0  0  0  0  0  0
    4.6471    0.1889    0.0036 C   0  0  0  0  0  0  0  0  0  0  0  0
    6.3968    0.2266   -0.0266 Cl  0  0  0  0  0  0  0  0  0  0  0  0
    3.9459    0.1819   -1.1994 C   0  0  0  0  0  0  0  0  0  0  0  0
    2.5477    0.0653   -1.2039 C   0  0  0  0  0  0  0  0  0  0  0  0
    1.7730   -0.0381   -2.4682 C   0  0  0  0  0  0  0  0  0  0  0  0
    2.0859   -0.8852   -3.4750 C   0  0  0  0  0  0  0  0  0  0  0  0
    3.1715   -1.9296   -3.4666 C   0  0  0  0  0  0  0  0  0  0  0  0
    2.8724   -3.0136   -2.4123 C   0  0  0  0  0  0  0  0  0  0  0  0
    3.9453   -3.9879   -2.2761 N   0  0  0  0  0  0  0  0  0  0  0  0
    5.1400   -3.4874   -1.5964 C   0  0  0  0  0  0  0  0  0  0  0  0
    4.9401   -3.3077   -0.0900 C   0  0  0  0  0  0  0  0  0  0  0  0
    4.4684   -4.5459    0.5172 N   0  0  0  0  0  0  0  0  0  0  0  0
    3.2693   -5.0665   -0.1312 C   0  0  0  0  0  0  0  0  0  0  0  0
    3.5222   -5.2290   -1.6344 C   0  0  0  0  0  0  0  0  0  0  0  0
    4.4350   -4.5204    1.9672 C   0  0  0  0  0  0  0  0  0  0  0  0
    3.7565   -3.3142    2.6320 C   0  0  0  0  0  0  0  0  0  0  0  0
    2.4330   -3.0680    2.1963 O   0  0  0  0  0  0  0  0  0  0  0  0
    0.5374    0.7817   -2.5215 C   0  0  0  0  0  0  0  0  0  0  0  0
    0.1509    1.4799   -3.6765 C   0  0  0  0  0  0  0  0  0  0  0  0
   -1.0547    2.1796   -3.7270 C   0  0  0  0  0  0  0  0  0  0  0  0
   -1.8925    2.2053   -2.6075 C   0  0  0  0  0  0  0  0  0  0  0  0
   -1.5146    1.5440   -1.4388 C   0  0  0  0  0  0  0  0  0  0  0  0
   -0.3058    0.8374   -1.3919 C   0  0  0  0  0  0  0  0  0  0  0  0
    2.0515    0.0162    2.1857 H   0  0  0  0  0  0  0  0  0  0  0  0
    4.5446    0.1341    2.1613 H   0  0  0  0  0  0  0  0  0  0  0  0
    4.4906    0.2541   -2.1391 H   0  0  0  0  0  0  0  0  0  0  0  0
    1.4006   -0.9011   -4.3285 H   0  0  0  0  0  0  0  0  0  0  0  0
    4.1565   -1.4890   -3.2622 H   0  0  0  0  0  0  0  0  0  0  0  0
    3.2520   -2.4079   -4.4536 H   0  0  0  0  0  0  0  0  0  0  0  0
    1.9626   -3.5532   -2.7206 H   0  0  0  0  0  0  0  0  0  0  0  0
    2.6126   -2.5115   -1.4610 H   0  0  0  0  0  0  0  0  0  0  0  0
    5.4546   -2.5301   -2.0378 H   0  0  0  0  0  0  0  0  0  0  0  0
    5.9553   -4.2111   -1.7664 H   0  0  0  0  0  0  0  0  0  0  0  0
    5.8970   -3.0157    0.3742 H   0  0  0  0  0  0  0  0  0  0  0  0
    4.2368   -2.4706    0.0834 H   0  0  0  0  0  0  0  0  0  0  0  0
    3.0298   -6.0502    0.3079 H   0  0  0  0  0  0  0  0  0  0  0  0
    2.3873   -4.4117    0.0280 H   0  0  0  0  0  0  0  0  0  0  0  0
    4.3200   -5.9788   -1.7748 H   0  0  0  0  0  0  0  0  0  0  0  0
    2.6138   -5.6049   -2.1321 H   0  0  0  0  0  0  0  0  0  0  0  0
    5.4713   -4.5558    2.3575 H   0  0  0  0  0  0  0  0  0  0  0  0
    3.9479   -5.4512    2.3101 H   0  0  0  0  0  0  0  0  0  0  0  0
    4.3156   -2.3969    2.3955 H   0  0  0  0  0  0  0  0  0  0  0  0
    3.8115   -3.4432    3.7333 H   0  0  0  0  0  0  0  0  0  0  0  0
    1.8984   -3.8519    2.3778 H   0  0  0  0  0  0  0  0  0  0  0  0
    0.8161    1.4686   -4.5427 H   0  0  0  0  0  0  0  0  0  0  0  0
   -1.3371    2.7127   -4.6376 H   0  0  0  0  0  0  0  0  0  0  0  0
   -2.8349    2.7571   -2.6365 H   0  0  0  0  0  0  0  0  0  0  0  0
   -2.1524    1.5785   -0.5527 H   0  0  0  0  0  0  0  0  0  0  0  0
  1  2  1  0
  1 27  1  0
  2  3  1  0
  2  8  2  0
  3  4  2  0
  3 28  1  0
  4  5  1  0
  4 29  1  0
  5  6  1  0
  5  7  2  0
  7  8  1  0
  7 30  1  0
  8  9  1  0
  9 10  2  0
  9 22  1  0
 10 11  1  0
 10 31  1  0
 11 12  1  0
 11 32  1  0
 11 33  1  0
 12 13  1  0
 12 34  1  0
 12 35  1  0
 13 14  1  0
 13 18  1  0
 14 15  1  0
 14 36  1  0
 14 37  1  0
 15 16  1  0
 15 38  1  0
 15 39  1  0
 16 17  1  0
 16 19  1  0
 17 18  1  0
 17 40  1  0
 17 41  1  0
 18 42  1  0
 18 43  1  0
 19 20  1  0
 19 44  1  0
 19 45  1  0
 20 21  1  0
 20 46  1  0
 20 47  1  0
 21 48  1  0
 22 23  1  0
 22 27  2  0
 23 24  2  0
 23 49  1  0
 24 25  1  0
 24 50  1  0
 25 26  2  0
 25 51  1  0
 26 27  1  0
 26 52  1  0
M  END

