52
rmsd95.gzmat
S          0.00000        0.00000        0.00000
C          1.76910        0.00000        0.00000
C          2.44770        0.00000        1.21710
C          3.84130        0.03020        1.23120
C          4.51260        0.08100        0.01630
Cl         6.22280        0.07440        0.02170
C          3.85990        0.09740       -1.20720
C          2.46530        0.01550       -1.21630
C          1.71910       -0.06900       -2.47600
C          1.97250       -0.95240       -3.45650
C          3.04110       -1.99000       -3.43350
C          2.76950       -3.00060       -2.29630
N          3.84640       -4.01750       -2.27830
C          5.11260       -3.51370       -1.70740
C          5.06600       -3.27880       -0.17720
N          4.64610       -4.52820        0.49850
C          3.32690       -4.98320       -0.00080
C          3.43560       -5.22300       -1.52640
C          4.65660       -4.38130        1.96640
C          3.66060       -3.37830        2.57360
O          2.33780       -3.87040        2.54730
C          0.55920        0.82920       -2.56310
C          0.31620        1.58530       -3.71120
C         -0.81930        2.38810       -3.78630
C         -1.71580        2.43650       -2.71950
C         -1.47000        1.70120       -1.56120
C         -0.32860        0.90840       -1.48460
H          1.90390       -0.02130        2.16570
H          4.38280        0.03070        2.17670
H          4.41140        0.16760       -2.14550
H          1.34420       -0.96850       -4.35140
H          4.04380       -1.53250       -3.31630
H          3.09620       -2.54200       -4.39540
H          1.79930       -3.50910       -2.49180
H          2.65610       -2.47210       -1.32630
H          5.40810       -2.57610       -2.22010
H          5.89730       -4.26950       -1.94210
H          6.08230       -3.01300        0.18400
H          4.39750       -2.42200        0.04920
H          3.06840       -5.93310        0.50990
H          2.50810       -4.26400        0.22090
H          4.19830       -6.01030       -1.72730
H          2.47300       -5.59950       -1.92670
H          5.69350       -4.10310        2.26490
H          4.47880       -5.39280        2.39790
H          3.58080       -2.44660        1.98130
H          3.92520       -3.12680        3.61590
H          2.28050       -4.74200        2.98340
H          1.01730        1.54870       -4.54360
H         -1.00660        2.97980       -4.68040
H         -2.60690        3.05810       -2.78650
H         -2.17100        1.76390       -0.72790
