
     RDKit          3D

 52 55  0  0  0  0  0  0  0  0999 V2000
   -0.1635    0.0722    0.0561 S   0  0  0  0  0  0  0  0  0  0  0  0
    1.6084    0.0534    0.0771 C   0  0  0  0  0  0  0  0  0  0  0  0
    2.2581    0.0501    1.3196 C   0  0  0  0  0  0  0  0  0  0  0  0
    3.6491    0.0288    1.3961 C   0  0  0  0  0  0  0  0  0  0  0  0
    4.3895    0.0523    0.2116 C   0  0  0  0  0  0  0  0  0  0  0  0
    6.1394    0.0657    0.2819 Cl  0  0  0  0  0  0  0  0  0  0  0  0
    3.7567    0.0661   -1.0287 C   0  0  0  0  0  0  0  0  0  0  0  0
    2.3561    0.0201   -1.1194 C   0  0  0  0  0  0  0  0  0  0  0  0
    1.6665   -0.0562   -2.4311 C   0  0  0  0  0  0  0  0  0  0  0  0
    2.0607   -0.8685   -3.4394 C   0  0  0  0  0  0  0  0  0  0  0  0
    3.2107   -1.8295   -3.4537 C   0  0  0  0  0  0  0  0  0  0  0  0
    4.4106   -1.3350   -4.2831 C   0  0  0  0  0  0  0  0  0  0  0  0
    5.5182   -2.2757   -4.2458 N   0  0  0  0  0  0  0  0  0  0  0  0
    6.3906   -2.2732   -5.4108 C   0  0  0  0  0  0  0  0  0  0  0  0
    7.3994   -1.1207   -5.4131 C   0  0  0  0  0  0  0  0  0  0  0  0
    8.1863   -1.1391   -4.1833 N   0  0  0  0  0  0  0  0  0  0  0  0
    7.3298   -1.0873   -3.0028 C   0  0  0  0  0  0  0  0  0  0  0  0
    6.3182   -2.2368   -3.0247 C   0  0  0  0  0  0  0  0  0  0  0  0
    9.2702   -0.1632   -4.1696 C   0  0  0  0  0  0  0  0  0  0  0  0
   10.4401   -0.6706   -5.0157 C   0  0  0  0  0  0  0  0  0  0  0  0
   10.7568   -1.9887   -4.6524 O   0  0  0  0  0  0  0  0  0  0  0  0
    0.4462    0.7784   -2.5667 C   0  0  0  0  0  0  0  0  0  0  0  0
    0.1412    1.4518   -3.7617 C   0  0  0  0  0  0  0  0  0  0  0  0
   -1.0410    2.1766   -3.9045 C   0  0  0  0  0  0  0  0  0  0  0  0
   -1.9414    2.2569   -2.8372 C   0  0  0  0  0  0  0  0  0  0  0  0
   -1.6450    1.6272   -1.6293 C   0  0  0  0  0  0  0  0  0  0  0  0
   -0.4577    0.8952   -1.4905 C   0  0  0  0  0  0  0  0  0  0  0  0
    1.6657    0.0760    2.2368 H   0  0  0  0  0  0  0  0  0  0  0  0
    4.1571    0.0219    2.3611 H   0  0  0  0  0  0  0  0  0  0  0  0
    4.3559    0.1220   -1.9345 H   0  0  0  0  0  0  0  0  0  0  0  0
    1.4462   -0.8538   -4.3465 H   0  0  0  0  0  0  0  0  0  0  0  0
    2.8842   -2.7865   -3.8928 H   0  0  0  0  0  0  0  0  0  0  0  0
    3.5389   -2.0496   -2.4278 H   0  0  0  0  0  0  0  0  0  0  0  0
    4.6882   -0.3125   -3.9471 H   0  0  0  0  0  0  0  0  0  0  0  0
    4.0919   -1.2200   -5.3316 H   0  0  0  0  0  0  0  0  0  0  0  0
    5.7790   -2.2428   -6.3259 H   0  0  0  0  0  0  0  0  0  0  0  0
    6.9554   -3.2225   -5.4218 H   0  0  0  0  0  0  0  0  0  0  0  0
    8.0712   -1.2216   -6.2791 H   0  0  0  0  0  0  0  0  0  0  0  0
    6.8676   -0.1480   -5.5279 H   0  0  0  0  0  0  0  0  0  0  0  0
    7.9548   -1.1654   -2.1002 H   0  0  0  0  0  0  0  0  0  0  0  0
    6.7989   -0.1115   -2.9334 H   0  0  0  0  0  0  0  0  0  0  0  0
    6.8724   -3.1881   -2.9437 H   0  0  0  0  0  0  0  0  0  0  0  0
    5.6625   -2.1679   -2.1450 H   0  0  0  0  0  0  0  0  0  0  0  0
    9.6119   -0.0640   -3.1272 H   0  0  0  0  0  0  0  0  0  0  0  0
    8.9402    0.8435   -4.5078 H   0  0  0  0  0  0  0  0  0  0  0  0
   11.3218   -0.0287   -4.8497 H   0  0  0  0  0  0  0  0  0  0  0  0
   10.1920   -0.5899   -6.0961 H   0  0  0  0  0  0  0  0  0  0  0  0
    9.8943   -2.3774   -4.4172 H   0  0  0  0  0  0  0  0  0  0  0  0
    0.8550    1.4038   -4.5867 H   0  0  0  0  0  0  0  0  0  0  0  0
   -1.2560    2.6877   -4.8455 H   0  0  0  0  0  0  0  0  0  0  0  0
   -2.8670    2.8282   -2.9373 H   0  0  0  0  0  0  0  0  0  0  0  0
   -2.3295    1.7068   -0.7818 H   0  0  0  0  0  0  0  0  0  0  0  0
  1  2  1  0
  1 27  1  0
  2  3  1  0
  2  8  2  0
  3  4  2  0
  3 28  1  0
  4  5  1  0
  4 29  1  0
  5  6  1  0
  5  7  2  0
  7  8  1  0
  7 30  1  0
  8  9  1  0
  9 10  2  0
  9 22  1  0
 10 11  1  0
 10 31  1  0
 11 12  1  0
 11 32  1  0
 11 33  1  0
 12 13  1  0
 12 34  1  0
 12 35  1  0
 13 14  1  0
 13 18  1  0
 14 15  1  0
 14 36  1  0
 14 37  1  0
 15 16  1  0
 15 38  1  0
 15 39  1  0
 16 17  1  0
 16 19  1  0
 17 18  1  0
 17 40  1  0
 17 41  1  0
 18 42  1  0
 18 43  1  0
 19 20  1  0
 19 44  1  0
 19 45  1  0
 20 21  1  0
 20 46  1  0
 20 47  1  0
 21 48  1  0
 22 23  1  0
 22 27  2  0
 23 24  2  0
 23 49  1  0
 24 25  1  0
 24 50  1  0
 25 26  2  0
 25 51  1  0
 26 27  1  0
 26 52  1  0
M  END

