52
rmsd52.gzmat
S          0.00000        0.00000        0.00000
C          1.76950        0.00000        0.00000
C          2.44870        0.00000        1.21690
C          3.84230        0.04630        1.23120
C          4.51250        0.11940        0.01730
Cl         6.22220        0.20170        0.01940
C          3.85890        0.11920       -1.20560
C          2.46540        0.01980       -1.21590
C          1.72630       -0.06370       -2.47920
C          2.01120       -0.92740       -3.46800
C          3.10060       -1.94120       -3.43240
C          4.27860       -1.47660       -4.31710
N          5.34970       -2.49770       -4.25370
C          6.27690       -2.40280       -5.39860
C          7.22550       -1.17900       -5.33250
N          8.00070       -1.25340       -4.07170
C          7.09150       -1.24320       -2.90120
C          6.12630       -2.44950       -2.99870
C          8.99850       -0.15930       -3.98360
C         10.16680       -0.66730       -3.10980
O         10.70840       -1.85230       -3.65000
C          0.55430        0.81750       -2.56900
C          0.30240        1.56350       -3.72260
C         -0.84340        2.35020       -3.80500
C         -1.74080        2.39550       -2.73870
C         -1.48610        1.67200       -1.57480
C         -0.33490        0.89390       -1.49230
H          1.90650       -0.02810        2.16490
H          4.38400        0.03790        2.17640
H          4.40840        0.19480       -2.14470
H          1.40460       -0.94550       -4.37780
H          2.73380       -2.92450       -3.80150
H          3.44530       -2.14730       -2.39880
H          4.61750       -0.46520       -4.00980
H          3.92820       -1.38820       -5.36890
H          5.70210       -2.39290       -6.34610
H          6.88280       -3.33940       -5.40430
H          7.93710       -1.22150       -6.18480
H          6.64920       -0.23690       -5.43040
H          7.70740       -1.34240       -1.98060
H          6.52020       -0.29630       -2.81350
H          6.71130       -3.39740       -2.94410
H          5.43660       -2.45250       -2.12980
H          8.58780        0.78570       -3.57610
H          9.38990        0.06990       -4.99870
H          9.85120       -0.87430       -2.07220
H         11.01420        0.04030       -3.11070
H          9.96500       -2.43560       -3.93610
H          1.00610        1.53190       -4.55290
H         -1.03830        2.93310       -4.70370
H         -2.63910        3.00620       -2.81100
H         -2.18820        1.73170       -0.74180
