rmsd52.gzmat
 OpenBabel08211713383D

 52 55  0  0  0  0  0  0  0  0999 V2000
    0.0000    0.0000    0.0000 S   0  0  0  0  0  0  0  0  0  0  0  0
    1.7695    0.0000    0.0000 C   0  0  0  0  0  0  0  0  0  0  0  0
    2.4487    0.0000    1.2169 C   0  0  0  0  0  0  0  0  0  0  0  0
    3.8423    0.0463    1.2312 C   0  0  0  0  0  0  0  0  0  0  0  0
    4.5125    0.1194    0.0173 C   0  0  0  0  0  0  0  0  0  0  0  0
    6.2222    0.2017    0.0194 Cl  0  0  0  0  0  0  0  0  0  0  0  0
    3.8589    0.1192   -1.2056 C   0  0  0  0  0  0  0  0  0  0  0  0
    2.4654    0.0198   -1.2159 C   0  0  0  0  0  0  0  0  0  0  0  0
    1.7263   -0.0637   -2.4792 C   0  0  0  0  0  0  0  0  0  0  0  0
    2.0112   -0.9274   -3.4680 C   0  0  0  0  0  0  0  0  0  0  0  0
    3.1006   -1.9412   -3.4324 C   0  0  0  0  0  0  0  0  0  0  0  0
    4.2786   -1.4766   -4.3171 C   0  0  0  0  0  0  0  0  0  0  0  0
    5.3497   -2.4977   -4.2537 N   0  0  0  0  0  0  0  0  0  0  0  0
    6.2769   -2.4028   -5.3986 C   0  0  0  0  0  0  0  0  0  0  0  0
    7.2255   -1.1790   -5.3325 C   0  0  0  0  0  0  0  0  0  0  0  0
    8.0007   -1.2534   -4.0717 N   0  0  0  0  0  0  0  0  0  0  0  0
    7.0915   -1.2432   -2.9012 C   0  0  0  0  0  0  0  0  0  0  0  0
    6.1263   -2.4495   -2.9987 C   0  0  0  0  0  0  0  0  0  0  0  0
    8.9985   -0.1593   -3.9836 C   0  0  0  0  0  0  0  0  0  0  0  0
   10.1668   -0.6673   -3.1098 C   0  0  0  0  0  0  0  0  0  0  0  0
   10.7084   -1.8523   -3.6500 O   0  0  0  0  0  0  0  0  0  0  0  0
    0.5543    0.8175   -2.5690 C   0  0  0  0  0  0  0  0  0  0  0  0
    0.3024    1.5635   -3.7226 C   0  0  0  0  0  0  0  0  0  0  0  0
   -0.8434    2.3502   -3.8050 C   0  0  0  0  0  0  0  0  0  0  0  0
   -1.7408    2.3955   -2.7387 C   0  0  0  0  0  0  0  0  0  0  0  0
   -1.4861    1.6720   -1.5748 C   0  0  0  0  0  0  0  0  0  0  0  0
   -0.3349    0.8939   -1.4923 C   0  0  0  0  0  0  0  0  0  0  0  0
    1.9065   -0.0281    2.1649 H   0  0  0  0  0  0  0  0  0  0  0  0
    4.3840    0.0379    2.1764 H   0  0  0  0  0  0  0  0  0  0  0  0
    4.4084    0.1948   -2.1447 H   0  0  0  0  0  0  0  0  0  0  0  0
    1.4046   -0.9455   -4.3778 H   0  0  0  0  0  0  0  0  0  0  0  0
    2.7338   -2.9245   -3.8015 H   0  0  0  0  0  0  0  0  0  0  0  0
    3.4453   -2.1473   -2.3988 H   0  0  0  0  0  0  0  0  0  0  0  0
    4.6175   -0.4652   -4.0098 H   0  0  0  0  0  0  0  0  0  0  0  0
    3.9282   -1.3882   -5.3689 H   0  0  0  0  0  0  0  0  0  0  0  0
    5.7021   -2.3929   -6.3461 H   0  0  0  0  0  0  0  0  0  0  0  0
    6.8828   -3.3394   -5.4043 H   0  0  0  0  0  0  0  0  0  0  0  0
    7.9371   -1.2215   -6.1848 H   0  0  0  0  0  0  0  0  0  0  0  0
    6.6492   -0.2369   -5.4304 H   0  0  0  0  0  0  0  0  0  0  0  0
    7.7074   -1.3424   -1.9806 H   0  0  0  0  0  0  0  0  0  0  0  0
    6.5202   -0.2963   -2.8135 H   0  0  0  0  0  0  0  0  0  0  0  0
    6.7113   -3.3974   -2.9441 H   0  0  0  0  0  0  0  0  0  0  0  0
    5.4366   -2.4525   -2.1298 H   0  0  0  0  0  0  0  0  0  0  0  0
    8.5878    0.7857   -3.5761 H   0  0  0  0  0  0  0  0  0  0  0  0
    9.3899    0.0699   -4.9987 H   0  0  0  0  0  0  0  0  0  0  0  0
    9.8512   -0.8743   -2.0722 H   0  0  0  0  0  0  0  0  0  0  0  0
   11.0142    0.0403   -3.1107 H   0  0  0  0  0  0  0  0  0  0  0  0
    9.9650   -2.4356   -3.9361 H   0  0  0  0  0  0  0  0  0  0  0  0
    1.0061    1.5319   -4.5529 H   0  0  0  0  0  0  0  0  0  0  0  0
   -1.0383    2.9331   -4.7037 H   0  0  0  0  0  0  0  0  0  0  0  0
   -2.6391    3.0062   -2.8110 H   0  0  0  0  0  0  0  0  0  0  0  0
   -2.1882    1.7317   -0.7418 H   0  0  0  0  0  0  0  0  0  0  0  0
  2  1  1  0  0  0  0
  2  3  2  0  0  0  0
  3  4  1  0  0  0  0
  3 28  1  0  0  0  0
  4 29  1  0  0  0  0
  5  6  1  0  0  0  0
  5  4  2  0  0  0  0
  7  5  1  0  0  0  0
  8  7  2  0  0  0  0
  8  2  1  0  0  0  0
  9  8  1  0  0  0  0
 10 11  1  0  0  0  0
 10  9  2  0  0  0  0
 11 33  1  0  0  0  0
 12 13  1  0  0  0  0
 12 34  1  0  0  0  0
 12 11  1  0  0  0  0
 13 18  1  0  0  0  0
 14 15  1  0  0  0  0
 14 13  1  0  0  0  0
 15 16  1  0  0  0  0
 16 19  1  0  0  0  0
 16 17  1  0  0  0  0
 17 41  1  0  0  0  0
 17 40  1  0  0  0  0
 18 42  1  0  0  0  0
 18 17  1  0  0  0  0
 18 43  1  0  0  0  0
 19 44  1  0  0  0  0
 19 20  1  0  0  0  0
 20 46  1  0  0  0  0
 21 20  1  0  0  0  0
 22  9  1  0  0  0  0
 22 27  2  0  0  0  0
 23 22  1  0  0  0  0
 24 23  2  0  0  0  0
 24 25  1  0  0  0  0
 25 26  2  0  0  0  0
 26 27  1  0  0  0  0
 26 52  1  0  0  0  0
 27  1  1  0  0  0  0
 30  7  1  0  0  0  0
 31 10  1  0  0  0  0
 32 11  1  0  0  0  0
 35 12  1  0  0  0  0
 36 14  1  0  0  0  0
 37 14  1  0  0  0  0
 38 15  1  0  0  0  0
 39 15  1  0  0  0  0
 45 19  1  0  0  0  0
 47 20  1  0  0  0  0
 48 21  1  0  0  0  0
 49 23  1  0  0  0  0
 50 24  1  0  0  0  0
 51 25  1  0  0  0  0
M  END
$$$$
