rmsd95.gzmat
 OpenBabel08211713383D

 52 55  0  0  0  0  0  0  0  0999 V2000
    0.0000    0.0000    0.0000 S   0  0  0  0  0  0  0  0  0  0  0  0
    1.7691    0.0000    0.0000 C   0  0  0  0  0  0  0  0  0  0  0  0
    2.4477    0.0000    1.2171 C   0  0  0  0  0  0  0  0  0  0  0  0
    3.8413    0.0302    1.2312 C   0  0  0  0  0  0  0  0  0  0  0  0
    4.5126    0.0810    0.0163 C   0  0  0  0  0  0  0  0  0  0  0  0
    6.2228    0.0744    0.0217 Cl  0  0  0  0  0  0  0  0  0  0  0  0
    3.8599    0.0974   -1.2072 C   0  0  0  0  0  0  0  0  0  0  0  0
    2.4653    0.0155   -1.2163 C   0  0  0  0  0  0  0  0  0  0  0  0
    1.7191   -0.0690   -2.4760 C   0  0  0  0  0  0  0  0  0  0  0  0
    1.9725   -0.9524   -3.4565 C   0  0  0  0  0  0  0  0  0  0  0  0
    3.0411   -1.9900   -3.4335 C   0  0  0  0  0  0  0  0  0  0  0  0
    2.7695   -3.0006   -2.2963 C   0  0  0  0  0  0  0  0  0  0  0  0
    3.8464   -4.0175   -2.2783 N   0  0  0  0  0  0  0  0  0  0  0  0
    5.1126   -3.5137   -1.7074 C   0  0  0  0  0  0  0  0  0  0  0  0
    5.0660   -3.2788   -0.1772 C   0  0  0  0  0  0  0  0  0  0  0  0
    4.6461   -4.5282    0.4985 N   0  0  0  0  0  0  0  0  0  0  0  0
    3.3269   -4.9832   -0.0008 C   0  0  0  0  0  0  0  0  0  0  0  0
    3.4356   -5.2230   -1.5264 C   0  0  0  0  0  0  0  0  0  0  0  0
    4.6566   -4.3813    1.9664 C   0  0  0  0  0  0  0  0  0  0  0  0
    3.6606   -3.3783    2.5736 C   0  0  0  0  0  0  0  0  0  0  0  0
    2.3378   -3.8704    2.5473 O   0  0  0  0  0  0  0  0  0  0  0  0
    0.5592    0.8292   -2.5631 C   0  0  0  0  0  0  0  0  0  0  0  0
    0.3162    1.5853   -3.7112 C   0  0  0  0  0  0  0  0  0  0  0  0
   -0.8193    2.3881   -3.7863 C   0  0  0  0  0  0  0  0  0  0  0  0
   -1.7158    2.4365   -2.7195 C   0  0  0  0  0  0  0  0  0  0  0  0
   -1.4700    1.7012   -1.5612 C   0  0  0  0  0  0  0  0  0  0  0  0
   -0.3286    0.9084   -1.4846 C   0  0  0  0  0  0  0  0  0  0  0  0
    1.9039   -0.0213    2.1657 H   0  0  0  0  0  0  0  0  0  0  0  0
    4.3828    0.0307    2.1767 H   0  0  0  0  0  0  0  0  0  0  0  0
    4.4114    0.1676   -2.1455 H   0  0  0  0  0  0  0  0  0  0  0  0
    1.3442   -0.9685   -4.3514 H   0  0  0  0  0  0  0  0  0  0  0  0
    4.0438   -1.5325   -3.3163 H   0  0  0  0  0  0  0  0  0  0  0  0
    3.0962   -2.5420   -4.3954 H   0  0  0  0  0  0  0  0  0  0  0  0
    1.7993   -3.5091   -2.4918 H   0  0  0  0  0  0  0  0  0  0  0  0
    2.6561   -2.4721   -1.3263 H   0  0  0  0  0  0  0  0  0  0  0  0
    5.4081   -2.5761   -2.2201 H   0  0  0  0  0  0  0  0  0  0  0  0
    5.8973   -4.2695   -1.9421 H   0  0  0  0  0  0  0  0  0  0  0  0
    6.0823   -3.0130    0.1840 H   0  0  0  0  0  0  0  0  0  0  0  0
    4.3975   -2.4220    0.0492 H   0  0  0  0  0  0  0  0  0  0  0  0
    3.0684   -5.9331    0.5099 H   0  0  0  0  0  0  0  0  0  0  0  0
    2.5081   -4.2640    0.2209 H   0  0  0  0  0  0  0  0  0  0  0  0
    4.1983   -6.0103   -1.7273 H   0  0  0  0  0  0  0  0  0  0  0  0
    2.4730   -5.5995   -1.9267 H   0  0  0  0  0  0  0  0  0  0  0  0
    5.6935   -4.1031    2.2649 H   0  0  0  0  0  0  0  0  0  0  0  0
    4.4788   -5.3928    2.3979 H   0  0  0  0  0  0  0  0  0  0  0  0
    3.5808   -2.4466    1.9813 H   0  0  0  0  0  0  0  0  0  0  0  0
    3.9252   -3.1268    3.6159 H   0  0  0  0  0  0  0  0  0  0  0  0
    2.2805   -4.7420    2.9834 H   0  0  0  0  0  0  0  0  0  0  0  0
    1.0173    1.5487   -4.5436 H   0  0  0  0  0  0  0  0  0  0  0  0
   -1.0066    2.9798   -4.6804 H   0  0  0  0  0  0  0  0  0  0  0  0
   -2.6069    3.0581   -2.7865 H   0  0  0  0  0  0  0  0  0  0  0  0
   -2.1710    1.7639   -0.7279 H   0  0  0  0  0  0  0  0  0  0  0  0
  1  2  1  0  0  0  0
  2  3  2  0  0  0  0
  3  4  1  0  0  0  0
  3 28  1  0  0  0  0
  4 29  1  0  0  0  0
  5  6  1  0  0  0  0
  5  4  2  0  0  0  0
  7  5  1  0  0  0  0
  8  7  2  0  0  0  0
  8  2  1  0  0  0  0
  9  8  1  0  0  0  0
 10 11  1  0  0  0  0
 10  9  2  0  0  0  0
 11 32  1  0  0  0  0
 11 12  1  0  0  0  0
 12 13  1  0  0  0  0
 12 35  1  0  0  0  0
 13 14  1  0  0  0  0
 13 18  1  0  0  0  0
 14 15  1  0  0  0  0
 15 39  1  0  0  0  0
 15 38  1  0  0  0  0
 15 16  1  0  0  0  0
 16 19  1  0  0  0  0
 17 41  1  0  0  0  0
 17 16  1  0  0  0  0
 17 40  1  0  0  0  0
 18 17  1  0  0  0  0
 19 44  1  0  0  0  0
 19 45  1  0  0  0  0
 19 20  1  0  0  0  0
 20 47  1  0  0  0  0
 21 20  1  0  0  0  0
 21 48  1  0  0  0  0
 22  9  1  0  0  0  0
 22 27  2  0  0  0  0
 23 22  1  0  0  0  0
 24 23  2  0  0  0  0
 24 25  1  0  0  0  0
 25 26  2  0  0  0  0
 26 27  1  0  0  0  0
 26 52  1  0  0  0  0
 27  1  1  0  0  0  0
 30  7  1  0  0  0  0
 31 10  1  0  0  0  0
 33 11  1  0  0  0  0
 34 12  1  0  0  0  0
 36 14  1  0  0  0  0
 37 14  1  0  0  0  0
 42 18  1  0  0  0  0
 43 18  1  0  0  0  0
 46 20  1  0  0  0  0
 49 23  1  0  0  0  0
 50 24  1  0  0  0  0
 51 25  1  0  0  0  0
M  END
$$$$
