48
rmsd38.gzmat
N          0.00000        0.00000        0.00000
C          1.40170        0.00000        0.00000
C          1.83760        0.00000        1.32570
C          0.67790        0.01780        2.15750
C         -0.44180        0.02140        1.33050
C         -1.84430        0.07570        1.70930
C         -2.73080       -0.93640        1.33450
C         -4.06670       -0.86290        1.72390
C         -4.51500        0.21510        2.48460
C         -3.62760        1.22270        2.86330
C         -2.29180        1.15420        2.48020
C          3.20450       -0.02450        1.80590
C          4.12220       -0.99070        1.39470
C          5.43070       -1.02440        1.85800
C          5.84060       -0.05240        2.76870
C          4.94440        0.92690        3.19760
C          3.63590        0.94270        2.72200
Cl         3.63280       -2.18910        0.27910
C          2.19930       -0.08990       -1.22440
O          1.92570       -0.68130       -2.23930
O          3.36430        0.57580       -1.04580
C          4.34690        0.42190       -2.08290
C          5.63980        0.86810       -1.41900
C         -0.83360        0.10230       -1.14830
O         -1.90230       -0.43650       -1.24800
O         -0.24640        0.92410       -2.03880
C         -0.87650        0.98760       -3.33400
C         -0.64910       -0.30390       -4.09000
H          0.67920        0.00670        3.22750
H         -2.37960       -1.77550        0.73010
H         -4.76010       -1.64750        1.42680
H         -5.55980        0.27240        2.78340
H         -3.98030        2.06280        3.45730
H         -1.59430        1.93840        2.77240
H          6.12480       -1.79420        1.52300
H          6.86110       -0.05930        3.14690
H          5.27010        1.68290        3.91030
H          2.93870        1.71260        3.05420
H          4.04170        1.06750       -2.92360
H          4.37830       -0.63200       -2.41520
H          5.58350        1.91720       -1.10050
H          6.49240        0.76040       -2.09700
H          5.84480        0.27510       -0.51540
H         -0.33420        1.84900       -3.77120
H         -1.94570        1.23140       -3.20320
H          0.40660       -0.62130       -4.02960
H         -0.90440       -0.20380       -5.14980
H         -1.24860       -1.12880       -3.67930
