48

N          0.03550       -0.13730       -0.02590
C          1.42370       -0.03240       -0.02040
C          1.84130        0.09230        1.30220
C          0.66660        0.10040        2.10320
C         -0.44040       -0.04900        1.27750
C         -1.85500       -0.04950        1.68370
C         -2.78920       -0.98780        1.20650
C         -4.10240       -0.97600        1.67830
C         -4.50580       -0.04100        2.63530
C         -3.58380        0.88960        3.12300
C         -2.27170        0.88610        2.65090
C          3.21840        0.16320        1.83270
C          4.17590       -0.85390        1.65850
C          5.45890       -0.74860        2.19930
C          5.81200        0.38180        2.93790
C          4.87710        1.39930        3.13900
C          3.59870        1.28190        2.59360
Cl         3.78560       -2.30790        0.76430
C          2.19060       -0.20720       -1.25650
O          1.74940       -0.69980       -2.27500
O          3.45090        0.22580       -1.12100
C          4.36900       -0.10050       -2.17280
C          5.75800        0.26350       -1.69480
C         -0.76910       -0.03210       -1.20830
O         -1.63550       -0.81090       -1.49540
O         -0.44700        1.06880       -1.87450
C         -1.09080        1.27090       -3.15230
C         -0.43610        0.45850       -4.25320
H          0.63300        0.14770        3.18900
H         -2.48140       -1.72300        0.46560
H         -4.81510       -1.71170        1.29800
H         -5.53550       -0.03770        3.00090
H         -3.88960        1.62720        3.86880
H         -1.55630        1.62450        3.01890
H          6.16960       -1.56120        2.04230
H          6.81720        0.46060        3.35800
H          5.14290        2.28650        3.71780
H          2.86600        2.07870        2.73830
H          4.08340        0.45270       -3.08250
H          4.27820       -1.17410       -2.40060
H          5.81860        1.33340       -1.44370
H          6.49710        0.04710       -2.48150
H          6.02120       -0.31460       -0.79680
H         -0.99240        2.35060       -3.32980
H         -2.15640        1.01950       -3.04640
H          0.63890        0.67650       -4.31780
H         -0.91200        0.70400       -5.21600
H         -0.55220       -0.61800       -4.06820
