rmsd207.gzmat
 OpenBabel08211713383D

 48 50  0  0  0  0  0  0  0  0999 V2000
    0.0000    0.0000    0.0000 N   0  0  0  0  0  0  0  0  0  0  0  0
    1.4014    0.0000    0.0000 C   0  0  0  0  0  0  0  0  0  0  0  0
    1.8354    0.0000    1.3255 C   0  0  0  0  0  0  0  0  0  0  0  0
    0.6777    0.0225    2.1580 C   0  0  0  0  0  0  0  0  0  0  0  0
   -0.4426    0.0255    1.3304 C   0  0  0  0  0  0  0  0  0  0  0  0
   -1.8472    0.0693    1.7022 C   0  0  0  0  0  0  0  0  0  0  0  0
   -2.7276   -0.9365    1.2956 C   0  0  0  0  0  0  0  0  0  0  0  0
   -4.0671   -0.8768    1.6742 C   0  0  0  0  0  0  0  0  0  0  0  0
   -4.5251    0.1799    2.4588 C   0  0  0  0  0  0  0  0  0  0  0  0
   -3.6441    1.1804    2.8694 C   0  0  0  0  0  0  0  0  0  0  0  0
   -2.3054    1.1274    2.4934 C   0  0  0  0  0  0  0  0  0  0  0  0
    3.2124   -0.0603    1.7728 C   0  0  0  0  0  0  0  0  0  0  0  0
    4.0340   -1.1327    1.4252 C   0  0  0  0  0  0  0  0  0  0  0  0
    5.3617   -1.2152    1.8195 C   0  0  0  0  0  0  0  0  0  0  0  0
    5.8897   -0.1814    2.5920 C   0  0  0  0  0  0  0  0  0  0  0  0
    5.0895    0.9012    2.9566 C   0  0  0  0  0  0  0  0  0  0  0  0
    3.7573    0.9638    2.5530 C   0  0  0  0  0  0  0  0  0  0  0  0
    3.3817   -2.3914    0.4708 Cl  0  0  0  0  0  0  0  0  0  0  0  0
    2.1952   -0.0848   -1.2284 C   0  0  0  0  0  0  0  0  0  0  0  0
    1.9107   -0.6686   -2.2435 O   0  0  0  0  0  0  0  0  0  0  0  0
    3.3504    0.6035   -1.0563 O   0  0  0  0  0  0  0  0  0  0  0  0
    4.3065    0.5454   -2.1182 C   0  0  0  0  0  0  0  0  0  0  0  0
    5.1198   -0.7321   -2.0013 C   0  0  0  0  0  0  0  0  0  0  0  0
   -0.8231    0.1238   -1.1528 C   0  0  0  0  0  0  0  0  0  0  0  0
   -1.8877   -0.4153   -1.2831 O   0  0  0  0  0  0  0  0  0  0  0  0
   -0.2112    0.9495   -2.0242 O   0  0  0  0  0  0  0  0  0  0  0  0
   -0.8693    1.1168   -3.2926 C   0  0  0  0  0  0  0  0  0  0  0  0
   -2.0320    2.0765   -3.1351 C   0  0  0  0  0  0  0  0  0  0  0  0
    0.6793    0.0129    3.2282 H   0  0  0  0  0  0  0  0  0  0  0  0
   -2.3682   -1.7610    0.6763 H   0  0  0  0  0  0  0  0  0  0  0  0
   -4.7550   -1.6561    1.3514 H   0  0  0  0  0  0  0  0  0  0  0  0
   -5.5720    0.2252    2.7521 H   0  0  0  0  0  0  0  0  0  0  0  0
   -4.0041    2.0031    3.4831 H   0  0  0  0  0  0  0  0  0  0  0  0
   -1.6147    1.9084    2.8082 H   0  0  0  0  0  0  0  0  0  0  0  0
    5.9816   -2.0645    1.5362 H   0  0  0  0  0  0  0  0  0  0  0  0
    6.9299   -0.2209    2.9099 H   0  0  0  0  0  0  0  0  0  0  0  0
    5.5092    1.7049    3.5591 H   0  0  0  0  0  0  0  0  0  0  0  0
    3.1353    1.8142    2.8325 H   0  0  0  0  0  0  0  0  0  0  0  0
    4.9049    1.4540   -1.9169 H   0  0  0  0  0  0  0  0  0  0  0  0
    3.7951    0.6349   -3.0933 H   0  0  0  0  0  0  0  0  0  0  0  0
    5.5333   -0.8503   -0.9911 H   0  0  0  0  0  0  0  0  0  0  0  0
    5.9551   -0.7430   -2.7088 H   0  0  0  0  0  0  0  0  0  0  0  0
    4.4985   -1.6168   -2.2064 H   0  0  0  0  0  0  0  0  0  0  0  0
   -1.1712    0.1308   -3.6898 H   0  0  0  0  0  0  0  0  0  0  0  0
   -0.0365    1.5289   -3.8962 H   0  0  0  0  0  0  0  0  0  0  0  0
   -2.8496    1.6258   -2.5520 H   0  0  0  0  0  0  0  0  0  0  0  0
   -2.4457    2.3673   -4.1079 H   0  0  0  0  0  0  0  0  0  0  0  0
   -1.7296    2.9940   -2.6134 H   0  0  0  0  0  0  0  0  0  0  0  0
  1  5  1  0  0  0  0
  2  1  1  0  0  0  0
  2  3  2  0  0  0  0
  3 12  1  0  0  0  0
  3  4  1  0  0  0  0
  4 29  1  0  0  0  0
  5  6  1  0  0  0  0
  5  4  2  0  0  0  0
  6 11  2  0  0  0  0
  7  8  2  0  0  0  0
  7  6  1  0  0  0  0
  8  9  1  0  0  0  0
  9 32  1  0  0  0  0
  9 10  2  0  0  0  0
 10 33  1  0  0  0  0
 11 34  1  0  0  0  0
 11 10  1  0  0  0  0
 12 17  1  0  0  0  0
 13 12  2  0  0  0  0
 13 14  1  0  0  0  0
 14 15  2  0  0  0  0
 15 36  1  0  0  0  0
 15 16  1  0  0  0  0
 16 37  1  0  0  0  0
 17 38  1  0  0  0  0
 17 16  2  0  0  0  0
 18 13  1  0  0  0  0
 19 21  1  0  0  0  0
 19  2  1  0  0  0  0
 20 19  2  0  0  0  0
 22 23  1  0  0  0  0
 22 39  1  0  0  0  0
 22 21  1  0  0  0  0
 23 41  1  0  0  0  0
 24  1  1  0  0  0  0
 25 24  2  0  0  0  0
 26 24  1  0  0  0  0
 27 28  1  0  0  0  0
 27 26  1  0  0  0  0
 28 48  1  0  0  0  0
 28 46  1  0  0  0  0
 30  7  1  0  0  0  0
 31  8  1  0  0  0  0
 35 14  1  0  0  0  0
 40 22  1  0  0  0  0
 42 23  1  0  0  0  0
 43 23  1  0  0  0  0
 44 27  1  0  0  0  0
 45 27  1  0  0  0  0
 47 28  1  0  0  0  0
M  END
$$$$
