48

N          0.14230       -0.15510       -0.04040
C          1.53040       -0.06090       -0.02090
C          1.93240        0.08010        1.30640
C          0.75070        0.10750        2.09200
C         -0.34800       -0.04260        1.25150
C         -1.76950       -0.03450        1.62900
C         -2.70410       -0.94640        1.10310
C         -4.03000       -0.92490        1.53820
C         -4.44560       -0.00750        2.50690
C         -3.52310        0.89580        3.04310
C         -2.19870        0.88390        2.60720
C          3.30720        0.14250        1.84470
C          4.20800       -0.93570        1.76980
C          5.49370       -0.85090        2.30720
C          5.90330        0.32260        2.94250
C          5.02380        1.40250        3.04410
C          3.74190        1.30510        2.50170
Cl         3.72590       -2.43950        1.01530
C          2.29260       -0.20620       -1.26070
O          1.80770       -0.57000       -2.31540
O          3.58420        0.11430       -1.09980
C          4.45780       -0.07400       -2.22510
C          4.89220       -1.52190       -2.36930
C         -0.65210       -0.06130       -1.23710
O         -1.41560       -0.91370       -1.59500
O         -0.45670        1.11800       -1.80990
C         -1.11840        1.34780       -3.07390
C         -0.34690        0.74410       -4.23180
H          0.70490        0.16780        3.17670
H         -2.38670       -1.67170        0.35590
H         -4.74260       -1.64020        1.12070
H         -5.48480        0.00310        2.84430
H         -3.83830        1.61940        3.79860
H         -1.48350        1.60270        3.01200
H          6.16090       -1.71040        2.22950
H          6.91010        0.38650        3.36160
H          5.33560        2.32270        3.54290
H          3.05140        2.14860        2.56830
H          5.31370        0.58340       -2.01790
H          3.94680        0.27610       -3.13420
H          5.36220       -1.88470       -1.44390
H          5.61720       -1.61170       -3.19400
H          4.02900       -2.16350       -2.59670
H         -1.17600        2.44240       -3.14920
H         -2.13670        0.93700       -3.01140
H          0.68180        1.12990       -4.26250
H         -0.85260        0.99940       -5.17670
H         -0.29580       -0.34920       -4.14180
