48
rmsd9.gzmat
N          0.00000        0.00000        0.00000
C          1.40220        0.00000        0.00000
C          1.83750        0.00000        1.32460
C          0.67940        0.01990        2.15800
C         -0.44090        0.02180        1.33180
C         -1.84340        0.05800        1.71210
C         -2.72260       -0.94870        1.30530
C         -4.05790       -0.90000        1.70000
C         -4.51380        0.14760        2.49760
C         -3.63430        1.15030        2.90610
C         -2.29910        1.10710        2.51670
C          3.21010       -0.05370        1.78550
C          4.05610       -1.10100        1.42060
C          5.37480       -1.17850        1.84530
C          5.86900       -0.16440        2.66440
C          5.04450        0.89410        3.04560
C          3.72140        0.95030        2.61320
Cl         3.44640       -2.33880        0.41260
C          2.19740       -0.08570       -1.22800
O          1.94390       -0.72070       -2.22040
O          3.31890        0.66080       -1.08430
C          4.25520        0.63810       -2.16540
C          5.07670       -0.63810       -2.11610
C         -0.82700        0.12830       -1.14880
O         -1.91490       -0.36910       -1.25440
O         -0.20440        0.92440       -2.04010
C         -0.81510        0.99880       -3.34330
C         -0.58450       -0.29340       -4.09710
H          0.68220        0.00980        3.22820
H         -2.36680       -1.76500        0.67330
H         -4.74450       -1.68040        1.37740
H         -5.55800        0.18490        2.80160
H         -3.99250        1.96750        3.52820
H         -1.60930        1.88910        2.83110
H          6.01310       -2.01050        1.55130
H          6.90130       -0.20130        3.00740
H          5.43750        1.68190        3.68590
H          3.07960        1.78070        2.90830
H          4.85300        1.54290       -1.94550
H          3.72000        0.75930       -3.12400
H          5.53230       -0.78350       -1.12840
H          5.88100       -0.62580       -2.85890
H          4.44980       -1.51960       -2.32090
H         -0.25850        1.85720       -3.76820
H         -1.88440        1.25070       -3.22980
H          0.46430       -0.62620       -4.00540
H         -0.80660       -0.18640       -5.16380
H         -1.20640       -1.11150       -3.70630
