48
rmsd60.gzmat
N          0.00000        0.00000        0.00000
C          1.40170        0.00000        0.00000
C          1.83680        0.00000        1.32570
C          0.68010        0.01590        2.15780
C         -0.44140        0.02070        1.32980
C         -1.84280        0.06340        1.71310
C         -2.74150       -0.91140        1.27350
C         -4.07510       -0.85240        1.67280
C         -4.50980        0.17240        2.51090
C         -3.61030        1.14090        2.95660
C         -2.27740        1.08840        2.56080
C          3.21420       -0.04310        1.77400
C          4.04760       -1.11180        1.44440
C          5.37540       -1.17360        1.84180
C          5.89100       -0.12180        2.59840
C          5.07810        0.95700        2.94610
C          3.74630        0.99890        2.53910
Cl         3.40750       -2.39180        0.51030
C          2.18930       -0.09970       -1.22890
O          1.87340       -0.65820       -2.25020
O          3.37580        0.53110       -1.05720
C          4.31350        0.45270       -2.13450
C          5.05570       -0.87080       -2.07340
C         -0.81880        0.14490       -1.15640
O         -1.85470       -0.43740       -1.32420
O         -0.26140        1.07200       -1.95920
C         -0.83240        1.19020       -3.27770
C         -0.15030        0.19680       -4.19490
H          0.68070        0.00040        3.22790
H         -2.40120       -1.71350        0.61440
H         -4.77710       -1.60780        1.32450
H         -5.55250        0.21790        2.81870
H         -3.95090        1.93870        3.61300
H         -1.57220        1.84350        2.90550
H          6.00540       -2.02020        1.57280
H          6.93150       -0.14440        2.91710
H          5.48750        1.77410        3.53780
H          3.11450        1.84720        2.80320
H          4.96430        1.31980       -1.91300
H          3.79390        0.60250       -3.09770
H          5.52460       -1.02130       -1.09260
H          5.84170       -0.92580       -2.83360
H          4.37160       -1.71620       -2.24300
H         -0.58580        2.24380       -3.51340
H         -1.92850        1.05710       -3.23400
H          0.94130        0.34040       -4.20690
H         -0.51470        0.27620       -5.22420
H         -0.30920       -0.83960       -3.85880
