rmsd9.gzmat
 OpenBabel08211713383D

 48 50  0  0  0  0  0  0  0  0999 V2000
    0.0000    0.0000    0.0000 N   0  0  0  0  0  0  0  0  0  0  0  0
    1.4022    0.0000    0.0000 C   0  0  0  0  0  0  0  0  0  0  0  0
    1.8375    0.0000    1.3246 C   0  0  0  0  0  0  0  0  0  0  0  0
    0.6794    0.0199    2.1580 C   0  0  0  0  0  0  0  0  0  0  0  0
   -0.4409    0.0218    1.3318 C   0  0  0  0  0  0  0  0  0  0  0  0
   -1.8434    0.0580    1.7121 C   0  0  0  0  0  0  0  0  0  0  0  0
   -2.7226   -0.9487    1.3053 C   0  0  0  0  0  0  0  0  0  0  0  0
   -4.0579   -0.9000    1.7000 C   0  0  0  0  0  0  0  0  0  0  0  0
   -4.5138    0.1476    2.4976 C   0  0  0  0  0  0  0  0  0  0  0  0
   -3.6343    1.1503    2.9061 C   0  0  0  0  0  0  0  0  0  0  0  0
   -2.2991    1.1071    2.5167 C   0  0  0  0  0  0  0  0  0  0  0  0
    3.2101   -0.0537    1.7855 C   0  0  0  0  0  0  0  0  0  0  0  0
    4.0561   -1.1010    1.4206 C   0  0  0  0  0  0  0  0  0  0  0  0
    5.3748   -1.1785    1.8453 C   0  0  0  0  0  0  0  0  0  0  0  0
    5.8690   -0.1644    2.6644 C   0  0  0  0  0  0  0  0  0  0  0  0
    5.0445    0.8941    3.0456 C   0  0  0  0  0  0  0  0  0  0  0  0
    3.7214    0.9503    2.6132 C   0  0  0  0  0  0  0  0  0  0  0  0
    3.4464   -2.3388    0.4126 Cl  0  0  0  0  0  0  0  0  0  0  0  0
    2.1974   -0.0857   -1.2280 C   0  0  0  0  0  0  0  0  0  0  0  0
    1.9439   -0.7207   -2.2204 O   0  0  0  0  0  0  0  0  0  0  0  0
    3.3189    0.6608   -1.0843 O   0  0  0  0  0  0  0  0  0  0  0  0
    4.2552    0.6381   -2.1654 C   0  0  0  0  0  0  0  0  0  0  0  0
    5.0767   -0.6381   -2.1161 C   0  0  0  0  0  0  0  0  0  0  0  0
   -0.8270    0.1283   -1.1488 C   0  0  0  0  0  0  0  0  0  0  0  0
   -1.9149   -0.3691   -1.2544 O   0  0  0  0  0  0  0  0  0  0  0  0
   -0.2044    0.9244   -2.0401 O   0  0  0  0  0  0  0  0  0  0  0  0
   -0.8151    0.9988   -3.3433 C   0  0  0  0  0  0  0  0  0  0  0  0
   -0.5845   -0.2934   -4.0971 C   0  0  0  0  0  0  0  0  0  0  0  0
    0.6822    0.0098    3.2282 H   0  0  0  0  0  0  0  0  0  0  0  0
   -2.3668   -1.7650    0.6733 H   0  0  0  0  0  0  0  0  0  0  0  0
   -4.7445   -1.6804    1.3774 H   0  0  0  0  0  0  0  0  0  0  0  0
   -5.5580    0.1849    2.8016 H   0  0  0  0  0  0  0  0  0  0  0  0
   -3.9925    1.9675    3.5282 H   0  0  0  0  0  0  0  0  0  0  0  0
   -1.6093    1.8891    2.8311 H   0  0  0  0  0  0  0  0  0  0  0  0
    6.0131   -2.0105    1.5513 H   0  0  0  0  0  0  0  0  0  0  0  0
    6.9013   -0.2013    3.0074 H   0  0  0  0  0  0  0  0  0  0  0  0
    5.4375    1.6819    3.6859 H   0  0  0  0  0  0  0  0  0  0  0  0
    3.0796    1.7807    2.9083 H   0  0  0  0  0  0  0  0  0  0  0  0
    4.8530    1.5429   -1.9455 H   0  0  0  0  0  0  0  0  0  0  0  0
    3.7200    0.7593   -3.1240 H   0  0  0  0  0  0  0  0  0  0  0  0
    5.5323   -0.7835   -1.1284 H   0  0  0  0  0  0  0  0  0  0  0  0
    5.8810   -0.6258   -2.8589 H   0  0  0  0  0  0  0  0  0  0  0  0
    4.4498   -1.5196   -2.3209 H   0  0  0  0  0  0  0  0  0  0  0  0
   -0.2585    1.8572   -3.7682 H   0  0  0  0  0  0  0  0  0  0  0  0
   -1.8844    1.2507   -3.2298 H   0  0  0  0  0  0  0  0  0  0  0  0
    0.4643   -0.6262   -4.0054 H   0  0  0  0  0  0  0  0  0  0  0  0
   -0.8066   -0.1864   -5.1638 H   0  0  0  0  0  0  0  0  0  0  0  0
   -1.2064   -1.1115   -3.7063 H   0  0  0  0  0  0  0  0  0  0  0  0
  1  5  1  0  0  0  0
  2  1  1  0  0  0  0
  2  3  2  0  0  0  0
  3 12  1  0  0  0  0
  3  4  1  0  0  0  0
  4 29  1  0  0  0  0
  5  6  1  0  0  0  0
  5  4  2  0  0  0  0
  6 11  2  0  0  0  0
  7  8  2  0  0  0  0
  7  6  1  0  0  0  0
  8  9  1  0  0  0  0
  9 32  1  0  0  0  0
  9 10  2  0  0  0  0
 10 33  1  0  0  0  0
 11 34  1  0  0  0  0
 11 10  1  0  0  0  0
 12 17  1  0  0  0  0
 13 12  2  0  0  0  0
 13 14  1  0  0  0  0
 14 15  2  0  0  0  0
 15 36  1  0  0  0  0
 15 16  1  0  0  0  0
 16 37  1  0  0  0  0
 17 38  1  0  0  0  0
 17 16  2  0  0  0  0
 18 13  1  0  0  0  0
 19 21  1  0  0  0  0
 19  2  1  0  0  0  0
 20 19  2  0  0  0  0
 22 23  1  0  0  0  0
 22 39  1  0  0  0  0
 22 21  1  0  0  0  0
 23 41  1  0  0  0  0
 24  1  1  0  0  0  0
 25 24  2  0  0  0  0
 26 24  1  0  0  0  0
 27 45  1  0  0  0  0
 27 26  1  0  0  0  0
 28 46  1  0  0  0  0
 28 48  1  0  0  0  0
 28 27  1  0  0  0  0
 30  7  1  0  0  0  0
 31  8  1  0  0  0  0
 35 14  1  0  0  0  0
 40 22  1  0  0  0  0
 42 23  1  0  0  0  0
 43 23  1  0  0  0  0
 44 27  1  0  0  0  0
 47 28  1  0  0  0  0
M  END
$$$$
