
     RDKit          3D

 48 50  0  0  0  0  0  0  0  0999 V2000
    0.1284   -0.0564   -0.0935 N   0  0  0  0  0  0  0  0  0  0  0  0
    1.5171    0.0236   -0.0617 C   0  0  0  0  0  0  0  0  0  0  0  0
    1.9101    0.1106    1.2728 C   0  0  0  0  0  0  0  0  0  0  0  0
    0.7221    0.1198    2.0506 C   0  0  0  0  0  0  0  0  0  0  0  0
   -0.3716    0.0111    1.1976 C   0  0  0  0  0  0  0  0  0  0  0  0
   -1.7967    0.0230    1.5607 C   0  0  0  0  0  0  0  0  0  0  0  0
   -2.7382   -0.8524    0.9871 C   0  0  0  0  0  0  0  0  0  0  0  0
   -4.0695   -0.8269    1.4055 C   0  0  0  0  0  0  0  0  0  0  0  0
   -4.4838    0.0577    2.4048 C   0  0  0  0  0  0  0  0  0  0  0  0
   -3.5546    0.9237    2.9887 C   0  0  0  0  0  0  0  0  0  0  0  0
   -2.2249    0.9082    2.5696 C   0  0  0  0  0  0  0  0  0  0  0  0
    3.2809    0.1412    1.8235 C   0  0  0  0  0  0  0  0  0  0  0  0
    4.1766   -0.9378    1.7084 C   0  0  0  0  0  0  0  0  0  0  0  0
    5.4585   -0.8835    2.2588 C   0  0  0  0  0  0  0  0  0  0  0  0
    5.8693    0.2588    2.9480 C   0  0  0  0  0  0  0  0  0  0  0  0
    4.9946    1.3380    3.0901 C   0  0  0  0  0  0  0  0  0  0  0  0
    3.7166    1.2714    2.5341 C   0  0  0  0  0  0  0  0  0  0  0  0
    3.6928   -2.4052    0.8866 Cl  0  0  0  0  0  0  0  0  0  0  0  0
    2.2842   -0.0771   -1.3046 C   0  0  0  0  0  0  0  0  0  0  0  0
    1.8023   -0.3909   -2.3763 O   0  0  0  0  0  0  0  0  0  0  0  0
    3.5779    0.2244   -1.1227 O   0  0  0  0  0  0  0  0  0  0  0  0
    4.4547    0.0791   -2.2519 C   0  0  0  0  0  0  0  0  0  0  0  0
    4.8861   -1.3630   -2.4520 C   0  0  0  0  0  0  0  0  0  0  0  0
   -0.6439    0.0706   -1.2987 C   0  0  0  0  0  0  0  0  0  0  0  0
   -1.4059   -0.7676   -1.6926 O   0  0  0  0  0  0  0  0  0  0  0  0
   -0.4140    1.2529   -1.8513 O   0  0  0  0  0  0  0  0  0  0  0  0
   -0.9644    1.4678   -3.1679 C   0  0  0  0  0  0  0  0  0  0  0  0
   -2.4141    1.9095   -3.1014 C   0  0  0  0  0  0  0  0  0  0  0  0
    0.6692    0.1419    3.1364 H   0  0  0  0  0  0  0  0  0  0  0  0
   -2.4219   -1.5530    0.2162 H   0  0  0  0  0  0  0  0  0  0  0  0
   -4.7874   -1.5136    0.9508 H   0  0  0  0  0  0  0  0  0  0  0  0
   -5.5272    0.0716    2.7290 H   0  0  0  0  0  0  0  0  0  0  0  0
   -3.8687    1.6215    3.7687 H   0  0  0  0  0  0  0  0  0  0  0  0
   -1.5043    1.5993    3.0116 H   0  0  0  0  0  0  0  0  0  0  0  0
    6.1218   -1.7426    2.1488 H   0  0  0  0  0  0  0  0  0  0  0  0
    6.8731    0.2986    3.3771 H   0  0  0  0  0  0  0  0  0  0  0  0
    5.3073    2.2338    3.6310 H   0  0  0  0  0  0  0  0  0  0  0  0
    3.0301    2.1151    2.6324 H   0  0  0  0  0  0  0  0  0  0  0  0
    5.3116    0.7257   -2.0165 H   0  0  0  0  0  0  0  0  0  0  0  0
    3.9465    0.4658   -3.1477 H   0  0  0  0  0  0  0  0  0  0  0  0
    5.3532   -1.7634   -1.5407 H   0  0  0  0  0  0  0  0  0  0  0  0
    5.6128   -1.4220   -3.2780 H   0  0  0  0  0  0  0  0  0  0  0  0
    4.0220   -1.9930   -2.7066 H   0  0  0  0  0  0  0  0  0  0  0  0
   -0.8461    0.5395   -3.7449 H   0  0  0  0  0  0  0  0  0  0  0  0
   -0.3212    2.2435   -3.6052 H   0  0  0  0  0  0  0  0  0  0  0  0
   -3.0439    1.1146   -2.6774 H   0  0  0  0  0  0  0  0  0  0  0  0
   -2.7796    2.1373   -4.1152 H   0  0  0  0  0  0  0  0  0  0  0  0
   -2.5201    2.8152   -2.4846 H   0  0  0  0  0  0  0  0  0  0  0  0
  1  2  1  0
  1  5  1  0
  1 24  1  0
  2  3  2  0
  2 19  1  0
  3  4  1  0
  3 12  1  0
  4  5  2  0
  4 29  1  0
  5  6  1  0
  6  7  2  0
  6 11  1  0
  7  8  1  0
  7 30  1  0
  8  9  2  0
  8 31  1  0
  9 10  1  0
  9 32  1  0
 10 11  2  0
 10 33  1  0
 11 34  1  0
 12 13  2  0
 12 17  1  0
 13 14  1  0
 13 18  1  0
 14 15  2  0
 14 35  1  0
 15 16  1  0
 15 36  1  0
 16 17  2  0
 16 37  1  0
 17 38  1  0
 19 20  2  0
 19 21  1  0
 21 22  1  0
 22 23  1  0
 22 39  1  0
 22 40  1  0
 23 41  1  0
 23 42  1  0
 23 43  1  0
 24 25  2  0
 24 26  1  0
 26 27  1  0
 27 28  1  0
 27 44  1  0
 27 45  1  0
 28 46  1  0
 28 47  1  0
 28 48  1  0
M  END

