48
rmsd34.gzmat
N          0.00000        0.00000        0.00000
C          1.40200        0.00000        0.00000
C          1.83770        0.00000        1.32510
C          0.68150        0.01820        2.15750
C         -0.44060        0.02260        1.33010
C         -1.83790        0.06640        1.72810
C         -2.74860       -0.89920        1.29320
C         -4.07110       -0.84750        1.72920
C         -4.48380        0.16180        2.59660
C         -3.57350        1.12440        3.03290
C         -2.25190        1.07890        2.60110
C          3.21490       -0.04450        1.77310
C          4.05400       -1.10380        1.42840
C          5.38090       -1.16600        1.82870
C          5.88950       -0.12400        2.60310
C          5.07200        0.94670        2.96340
C          3.74060        0.98820        2.55520
Cl         3.42380       -2.37290        0.47290
C          2.19830       -0.09210       -1.22460
O          1.90500       -0.66780       -2.24230
O          3.36870        0.56770       -1.04820
C          4.31200        0.51460       -2.12190
C          5.05330       -0.81040       -2.09650
C         -0.81430        0.12890       -1.16050
O         -1.85720       -0.44330       -1.31940
O         -0.23720        1.02180       -1.98730
C         -0.79510        1.10280       -3.31420
C         -0.14820        0.04520       -4.18290
H          0.68290        0.00540        3.22760
H         -2.42670       -1.68990        0.61130
H         -4.78190       -1.59830        1.38880
H         -5.51720        0.19980        2.93520
H         -3.89690        1.91040        3.71190
H         -1.53800        1.82920        2.93890
H          6.01530       -2.00580        1.54940
H          6.92850       -0.14820        2.92640
H          5.47720        1.75790        3.56550
H          3.10400        1.82850        2.83190
H          4.96300        1.37450       -1.87380
H          3.79510        0.69190       -3.08160
H          5.53930       -0.97920       -1.12740
H          5.82430       -0.85360       -2.87280
H          4.36460       -1.65160       -2.26800
H         -0.50570        2.13420       -3.59400
H         -1.89540        1.01490       -3.27060
H          0.94470        0.17080       -4.22980
H         -0.53740        0.06510       -5.20540
H         -0.31240       -0.96590       -3.77850
