rmsd85.gzmat
 OpenBabel08211713383D

 48 50  0  0  0  0  0  0  0  0999 V2000
    0.0000    0.0000    0.0000 N   0  0  0  0  0  0  0  0  0  0  0  0
    1.4014    0.0000    0.0000 C   0  0  0  0  0  0  0  0  0  0  0  0
    1.8346    0.0000    1.3262 C   0  0  0  0  0  0  0  0  0  0  0  0
    0.6761    0.0271    2.1576 C   0  0  0  0  0  0  0  0  0  0  0  0
   -0.4433    0.0322    1.3285 C   0  0  0  0  0  0  0  0  0  0  0  0
   -1.8482    0.0956    1.6971 C   0  0  0  0  0  0  0  0  0  0  0  0
   -2.7294   -0.9288    1.3436 C   0  0  0  0  0  0  0  0  0  0  0  0
   -4.0663   -0.8525    1.7285 C   0  0  0  0  0  0  0  0  0  0  0  0
   -4.5222    0.2435    2.4585 C   0  0  0  0  0  0  0  0  0  0  0  0
   -3.6419    1.2674    2.8080 C   0  0  0  0  0  0  0  0  0  0  0  0
   -2.3041    1.1947    2.4316 C   0  0  0  0  0  0  0  0  0  0  0  0
    3.2096   -0.0521    1.7796 C   0  0  0  0  0  0  0  0  0  0  0  0
    4.0604   -1.0886    1.3955 C   0  0  0  0  0  0  0  0  0  0  0  0
    5.3877   -1.1526    1.7945 C   0  0  0  0  0  0  0  0  0  0  0  0
    5.8843   -0.1387    2.6127 C   0  0  0  0  0  0  0  0  0  0  0  0
    5.0528    0.9039    3.0208 C   0  0  0  0  0  0  0  0  0  0  0  0
    3.7221    0.9484    2.6113 C   0  0  0  0  0  0  0  0  0  0  0  0
    3.4467   -2.3322    0.3964 Cl  0  0  0  0  0  0  0  0  0  0  0  0
    2.1906   -0.0661   -1.2323 C   0  0  0  0  0  0  0  0  0  0  0  0
    1.8953   -0.6237   -2.2595 O   0  0  0  0  0  0  0  0  0  0  0  0
    3.3526    0.6078   -1.0522 O   0  0  0  0  0  0  0  0  0  0  0  0
    4.2843    0.5974   -2.1370 C   0  0  0  0  0  0  0  0  0  0  0  0
    5.0595   -0.7083   -2.1418 C   0  0  0  0  0  0  0  0  0  0  0  0
   -0.8222    0.0790   -1.1590 C   0  0  0  0  0  0  0  0  0  0  0  0
   -1.8625   -0.5052   -1.2862 O   0  0  0  0  0  0  0  0  0  0  0  0
   -0.2390    0.9233   -2.0308 O   0  0  0  0  0  0  0  0  0  0  0  0
   -0.8107    0.9610   -3.3498 C   0  0  0  0  0  0  0  0  0  0  0  0
   -2.1186    1.7254   -3.3290 C   0  0  0  0  0  0  0  0  0  0  0  0
    0.6759    0.0205    3.2278 H   0  0  0  0  0  0  0  0  0  0  0  0
   -2.3723   -1.7801    0.7602 H   0  0  0  0  0  0  0  0  0  0  0  0
   -4.7545   -1.6495    1.4531 H   0  0  0  0  0  0  0  0  0  0  0  0
   -5.5673    0.3021    2.7561 H   0  0  0  0  0  0  0  0  0  0  0  0
   -4.0011    2.1236    3.3746 H   0  0  0  0  0  0  0  0  0  0  0  0
   -1.6125    1.9915    2.7021 H   0  0  0  0  0  0  0  0  0  0  0  0
    6.0310   -1.9734    1.4807 H   0  0  0  0  0  0  0  0  0  0  0  0
    6.9238   -0.1634    2.9338 H   0  0  0  0  0  0  0  0  0  0  0  0
    5.4471    1.6912    3.6609 H   0  0  0  0  0  0  0  0  0  0  0  0
    3.0750    1.7666    2.9269 H   0  0  0  0  0  0  0  0  0  0  0  0
    4.9157    1.4696   -1.8822 H   0  0  0  0  0  0  0  0  0  0  0  0
    3.7524    0.7766   -3.0886 H   0  0  0  0  0  0  0  0  0  0  0  0
    5.5287   -0.9000   -1.1688 H   0  0  0  0  0  0  0  0  0  0  0  0
    5.8493   -0.7026   -2.9000 H   0  0  0  0  0  0  0  0  0  0  0  0
    4.3967   -1.5595   -2.3596 H   0  0  0  0  0  0  0  0  0  0  0  0
   -0.9154   -0.0705   -3.7321 H   0  0  0  0  0  0  0  0  0  0  0  0
   -0.0028    1.4863   -3.8969 H   0  0  0  0  0  0  0  0  0  0  0  0
   -2.9197    1.1416   -2.8505 H   0  0  0  0  0  0  0  0  0  0  0  0
   -2.4540    1.9724   -4.3425 H   0  0  0  0  0  0  0  0  0  0  0  0
   -2.0279    2.6657   -2.7705 H   0  0  0  0  0  0  0  0  0  0  0  0
  1  5  1  0  0  0  0
  2  1  1  0  0  0  0
  2  3  2  0  0  0  0
  3 12  1  0  0  0  0
  3  4  1  0  0  0  0
  4 29  1  0  0  0  0
  5  6  1  0  0  0  0
  5  4  2  0  0  0  0
  6 11  1  0  0  0  0
  7  6  2  0  0  0  0
  7  8  1  0  0  0  0
  8  9  2  0  0  0  0
  9 32  1  0  0  0  0
  9 10  1  0  0  0  0
 10 33  1  0  0  0  0
 11 34  1  0  0  0  0
 11 10  2  0  0  0  0
 12 17  1  0  0  0  0
 13 12  2  0  0  0  0
 13 14  1  0  0  0  0
 14 15  2  0  0  0  0
 15 36  1  0  0  0  0
 15 16  1  0  0  0  0
 16 37  1  0  0  0  0
 17 38  1  0  0  0  0
 17 16  2  0  0  0  0
 18 13  1  0  0  0  0
 19 21  1  0  0  0  0
 19  2  1  0  0  0  0
 20 19  2  0  0  0  0
 22 39  1  0  0  0  0
 22 21  1  0  0  0  0
 23 22  1  0  0  0  0
 23 41  1  0  0  0  0
 24  1  1  0  0  0  0
 25 24  2  0  0  0  0
 26 24  1  0  0  0  0
 27 28  1  0  0  0  0
 27 26  1  0  0  0  0
 28 46  1  0  0  0  0
 28 48  1  0  0  0  0
 30  7  1  0  0  0  0
 31  8  1  0  0  0  0
 35 14  1  0  0  0  0
 40 22  1  0  0  0  0
 42 23  1  0  0  0  0
 43 23  1  0  0  0  0
 44 27  1  0  0  0  0
 45 27  1  0  0  0  0
 47 28  1  0  0  0  0
M  END
$$$$
