48
rmsd30.gzmat
N          0.00000        0.00000        0.00000
C          1.40130        0.00000        0.00000
C          1.83740        0.00000        1.32490
C          0.68070       -0.02560        2.15830
C         -0.44010       -0.03200        1.33170
C         -1.83990       -0.09910        1.71770
C         -2.26620       -1.17190        2.50810
C         -3.59560       -1.24900        2.91110
C         -4.49930       -0.25690        2.53050
C         -4.07340        0.81280        1.74570
C         -2.74370        0.89570        1.33770
C          3.21320        0.05070        1.77630
C          4.05800        1.09770        1.40750
C          5.38320        1.16670        1.81280
C          5.88520        0.14430        2.61680
C          5.06200       -0.91320        3.00270
C          3.73240       -0.96100        2.58950
Cl         3.43980        2.34270        0.41380
C          2.20630        0.06640       -1.22220
O          1.96740        0.68550       -2.22780
O          3.31990       -0.68620       -1.05120
C          4.28340       -0.67720       -2.10690
C          5.14280        0.57080       -2.00590
C         -0.82620       -0.11170       -1.15210
O         -1.89420        0.42410       -1.26830
O         -0.22970       -0.94230       -2.02880
C         -0.83660       -1.01910       -3.33350
C         -0.43530        0.18980       -4.15170
H          0.68270       -0.01980        3.22860
H         -1.55770       -1.94490        2.80220
H         -3.93040       -2.08420        3.52180
H         -5.53850       -0.32000        2.84710
H         -4.77980        1.58440        1.44530
H         -2.40990        1.72970        0.71670
H          6.02040        1.99790        1.51420
H          6.92310        0.17290        2.94360
H          5.46130       -1.70870        3.62940
H          3.09220       -1.79120        2.88780
H          3.77320       -0.76340       -3.08270
H          4.84610       -1.60450       -1.88800
H          4.55630        1.47450       -2.23010
H          5.98190        0.53830       -2.70800
H          5.55510        0.69120       -0.99530
H         -1.93100       -1.12760       -3.22940
H         -0.38890       -1.96280       -3.70200
H         -0.90710        1.11010       -3.77820
H         -0.71050        0.07680       -5.20520
H          0.65360        0.36130       -4.10620
