
     RDKit          3D

 48 50  0  0  0  0  0  0  0  0999 V2000
    0.0355   -0.1373   -0.0259 N   0  0  0  0  0  0  0  0  0  0  0  0
    1.4237   -0.0324   -0.0204 C   0  0  0  0  0  0  0  0  0  0  0  0
    1.8413    0.0923    1.3022 C   0  0  0  0  0  0  0  0  0  0  0  0
    0.6666    0.1004    2.1032 C   0  0  0  0  0  0  0  0  0  0  0  0
   -0.4404   -0.0490    1.2775 C   0  0  0  0  0  0  0  0  0  0  0  0
   -1.8550   -0.0495    1.6837 C   0  0  0  0  0  0  0  0  0  0  0  0
   -2.7892   -0.9878    1.2065 C   0  0  0  0  0  0  0  0  0  0  0  0
   -4.1024   -0.9760    1.6783 C   0  0  0  0  0  0  0  0  0  0  0  0
   -4.5058   -0.0410    2.6353 C   0  0  0  0  0  0  0  0  0  0  0  0
   -3.5838    0.8896    3.1230 C   0  0  0  0  0  0  0  0  0  0  0  0
   -2.2717    0.8861    2.6509 C   0  0  0  0  0  0  0  0  0  0  0  0
    3.2184    0.1632    1.8327 C   0  0  0  0  0  0  0  0  0  0  0  0
    4.1759   -0.8539    1.6585 C   0  0  0  0  0  0  0  0  0  0  0  0
    5.4589   -0.7486    2.1993 C   0  0  0  0  0  0  0  0  0  0  0  0
    5.8120    0.3818    2.9379 C   0  0  0  0  0  0  0  0  0  0  0  0
    4.8771    1.3993    3.1390 C   0  0  0  0  0  0  0  0  0  0  0  0
    3.5987    1.2819    2.5936 C   0  0  0  0  0  0  0  0  0  0  0  0
    3.7856   -2.3079    0.7643 Cl  0  0  0  0  0  0  0  0  0  0  0  0
    2.1906   -0.2072   -1.2565 C   0  0  0  0  0  0  0  0  0  0  0  0
    1.7494   -0.6998   -2.2750 O   0  0  0  0  0  0  0  0  0  0  0  0
    3.4509    0.2258   -1.1210 O   0  0  0  0  0  0  0  0  0  0  0  0
    4.3690   -0.1005   -2.1728 C   0  0  0  0  0  0  0  0  0  0  0  0
    5.7580    0.2635   -1.6948 C   0  0  0  0  0  0  0  0  0  0  0  0
   -0.7691   -0.0321   -1.2083 C   0  0  0  0  0  0  0  0  0  0  0  0
   -1.6355   -0.8109   -1.4954 O   0  0  0  0  0  0  0  0  0  0  0  0
   -0.4470    1.0688   -1.8745 O   0  0  0  0  0  0  0  0  0  0  0  0
   -1.0908    1.2709   -3.1523 C   0  0  0  0  0  0  0  0  0  0  0  0
   -0.4361    0.4585   -4.2532 C   0  0  0  0  0  0  0  0  0  0  0  0
    0.6330    0.1477    3.1890 H   0  0  0  0  0  0  0  0  0  0  0  0
   -2.4814   -1.7230    0.4656 H   0  0  0  0  0  0  0  0  0  0  0  0
   -4.8151   -1.7117    1.2980 H   0  0  0  0  0  0  0  0  0  0  0  0
   -5.5355   -0.0377    3.0009 H   0  0  0  0  0  0  0  0  0  0  0  0
   -3.8896    1.6272    3.8688 H   0  0  0  0  0  0  0  0  0  0  0  0
   -1.5563    1.6245    3.0189 H   0  0  0  0  0  0  0  0  0  0  0  0
    6.1696   -1.5612    2.0423 H   0  0  0  0  0  0  0  0  0  0  0  0
    6.8172    0.4606    3.3580 H   0  0  0  0  0  0  0  0  0  0  0  0
    5.1429    2.2865    3.7178 H   0  0  0  0  0  0  0  0  0  0  0  0
    2.8660    2.0787    2.7383 H   0  0  0  0  0  0  0  0  0  0  0  0
    4.0834    0.4527   -3.0825 H   0  0  0  0  0  0  0  0  0  0  0  0
    4.2782   -1.1741   -2.4006 H   0  0  0  0  0  0  0  0  0  0  0  0
    5.8186    1.3334   -1.4437 H   0  0  0  0  0  0  0  0  0  0  0  0
    6.4971    0.0471   -2.4815 H   0  0  0  0  0  0  0  0  0  0  0  0
    6.0212   -0.3146   -0.7968 H   0  0  0  0  0  0  0  0  0  0  0  0
   -0.9924    2.3506   -3.3298 H   0  0  0  0  0  0  0  0  0  0  0  0
   -2.1564    1.0195   -3.0464 H   0  0  0  0  0  0  0  0  0  0  0  0
    0.6389    0.6765   -4.3178 H   0  0  0  0  0  0  0  0  0  0  0  0
   -0.9120    0.7040   -5.2160 H   0  0  0  0  0  0  0  0  0  0  0  0
   -0.5522   -0.6180   -4.0682 H   0  0  0  0  0  0  0  0  0  0  0  0
  1  2  1  0
  1  5  1  0
  1 24  1  0
  2  3  2  0
  2 19  1  0
  3  4  1  0
  3 12  1  0
  4  5  2  0
  4 29  1  0
  5  6  1  0
  6  7  2  0
  6 11  1  0
  7  8  1  0
  7 30  1  0
  8  9  2  0
  8 31  1  0
  9 10  1  0
  9 32  1  0
 10 11  2  0
 10 33  1  0
 11 34  1  0
 12 13  2  0
 12 17  1  0
 13 14  1  0
 13 18  1  0
 14 15  2  0
 14 35  1  0
 15 16  1  0
 15 36  1  0
 16 17  2  0
 16 37  1  0
 17 38  1  0
 19 20  2  0
 19 21  1  0
 21 22  1  0
 22 23  1  0
 22 39  1  0
 22 40  1  0
 23 41  1  0
 23 42  1  0
 23 43  1  0
 24 25  2  0
 24 26  1  0
 26 27  1  0
 27 28  1  0
 27 44  1  0
 27 45  1  0
 28 46  1  0
 28 47  1  0
 28 48  1  0
M  END

