rmsd238.gzmat
 OpenBabel08211713383D

 48 50  0  0  0  0  0  0  0  0999 V2000
    0.0000    0.0000    0.0000 N   0  0  0  0  0  0  0  0  0  0  0  0
    1.4012    0.0000    0.0000 C   0  0  0  0  0  0  0  0  0  0  0  0
    1.8353    0.0000    1.3251 C   0  0  0  0  0  0  0  0  0  0  0  0
    0.6761   -0.0057    2.1593 C   0  0  0  0  0  0  0  0  0  0  0  0
   -0.4406   -0.0088    1.3318 C   0  0  0  0  0  0  0  0  0  0  0  0
   -1.8505   -0.0348    1.6934 C   0  0  0  0  0  0  0  0  0  0  0  0
   -2.5500   -1.2441    1.6874 C   0  0  0  0  0  0  0  0  0  0  0  0
   -3.8943   -1.2635    2.0502 C   0  0  0  0  0  0  0  0  0  0  0  0
   -4.5369   -0.0804    2.4131 C   0  0  0  0  0  0  0  0  0  0  0  0
   -3.8358    1.1246    2.4191 C   0  0  0  0  0  0  0  0  0  0  0  0
   -2.4901    1.1514    2.0606 C   0  0  0  0  0  0  0  0  0  0  0  0
    3.2095    0.0232    1.7832 C   0  0  0  0  0  0  0  0  0  0  0  0
    4.0861    1.0408    1.4075 C   0  0  0  0  0  0  0  0  0  0  0  0
    5.4117    1.0742    1.8162 C   0  0  0  0  0  0  0  0  0  0  0  0
    5.8799    0.0474    2.6348 C   0  0  0  0  0  0  0  0  0  0  0  0
    5.0230   -0.9788    3.0323 C   0  0  0  0  0  0  0  0  0  0  0  0
    3.6946   -0.9921    2.6133 C   0  0  0  0  0  0  0  0  0  0  0  0
    3.5079    2.2966    0.4036 Cl  0  0  0  0  0  0  0  0  0  0  0  0
    2.2086    0.0731   -1.2223 C   0  0  0  0  0  0  0  0  0  0  0  0
    2.0067    0.7462   -2.2005 O   0  0  0  0  0  0  0  0  0  0  0  0
    3.2847   -0.7396   -1.0821 O   0  0  0  0  0  0  0  0  0  0  0  0
    4.2440   -0.7373   -2.1420 C   0  0  0  0  0  0  0  0  0  0  0  0
    5.1436    0.4807   -2.0238 C   0  0  0  0  0  0  0  0  0  0  0  0
   -0.8405   -0.0699   -1.1429 C   0  0  0  0  0  0  0  0  0  0  0  0
   -1.9493    0.3865   -1.1916 O   0  0  0  0  0  0  0  0  0  0  0  0
   -0.2024   -0.7709   -2.1023 O   0  0  0  0  0  0  0  0  0  0  0  0
   -0.8087   -0.7321   -3.4083 C   0  0  0  0  0  0  0  0  0  0  0  0
   -0.6004    0.6305   -4.0345 C   0  0  0  0  0  0  0  0  0  0  0  0
    0.6788    0.0022    3.2295 H   0  0  0  0  0  0  0  0  0  0  0  0
   -2.0457   -2.1654    1.4007 H   0  0  0  0  0  0  0  0  0  0  0  0
   -4.4444   -2.2021    2.0465 H   0  0  0  0  0  0  0  0  0  0  0  0
   -5.5893   -0.0977    2.6898 H   0  0  0  0  0  0  0  0  0  0  0  0
   -4.3409    2.0470    2.6993 H   0  0  0  0  0  0  0  0  0  0  0  0
   -1.9380    2.0913    2.0562 H   0  0  0  0  0  0  0  0  0  0  0  0
    6.0751    1.8816    1.5091 H   0  0  0  0  0  0  0  0  0  0  0  0
    6.9171    0.0482    2.9647 H   0  0  0  0  0  0  0  0  0  0  0  0
    5.3947   -1.7764    3.6731 H   0  0  0  0  0  0  0  0  0  0  0  0
    3.0270   -1.7970    2.9215 H   0  0  0  0  0  0  0  0  0  0  0  0
    3.7251   -0.7865   -3.1158 H   0  0  0  0  0  0  0  0  0  0  0  0
    4.7785   -1.6860   -1.9451 H   0  0  0  0  0  0  0  0  0  0  0  0
    4.5851    1.4058   -2.2343 H   0  0  0  0  0  0  0  0  0  0  0  0
    5.9804    0.4320   -2.7289 H   0  0  0  0  0  0  0  0  0  0  0  0
    5.5606    0.5726   -1.0122 H   0  0  0  0  0  0  0  0  0  0  0  0
   -1.8735   -1.0130   -3.3229 H   0  0  0  0  0  0  0  0  0  0  0  0
   -0.2354   -1.5351   -3.9120 H   0  0  0  0  0  0  0  0  0  0  0  0
   -1.2283    1.3983   -3.5601 H   0  0  0  0  0  0  0  0  0  0  0  0
   -0.8329    0.6249   -5.1042 H   0  0  0  0  0  0  0  0  0  0  0  0
    0.4460    0.9651   -3.9221 H   0  0  0  0  0  0  0  0  0  0  0  0
  1  5  1  0  0  0  0
  2  1  1  0  0  0  0
  2  3  2  0  0  0  0
  3 12  1  0  0  0  0
  3  4  1  0  0  0  0
  4 29  1  0  0  0  0
  5  6  1  0  0  0  0
  5  4  2  0  0  0  0
  6 11  1  0  0  0  0
  7  6  2  0  0  0  0
  7  8  1  0  0  0  0
  8  9  2  0  0  0  0
  9 10  1  0  0  0  0
  9 32  1  0  0  0  0
 10 33  1  0  0  0  0
 11 10  2  0  0  0  0
 12 17  1  0  0  0  0
 13 12  2  0  0  0  0
 13 14  1  0  0  0  0
 14 15  2  0  0  0  0
 15 36  1  0  0  0  0
 15 16  1  0  0  0  0
 16 37  1  0  0  0  0
 17 38  1  0  0  0  0
 17 16  2  0  0  0  0
 18 13  1  0  0  0  0
 19 21  1  0  0  0  0
 19  2  1  0  0  0  0
 20 19  2  0  0  0  0
 22 23  1  0  0  0  0
 22 40  1  0  0  0  0
 22 21  1  0  0  0  0
 23 43  1  0  0  0  0
 24  1  1  0  0  0  0
 25 24  2  0  0  0  0
 26 24  1  0  0  0  0
 27 44  1  0  0  0  0
 27 26  1  0  0  0  0
 28 48  1  0  0  0  0
 28 46  1  0  0  0  0
 28 27  1  0  0  0  0
 30  7  1  0  0  0  0
 31  8  1  0  0  0  0
 34 11  1  0  0  0  0
 35 14  1  0  0  0  0
 39 22  1  0  0  0  0
 41 23  1  0  0  0  0
 42 23  1  0  0  0  0
 45 27  1  0  0  0  0
 47 28  1  0  0  0  0
M  END
$$$$
