rmsd141.gzmat
 OpenBabel08211713383D

 48 50  0  0  0  0  0  0  0  0999 V2000
    0.0000    0.0000    0.0000 N   0  0  0  0  0  0  0  0  0  0  0  0
    1.4024    0.0000    0.0000 C   0  0  0  0  0  0  0  0  0  0  0  0
    1.8393    0.0000    1.3249 C   0  0  0  0  0  0  0  0  0  0  0  0
    0.6801    0.0133    2.1573 C   0  0  0  0  0  0  0  0  0  0  0  0
   -0.4407    0.0170    1.3312 C   0  0  0  0  0  0  0  0  0  0  0  0
   -1.8410    0.0538    1.7198 C   0  0  0  0  0  0  0  0  0  0  0  0
   -2.7283   -0.9443    1.3104 C   0  0  0  0  0  0  0  0  0  0  0  0
   -4.0595   -0.8957    1.7194 C   0  0  0  0  0  0  0  0  0  0  0  0
   -4.5030    0.1432    2.5354 C   0  0  0  0  0  0  0  0  0  0  0  0
   -3.6151    1.1362    2.9493 C   0  0  0  0  0  0  0  0  0  0  0  0
   -2.2846    1.0938    2.5441 C   0  0  0  0  0  0  0  0  0  0  0  0
    3.2084   -0.0157    1.7991 C   0  0  0  0  0  0  0  0  0  0  0  0
    4.1293   -0.9792    1.3891 C   0  0  0  0  0  0  0  0  0  0  0  0
    5.4409   -1.0011    1.8439 C   0  0  0  0  0  0  0  0  0  0  0  0
    5.8499   -0.0210    2.7461 C   0  0  0  0  0  0  0  0  0  0  0  0
    4.9508    0.9561    3.1730 C   0  0  0  0  0  0  0  0  0  0  0  0
    3.6397    0.9611    2.7042 C   0  0  0  0  0  0  0  0  0  0  0  0
    3.6374   -2.1919    0.2903 Cl  0  0  0  0  0  0  0  0  0  0  0  0
    2.2008   -0.0986   -1.2231 C   0  0  0  0  0  0  0  0  0  0  0  0
    1.9247   -0.6910   -2.2366 O   0  0  0  0  0  0  0  0  0  0  0  0
    3.3717    0.5564   -1.0443 O   0  0  0  0  0  0  0  0  0  0  0  0
    4.3462    0.4019   -2.0892 C   0  0  0  0  0  0  0  0  0  0  0  0
    5.6291    0.9180   -1.4570 C   0  0  0  0  0  0  0  0  0  0  0  0
   -0.8255    0.1422   -1.1498 C   0  0  0  0  0  0  0  0  0  0  0  0
   -1.9112   -0.3574   -1.2629 O   0  0  0  0  0  0  0  0  0  0  0  0
   -0.2026    0.9530   -2.0262 O   0  0  0  0  0  0  0  0  0  0  0  0
   -0.8076    1.0495   -3.3305 C   0  0  0  0  0  0  0  0  0  0  0  0
   -0.6329   -0.2494   -4.0879 C   0  0  0  0  0  0  0  0  0  0  0  0
    0.6819   -0.0014    3.2273 H   0  0  0  0  0  0  0  0  0  0  0  0
   -2.3815   -1.7544    0.6655 H   0  0  0  0  0  0  0  0  0  0  0  0
   -4.7531   -1.6697    1.3958 H   0  0  0  0  0  0  0  0  0  0  0  0
   -5.5442    0.1811    2.8494 H   0  0  0  0  0  0  0  0  0  0  0  0
   -3.9633    1.9448    3.5879 H   0  0  0  0  0  0  0  0  0  0  0  0
   -1.5886    1.8687    2.8624 H   0  0  0  0  0  0  0  0  0  0  0  0
    6.1384   -1.7680    1.5096 H   0  0  0  0  0  0  0  0  0  0  0  0
    6.8727   -0.0198    3.1183 H   0  0  0  0  0  0  0  0  0  0  0  0
    5.2759    1.7193    3.8777 H   0  0  0  0  0  0  0  0  0  0  0  0
    2.9406    1.7305    3.0328 H   0  0  0  0  0  0  0  0  0  0  0  0
    4.0088    1.0045   -2.9497 H   0  0  0  0  0  0  0  0  0  0  0  0
    4.4093   -0.6622   -2.3820 H   0  0  0  0  0  0  0  0  0  0  0  0
    5.5126    1.9542   -1.1111 H   0  0  0  0  0  0  0  0  0  0  0  0
    6.4628    0.8853   -2.1655 H   0  0  0  0  0  0  0  0  0  0  0  0
    5.9045    0.3213   -0.5757 H   0  0  0  0  0  0  0  0  0  0  0  0
   -0.2139    1.8835   -3.7546 H   0  0  0  0  0  0  0  0  0  0  0  0
   -1.8647    1.3471   -3.2156 H   0  0  0  0  0  0  0  0  0  0  0  0
    0.3940   -0.6404   -3.9752 H   0  0  0  0  0  0  0  0  0  0  0  0
   -0.8216   -0.1242   -5.1591 H   0  0  0  0  0  0  0  0  0  0  0  0
   -1.3094   -1.0334   -3.7182 H   0  0  0  0  0  0  0  0  0  0  0  0
  1  2  1  0  0  0  0
  1  5  1  0  0  0  0
  2  3  2  0  0  0  0
  3 12  1  0  0  0  0
  3  4  1  0  0  0  0
  4 29  1  0  0  0  0
  5  6  1  0  0  0  0
  5  4  2  0  0  0  0
  6 11  2  0  0  0  0
  7  8  2  0  0  0  0
  7  6  1  0  0  0  0
  8  9  1  0  0  0  0
  9 32  1  0  0  0  0
  9 10  2  0  0  0  0
 10 33  1  0  0  0  0
 11 34  1  0  0  0  0
 11 10  1  0  0  0  0
 12 17  1  0  0  0  0
 13 12  2  0  0  0  0
 13 14  1  0  0  0  0
 14 15  2  0  0  0  0
 15 36  1  0  0  0  0
 15 16  1  0  0  0  0
 16 37  1  0  0  0  0
 17 38  1  0  0  0  0
 17 16  2  0  0  0  0
 18 13  1  0  0  0  0
 19 21  1  0  0  0  0
 19  2  1  0  0  0  0
 20 19  2  0  0  0  0
 22 23  1  0  0  0  0
 22 21  1  0  0  0  0
 23 41  1  0  0  0  0
 23 43  1  0  0  0  0
 24  1  1  0  0  0  0
 25 24  2  0  0  0  0
 26 24  1  0  0  0  0
 27 45  1  0  0  0  0
 27 26  1  0  0  0  0
 28 46  1  0  0  0  0
 28 48  1  0  0  0  0
 28 27  1  0  0  0  0
 30  7  1  0  0  0  0
 31  8  1  0  0  0  0
 35 14  1  0  0  0  0
 39 22  1  0  0  0  0
 40 22  1  0  0  0  0
 42 23  1  0  0  0  0
 44 27  1  0  0  0  0
 47 28  1  0  0  0  0
M  END
$$$$
