40
rmsd73.gzmat
C          0.00000        0.00000        0.00000
C          1.39590        0.00000        0.00000
C          2.10170        0.00000        1.19960
C          1.40860       -0.00620        2.42400
C          0.00380       -0.00330        2.42040
C         -0.68810        0.00240        1.21810
N          2.12940       -0.04930        3.63770
C          1.66390        0.50080        4.83540
O          0.59500        1.05950        4.90990
C          2.59380        0.33030        6.00410
S          3.87330       -0.02950        1.12980
C          4.30190        1.72980        1.34930
C         -0.73540        0.00530       -1.26710
C         -0.46170       -0.95360       -2.24610
C         -1.14300       -0.94650       -3.45780
C         -2.10880        0.03820       -3.70190
C         -2.40100        0.99670       -2.71330
C         -1.71390        0.97480       -1.50720
N         -2.83940        0.11850       -4.90990
C         -2.51400       -0.54960       -6.09380
O         -1.56630       -1.29350       -6.17800
C         -3.44510       -0.26330       -7.24070
H          1.92450        0.00950       -0.95800
H         -0.54810       -0.00320        3.36310
H         -1.77950       -0.00140        1.22290
H          3.06220       -0.45700        3.60840
H          2.63000       -0.71710        6.33660
H          2.23270        0.92700        6.85940
H          3.61830        0.65740        5.78860
H          5.39370        1.81160        1.40660
H          3.87260        2.14790        2.26470
H          3.95720        2.33670        0.50470
H          0.29050       -1.72120       -2.05760
H         -0.91720       -1.70830       -4.20690
H         -3.15400        1.75890       -2.88990
H         -1.92920        1.72510       -0.74610
H         -3.62590        0.75900       -4.91330
H         -4.46970       -0.59860       -7.03210
H         -3.10700       -0.80380       -8.14180
H         -3.47530        0.80310       -7.49850
