40

C         -0.01600        0.12820        0.00290
C          1.37570       -0.04860        0.07470
C          2.05740       -0.01980        1.29220
C          1.34700        0.17590        2.50360
C         -0.04420        0.36500        2.44100
C         -0.70000        0.33870        1.21330
N          2.07100        0.16620        3.69910
C          1.63240        0.40680        4.98240
O          0.49090        0.71660        5.26840
C          2.70610        0.22360        6.04250
S          3.83680       -0.23930        1.30910
C          4.36390        1.51370        1.39190
C         -0.72570        0.09910       -1.29660
C         -0.29480       -0.72600       -2.35030
C         -0.94810       -0.76520       -3.58040
C         -2.07990        0.04070       -3.79250
C         -2.52430        0.87110       -2.74860
C         -1.85960        0.89880       -1.52760
N         -2.80020        0.06370       -4.99920
C         -2.56290       -0.63660       -6.16160
O         -1.64240       -1.41760       -6.31130
C         -3.56200       -0.36190       -7.27470
H          1.95850       -0.18520       -0.83740
H         -0.59090        0.52180        3.36740
H         -1.78520        0.45990        1.20210
H          3.04460       -0.10550        3.57020
H          2.57760       -0.76510        6.51260
H          2.55910        0.98200        6.82300
H          3.73010        0.29120        5.64660
H          5.46230        1.51530        1.44210
H          3.95610        2.00310        2.28780
H          4.03730        2.05300        0.49210
H          0.56620       -1.38070       -2.20030
H         -0.60320       -1.41610       -4.37940
H         -3.39780        1.51190       -2.90170
H         -2.21500        1.57410       -0.74690
H         -3.60080        0.68320       -5.00570
H         -4.05990       -1.30750       -7.53770
H         -3.00790       -0.03020       -8.16530
H         -4.32590        0.38870       -7.02460
