40
rmsd172.gzmat
C          0.00000        0.00000        0.00000
C          1.39540        0.00000        0.00000
C          2.09930        0.00000        1.20070
C          1.40540       -0.01000        2.42560
C          0.00070        0.00230        2.42110
C         -0.68930        0.01050        1.21800
N          2.13310       -0.06450        3.63310
C          1.66900        0.42910        4.85630
O          0.57890        0.93560        4.97460
C          2.64540        0.27500        5.98970
S          3.87080       -0.02480        1.13120
C          4.28960        1.73520        1.36590
C         -0.74100       -0.02120       -1.26340
C         -0.48300        0.93080       -2.25360
C         -1.18060        0.90390       -3.45380
C         -2.15120       -0.09120       -3.67810
C         -2.41370       -1.04600       -2.68720
C         -1.71170       -1.00190       -1.48850
N         -2.80900       -0.07280       -4.92900
C         -3.86790       -0.90530       -5.30270
O         -4.34100       -1.72990       -4.55820
C         -4.35980       -0.68630       -6.70800
H          1.92650       -0.00680       -0.95620
H         -0.55470        0.00540        3.36240
H         -1.78150        0.02650        1.22040
H          3.07760       -0.44490        3.58450
H          2.83440       -0.78170        6.22420
H          2.23910        0.74260        6.90250
H          3.60920        0.75780        5.78170
H          5.38170        1.82580        1.39580
H          3.88210        2.13600        2.29880
H          3.91670        2.35060        0.54000
H          0.26570        1.70390       -2.08040
H         -0.97290        1.65280       -4.21250
H         -3.16080       -1.82760       -2.84180
H         -1.91840       -1.74800       -0.71930
H         -2.48000        0.61930       -5.59430
H         -4.83850        0.29460       -6.82750
H         -5.11880       -1.44710       -6.95920
H         -3.55820       -0.77430       -7.45240
