40
rmsd61.gzmat
C          0.00000        0.00000        0.00000
C          1.39490        0.00000        0.00000
C          2.10000        0.00000        1.19950
C          1.40940       -0.01740        2.42730
C          0.00410       -0.03750        2.41980
C         -0.68760       -0.01950        1.21770
N          2.14180       -0.03600        3.63100
C          1.63210        0.32440        4.88260
O          0.48570        0.66830        5.04220
C          2.63760        0.25200        5.99870
S          3.87140       -0.00250        1.12430
C          4.24060        1.77780        0.97800
C         -0.73070        0.02840       -1.26880
C         -0.50350       -0.95540       -2.23430
C         -1.17440       -0.92460       -3.45120
C         -2.08560        0.10710       -3.71150
C         -2.32640        1.09480       -2.73720
C         -1.65030        1.04870       -1.52570
N         -2.80730        0.21410       -4.92250
C         -2.57910       -0.54740       -6.07200
O         -1.72840       -1.40290       -6.12630
C         -3.47580       -0.20320       -7.23050
H          1.92340        0.00890       -0.95810
H         -0.55480       -0.06510        3.35870
H         -1.77910       -0.02870        1.22160
H          3.13160       -0.27520        3.56500
H          3.11810       -0.73230        6.06910
H          2.14000        0.44050        6.96490
H          3.42300        1.01190        5.88850
H          5.32940        1.90360        0.96840
H          3.83170        2.35310        1.81400
H          3.83950        2.19510        0.04750
H          0.20340       -1.76070       -2.02980
H         -0.98160       -1.70490       -4.19060
H         -3.03280        1.89680       -2.92830
H         -1.82810        1.81750       -0.77340
H         -3.52050        0.93520       -4.95280
H         -4.53880       -0.19590       -6.96020
H         -3.34980       -0.94900       -8.03460
H         -3.21910        0.77460       -7.66080
