40

C          0.02930       -0.02110       -0.01170
C          1.42880        0.08460        0.04360
C          2.11340        0.14780        1.25840
C          1.40120        0.08440        2.48270
C         -0.00050       -0.00970        2.43770
C         -0.66060       -0.05970        1.21310
N          2.13430        0.11730        3.67230
C          1.68050        0.13590        4.97280
O          0.50560        0.17200        5.28690
C          2.78950        0.07980        6.01070
S          3.90180        0.27680        1.25420
C          4.08030        2.08530        1.48990
C         -0.68490       -0.08540       -1.30760
C         -0.20890        0.59850       -2.44090
C         -0.88110        0.53530       -3.65640
C         -2.06190       -0.21620       -3.78860
C         -2.55310       -0.90640       -2.66710
C         -1.86620       -0.83290       -1.45700
N         -2.68890       -0.23480       -5.04630
C         -3.84610       -0.87880       -5.42650
O         -4.52250       -1.56190       -4.68140
C         -4.23000       -0.67110       -6.88330
H          2.01490        0.10010       -0.87650
H         -0.55130       -0.03260        3.37460
H         -1.75130       -0.11030        1.21270
H          3.14030        0.06450        3.51900
H          2.87510       -0.95340        6.38490
H          2.50550        0.71590        6.85970
H          3.77010        0.39320        5.62320
H          5.15820        2.29680        1.53920
H          3.60150        2.40730        2.42560
H          3.63890        2.62660        0.64170
H          0.69100        1.21220       -2.36590
H         -0.49150        1.08640       -4.51760
H         -3.46050       -1.49660       -2.76300
H         -2.25310       -1.39850       -0.60690
H         -2.21960        0.30260       -5.76430
H         -5.23720       -0.22950       -6.91830
H         -4.29210       -1.65550       -7.37090
H         -3.53680       -0.03200       -7.44930
