rmsd13.gzmat
 OpenBabel08211713373D

 40 41  0  0  0  0  0  0  0  0999 V2000
    0.0000    0.0000    0.0000 C   0  0  0  0  0  0  0  0  0  0  0  0
    1.3949    0.0000    0.0000 C   0  0  0  0  0  0  0  0  0  0  0  0
    2.0990    0.0000    1.2006 C   0  0  0  0  0  0  0  0  0  0  0  0
    1.4054    0.0170    2.4252 C   0  0  0  0  0  0  0  0  0  0  0  0
    0.0003    0.0179    2.4199 C   0  0  0  0  0  0  0  0  0  0  0  0
   -0.6902    0.0027    1.2170 C   0  0  0  0  0  0  0  0  0  0  0  0
    2.1300    0.0616    3.6354 N   0  0  0  0  0  0  0  0  0  0  0  0
    1.6550   -0.4443    4.8496 C   0  0  0  0  0  0  0  0  0  0  0  0
    0.5623   -0.9487    4.9522 O   0  0  0  0  0  0  0  0  0  0  0  0
    2.6199   -0.3067    5.9945 C   0  0  0  0  0  0  0  0  0  0  0  0
    3.8705   -0.0011    1.1294 S   0  0  0  0  0  0  0  0  0  0  0  0
    4.2553   -1.7709    1.3487 C   0  0  0  0  0  0  0  0  0  0  0  0
   -0.7360   -0.0117   -1.2666 C   0  0  0  0  0  0  0  0  0  0  0  0
   -1.6389   -1.0412   -1.5441 C   0  0  0  0  0  0  0  0  0  0  0  0
   -2.3386   -1.0679   -2.7449 C   0  0  0  0  0  0  0  0  0  0  0  0
   -2.1399   -0.0477   -3.6841 C   0  0  0  0  0  0  0  0  0  0  0  0
   -1.2335    0.9940   -3.4075 C   0  0  0  0  0  0  0  0  0  0  0  0
   -0.5382    1.0039   -2.2058 C   0  0  0  0  0  0  0  0  0  0  0  0
   -2.8036   -0.0014   -4.9315 N   0  0  0  0  0  0  0  0  0  0  0  0
   -3.8179   -0.8693   -5.3458 C   0  0  0  0  0  0  0  0  0  0  0  0
   -4.2272   -1.7688   -4.6519 O   0  0  0  0  0  0  0  0  0  0  0  0
   -4.3497   -0.5847   -6.7249 C   0  0  0  0  0  0  0  0  0  0  0  0
    1.9236   -0.0105   -0.9574 H   0  0  0  0  0  0  0  0  0  0  0  0
   -0.5553    0.0268    3.3609 H   0  0  0  0  0  0  0  0  0  0  0  0
   -1.7822    0.0014    1.2190 H   0  0  0  0  0  0  0  0  0  0  0  0
    3.0803    0.4253    3.5926 H   0  0  0  0  0  0  0  0  0  0  0  0
    3.5460   -0.8722    5.8255 H   0  0  0  0  0  0  0  0  0  0  0  0
    2.1633   -0.7007    6.9184 H   0  0  0  0  0  0  0  0  0  0  0  0
    2.8870    0.7410    6.1872 H   0  0  0  0  0  0  0  0  0  0  0  0
    5.3432   -1.8939    1.3006 H   0  0  0  0  0  0  0  0  0  0  0  0
    3.8060   -2.3819    0.5577 H   0  0  0  0  0  0  0  0  0  0  0  0
    3.9019   -2.1516    2.3110 H   0  0  0  0  0  0  0  0  0  0  0  0
   -1.7929   -1.8378   -0.8142 H   0  0  0  0  0  0  0  0  0  0  0  0
   -3.0353   -1.8860   -2.9411 H   0  0  0  0  0  0  0  0  0  0  0  0
   -1.0760    1.7926   -4.1259 H   0  0  0  0  0  0  0  0  0  0  0  0
    0.1602    1.8125   -1.9897 H   0  0  0  0  0  0  0  0  0  0  0  0
   -2.5216    0.7461   -5.5576 H   0  0  0  0  0  0  0  0  0  0  0  0
   -4.8145    0.4073   -6.7934 H   0  0  0  0  0  0  0  0  0  0  0  0
   -5.1285   -1.3230   -6.9839 H   0  0  0  0  0  0  0  0  0  0  0  0
   -3.5706   -0.6578   -7.4951 H   0  0  0  0  0  0  0  0  0  0  0  0
  1  6  1  0  0  0  0
  2  1  2  0  0  0  0
  2  3  1  0  0  0  0
  3  4  2  0  0  0  0
  4  7  1  0  0  0  0
  5  4  1  0  0  0  0
  5 24  1  0  0  0  0
  6 25  1  0  0  0  0
  6  5  2  0  0  0  0
  7  8  1  0  0  0  0
  8  9  2  0  0  0  0
  8 10  1  0  0  0  0
 10 29  1  0  0  0  0
 10 28  1  0  0  0  0
 11  3  1  0  0  0  0
 11 12  1  0  0  0  0
 12 32  1  0  0  0  0
 13  1  1  0  0  0  0
 14 13  1  0  0  0  0
 14 33  1  0  0  0  0
 15 14  2  0  0  0  0
 16 17  2  0  0  0  0
 16 15  1  0  0  0  0
 17 18  1  0  0  0  0
 18 36  1  0  0  0  0
 18 13  2  0  0  0  0
 19 16  1  0  0  0  0
 20 19  1  0  0  0  0
 20 21  2  0  0  0  0
 22 20  1  0  0  0  0
 23  2  1  0  0  0  0
 26  7  1  0  0  0  0
 27 10  1  0  0  0  0
 30 12  1  0  0  0  0
 31 12  1  0  0  0  0
 34 15  1  0  0  0  0
 35 17  1  0  0  0  0
 37 19  1  0  0  0  0
 38 22  1  0  0  0  0
 39 22  1  0  0  0  0
 40 22  1  0  0  0  0
M  END
$$$$
