40
rmsd40.gzmat
C          0.00000        0.00000        0.00000
C          1.39510        0.00000        0.00000
C          2.09980        0.00000        1.20010
C          1.40640        0.01270        2.42470
C          0.00140       -0.00090        2.42030
C         -0.68950       -0.01110        1.21760
N          2.13030        0.07540        3.63490
C          1.66750       -0.44020        4.84940
O          0.59250       -0.98320        4.94680
C          2.60780       -0.24940        6.00670
S          3.87150        0.00820        1.12860
C          4.26380       -1.76190        1.33180
C         -0.74000        0.01740       -1.26370
C         -1.71200       -0.95130       -1.52630
C         -2.43300       -0.92990       -2.71460
C         -2.18470        0.07740       -3.65590
C         -1.19510        1.04680       -3.40360
C         -0.48240        1.01090       -2.21280
N         -2.88050        0.17770       -4.88240
C         -4.01920       -0.55480       -5.22890
O         -4.50700       -1.38170       -4.49620
C         -4.57720       -0.22710       -6.58760
H          1.92480       -0.00830       -0.95670
H         -0.55220       -0.00380        3.36240
H         -1.78170       -0.01660        1.21930
H          3.06760        0.47170        3.59150
H          3.66340       -0.38670        5.74580
H          2.36990       -0.97100        6.80650
H          2.48960        0.75500        6.44070
H          5.35330       -1.87040        1.37780
H          3.89450       -2.35450        0.48710
H          3.83400       -2.17510        2.24960
H         -1.90450       -1.73740       -0.79420
H         -3.18680       -1.69860       -2.89900
H         -0.98910        1.82730       -4.12990
H          0.27620        1.76770       -2.01180
H         -2.53240        0.87110       -5.53630
H         -4.71200        0.84930       -6.74760
H         -5.56780       -0.69920       -6.70740
H         -3.93820       -0.62060       -7.39050
