40
rmsd13.gzmat
C          0.00000        0.00000        0.00000
C          1.39490        0.00000        0.00000
C          2.09900        0.00000        1.20060
C          1.40540        0.01700        2.42520
C          0.00030        0.01790        2.41990
C         -0.69020        0.00270        1.21700
N          2.13000        0.06160        3.63540
C          1.65500       -0.44430        4.84960
O          0.56230       -0.94870        4.95220
C          2.61990       -0.30670        5.99450
S          3.87050       -0.00110        1.12940
C          4.25530       -1.77090        1.34870
C         -0.73600       -0.01170       -1.26660
C         -1.63890       -1.04120       -1.54410
C         -2.33860       -1.06790       -2.74490
C         -2.13990       -0.04770       -3.68410
C         -1.23350        0.99400       -3.40750
C         -0.53820        1.00390       -2.20580
N         -2.80360       -0.00140       -4.93150
C         -3.81790       -0.86930       -5.34580
O         -4.22720       -1.76880       -4.65190
C         -4.34970       -0.58470       -6.72490
H          1.92360       -0.01050       -0.95740
H         -0.55530        0.02680        3.36090
H         -1.78220        0.00140        1.21900
H          3.08030        0.42530        3.59260
H          3.54600       -0.87220        5.82550
H          2.16330       -0.70070        6.91840
H          2.88700        0.74100        6.18720
H          5.34320       -1.89390        1.30060
H          3.80600       -2.38190        0.55770
H          3.90190       -2.15160        2.31100
H         -1.79290       -1.83780       -0.81420
H         -3.03530       -1.88600       -2.94110
H         -1.07600        1.79260       -4.12590
H          0.16020        1.81250       -1.98970
H         -2.52160        0.74610       -5.55760
H         -4.81450        0.40730       -6.79340
H         -5.12850       -1.32300       -6.98390
H         -3.57060       -0.65780       -7.49510
