rmsd172.gzmat
 OpenBabel08211713373D

 40 41  0  0  0  0  0  0  0  0999 V2000
    0.0000    0.0000    0.0000 C   0  0  0  0  0  0  0  0  0  0  0  0
    1.3954    0.0000    0.0000 C   0  0  0  0  0  0  0  0  0  0  0  0
    2.0993    0.0000    1.2007 C   0  0  0  0  0  0  0  0  0  0  0  0
    1.4054   -0.0100    2.4256 C   0  0  0  0  0  0  0  0  0  0  0  0
    0.0007    0.0023    2.4211 C   0  0  0  0  0  0  0  0  0  0  0  0
   -0.6893    0.0105    1.2180 C   0  0  0  0  0  0  0  0  0  0  0  0
    2.1331   -0.0645    3.6331 N   0  0  0  0  0  0  0  0  0  0  0  0
    1.6690    0.4291    4.8563 C   0  0  0  0  0  0  0  0  0  0  0  0
    0.5789    0.9356    4.9746 O   0  0  0  0  0  0  0  0  0  0  0  0
    2.6454    0.2750    5.9897 C   0  0  0  0  0  0  0  0  0  0  0  0
    3.8708   -0.0248    1.1312 S   0  0  0  0  0  0  0  0  0  0  0  0
    4.2896    1.7352    1.3659 C   0  0  0  0  0  0  0  0  0  0  0  0
   -0.7410   -0.0212   -1.2634 C   0  0  0  0  0  0  0  0  0  0  0  0
   -0.4830    0.9308   -2.2536 C   0  0  0  0  0  0  0  0  0  0  0  0
   -1.1806    0.9039   -3.4538 C   0  0  0  0  0  0  0  0  0  0  0  0
   -2.1512   -0.0912   -3.6781 C   0  0  0  0  0  0  0  0  0  0  0  0
   -2.4137   -1.0460   -2.6872 C   0  0  0  0  0  0  0  0  0  0  0  0
   -1.7117   -1.0019   -1.4885 C   0  0  0  0  0  0  0  0  0  0  0  0
   -2.8090   -0.0728   -4.9290 N   0  0  0  0  0  0  0  0  0  0  0  0
   -3.8679   -0.9053   -5.3027 C   0  0  0  0  0  0  0  0  0  0  0  0
   -4.3410   -1.7299   -4.5582 O   0  0  0  0  0  0  0  0  0  0  0  0
   -4.3598   -0.6863   -6.7080 C   0  0  0  0  0  0  0  0  0  0  0  0
    1.9265   -0.0068   -0.9562 H   0  0  0  0  0  0  0  0  0  0  0  0
   -0.5547    0.0054    3.3624 H   0  0  0  0  0  0  0  0  0  0  0  0
   -1.7815    0.0265    1.2204 H   0  0  0  0  0  0  0  0  0  0  0  0
    3.0776   -0.4449    3.5845 H   0  0  0  0  0  0  0  0  0  0  0  0
    2.8344   -0.7817    6.2242 H   0  0  0  0  0  0  0  0  0  0  0  0
    2.2391    0.7426    6.9025 H   0  0  0  0  0  0  0  0  0  0  0  0
    3.6092    0.7578    5.7817 H   0  0  0  0  0  0  0  0  0  0  0  0
    5.3817    1.8258    1.3958 H   0  0  0  0  0  0  0  0  0  0  0  0
    3.8821    2.1360    2.2988 H   0  0  0  0  0  0  0  0  0  0  0  0
    3.9167    2.3506    0.5400 H   0  0  0  0  0  0  0  0  0  0  0  0
    0.2657    1.7039   -2.0804 H   0  0  0  0  0  0  0  0  0  0  0  0
   -0.9729    1.6528   -4.2125 H   0  0  0  0  0  0  0  0  0  0  0  0
   -3.1608   -1.8276   -2.8418 H   0  0  0  0  0  0  0  0  0  0  0  0
   -1.9184   -1.7480   -0.7193 H   0  0  0  0  0  0  0  0  0  0  0  0
   -2.4800    0.6193   -5.5943 H   0  0  0  0  0  0  0  0  0  0  0  0
   -4.8385    0.2946   -6.8275 H   0  0  0  0  0  0  0  0  0  0  0  0
   -5.1188   -1.4471   -6.9592 H   0  0  0  0  0  0  0  0  0  0  0  0
   -3.5582   -0.7743   -7.4524 H   0  0  0  0  0  0  0  0  0  0  0  0
  1  6  1  0  0  0  0
  2  1  2  0  0  0  0
  2  3  1  0  0  0  0
  3  4  2  0  0  0  0
  4  7  1  0  0  0  0
  5  4  1  0  0  0  0
  5 24  1  0  0  0  0
  6 25  1  0  0  0  0
  6  5  2  0  0  0  0
  7  8  1  0  0  0  0
  8  9  2  0  0  0  0
  8 10  1  0  0  0  0
 10 27  1  0  0  0  0
 10 28  1  0  0  0  0
 11  3  1  0  0  0  0
 11 12  1  0  0  0  0
 12 30  1  0  0  0  0
 12 31  1  0  0  0  0
 13  1  1  0  0  0  0
 14 33  1  0  0  0  0
 14 13  2  0  0  0  0
 15 14  1  0  0  0  0
 16 15  2  0  0  0  0
 16 17  1  0  0  0  0
 17 18  2  0  0  0  0
 18 13  1  0  0  0  0
 18 36  1  0  0  0  0
 19 16  1  0  0  0  0
 20 19  1  0  0  0  0
 20 21  2  0  0  0  0
 22 20  1  0  0  0  0
 23  2  1  0  0  0  0
 26  7  1  0  0  0  0
 29 10  1  0  0  0  0
 32 12  1  0  0  0  0
 34 15  1  0  0  0  0
 35 17  1  0  0  0  0
 37 19  1  0  0  0  0
 38 22  1  0  0  0  0
 39 22  1  0  0  0  0
 40 22  1  0  0  0  0
M  END
$$$$
