
     RDKit          3D

 40 41  0  0  0  0  0  0  0  0999 V2000
    0.0293   -0.0211   -0.0117 C   0  0  0  0  0  0  0  0  0  0  0  0
    1.4288    0.0846    0.0436 C   0  0  0  0  0  0  0  0  0  0  0  0
    2.1134    0.1478    1.2584 C   0  0  0  0  0  0  0  0  0  0  0  0
    1.4012    0.0844    2.4827 C   0  0  0  0  0  0  0  0  0  0  0  0
   -0.0005   -0.0097    2.4377 C   0  0  0  0  0  0  0  0  0  0  0  0
   -0.6606   -0.0597    1.2131 C   0  0  0  0  0  0  0  0  0  0  0  0
    2.1343    0.1173    3.6723 N   0  0  0  0  0  0  0  0  0  0  0  0
    1.6805    0.1359    4.9728 C   0  0  0  0  0  0  0  0  0  0  0  0
    0.5056    0.1720    5.2869 O   0  0  0  0  0  0  0  0  0  0  0  0
    2.7895    0.0798    6.0107 C   0  0  0  0  0  0  0  0  0  0  0  0
    3.9018    0.2768    1.2542 S   0  0  0  0  0  0  0  0  0  0  0  0
    4.0803    2.0853    1.4899 C   0  0  0  0  0  0  0  0  0  0  0  0
   -0.6849   -0.0854   -1.3076 C   0  0  0  0  0  0  0  0  0  0  0  0
   -0.2089    0.5985   -2.4409 C   0  0  0  0  0  0  0  0  0  0  0  0
   -0.8811    0.5353   -3.6564 C   0  0  0  0  0  0  0  0  0  0  0  0
   -2.0619   -0.2162   -3.7886 C   0  0  0  0  0  0  0  0  0  0  0  0
   -2.5531   -0.9064   -2.6671 C   0  0  0  0  0  0  0  0  0  0  0  0
   -1.8662   -0.8329   -1.4570 C   0  0  0  0  0  0  0  0  0  0  0  0
   -2.6889   -0.2348   -5.0463 N   0  0  0  0  0  0  0  0  0  0  0  0
   -3.8461   -0.8788   -5.4265 C   0  0  0  0  0  0  0  0  0  0  0  0
   -4.5225   -1.5619   -4.6814 O   0  0  0  0  0  0  0  0  0  0  0  0
   -4.2300   -0.6711   -6.8833 C   0  0  0  0  0  0  0  0  0  0  0  0
    2.0149    0.1001   -0.8765 H   0  0  0  0  0  0  0  0  0  0  0  0
   -0.5513   -0.0326    3.3746 H   0  0  0  0  0  0  0  0  0  0  0  0
   -1.7513   -0.1103    1.2127 H   0  0  0  0  0  0  0  0  0  0  0  0
    3.1403    0.0645    3.5190 H   0  0  0  0  0  0  0  0  0  0  0  0
    2.8751   -0.9534    6.3849 H   0  0  0  0  0  0  0  0  0  0  0  0
    2.5055    0.7159    6.8597 H   0  0  0  0  0  0  0  0  0  0  0  0
    3.7701    0.3932    5.6232 H   0  0  0  0  0  0  0  0  0  0  0  0
    5.1582    2.2968    1.5392 H   0  0  0  0  0  0  0  0  0  0  0  0
    3.6015    2.4073    2.4256 H   0  0  0  0  0  0  0  0  0  0  0  0
    3.6389    2.6266    0.6417 H   0  0  0  0  0  0  0  0  0  0  0  0
    0.6910    1.2122   -2.3659 H   0  0  0  0  0  0  0  0  0  0  0  0
   -0.4915    1.0864   -4.5176 H   0  0  0  0  0  0  0  0  0  0  0  0
   -3.4605   -1.4966   -2.7630 H   0  0  0  0  0  0  0  0  0  0  0  0
   -2.2531   -1.3985   -0.6069 H   0  0  0  0  0  0  0  0  0  0  0  0
   -2.2196    0.3026   -5.7643 H   0  0  0  0  0  0  0  0  0  0  0  0
   -5.2372   -0.2295   -6.9183 H   0  0  0  0  0  0  0  0  0  0  0  0
   -4.2921   -1.6555   -7.3709 H   0  0  0  0  0  0  0  0  0  0  0  0
   -3.5368   -0.0320   -7.4493 H   0  0  0  0  0  0  0  0  0  0  0  0
  1  2  2  0
  1  6  1  0
  1 13  1  0
  2  3  1  0
  2 23  1  0
  3  4  2  0
  3 11  1  0
  4  5  1  0
  4  7  1  0
  5  6  2  0
  5 24  1  0
  6 25  1  0
  7  8  1  0
  7 26  1  0
  8  9  2  0
  8 10  1  0
 10 27  1  0
 10 28  1  0
 10 29  1  0
 11 12  1  0
 12 30  1  0
 12 31  1  0
 12 32  1  0
 13 14  2  0
 13 18  1  0
 14 15  1  0
 14 33  1  0
 15 16  2  0
 15 34  1  0
 16 17  1  0
 16 19  1  0
 17 18  2  0
 17 35  1  0
 18 36  1  0
 19 20  1  0
 19 37  1  0
 20 21  2  0
 20 22  1  0
 22 38  1  0
 22 39  1  0
 22 40  1  0
M  END

