40
rmsd64.gzmat
C          0.00000        0.00000        0.00000
C          1.39520        0.00000        0.00000
C          2.10080        0.00000        1.19980
C          1.40970       -0.00890        2.42690
C          0.00450       -0.00410        2.42090
C         -0.68690        0.00580        1.21850
N          2.14090       -0.05190        3.63210
C          1.65010        0.36570        4.87360
O          0.53200        0.80050        5.01280
C          2.63560        0.23590        6.00230
S          3.87140       -0.03420        1.12080
C          4.30900        1.72450        1.32480
C         -0.73800       -0.00880       -1.26550
C         -0.48490       -1.00130       -2.21680
C         -1.17730       -1.01560       -3.41990
C         -2.13780       -0.02130       -3.68630
C         -2.39280        0.97590       -2.73620
C         -1.69620        0.97260       -1.53300
N         -2.78950       -0.08110       -4.93970
C         -3.91190        0.66720       -5.30550
O         -4.43640        1.45680       -4.55720
C         -4.39850        0.40830       -6.70580
H          1.92520        0.00750       -0.95690
H         -0.55290       -0.00900        3.36110
H         -1.77900        0.00780        1.22280
H          3.10630       -0.37530        3.57380
H          3.07290       -0.76830        6.07220
H          2.13290        0.44010        6.96330
H          3.45550        0.96120        5.90920
H          5.40060        1.81290        1.27130
H          3.97470        2.12360        2.28640
H          3.87590        2.34360        0.53160
H          0.25630       -1.77330       -2.00840
H         -0.97630       -1.79650       -4.14730
H         -3.13100        1.75770       -2.92750
H         -1.89530        1.75070       -0.79400
H         -2.41820       -0.75370       -5.60240
H         -3.68410        0.77310       -7.45650
H         -5.34670        0.94670       -6.87830
H         -4.59150       -0.65370       -6.89900
