rmsd98.gzmat
 OpenBabel08211713373D

 55 57  0  0  0  0  0  0  0  0999 V2000
    0.0000    0.0000    0.0000 C   0  0  0  0  0  0  0  0  0  0  0  0
    1.4065    0.0000    0.0000 C   0  0  0  0  0  0  0  0  0  0  0  0
    1.8495    0.0000    1.3170 N   0  0  0  0  0  0  0  0  0  0  0  0
    0.7375   -0.0005    2.1582 C   0  0  0  0  0  0  0  0  0  0  0  0
   -0.4161    0.0011    1.3668 C   0  0  0  0  0  0  0  0  0  0  0  0
   -1.7556   -0.0658    1.7696 N   0  0  0  0  0  0  0  0  0  0  0  0
   -2.2673    0.4656    3.3492 S   0  0  0  0  0  0  0  0  0  0  0  0
   -1.1028    0.7098    4.1644 O   0  0  0  0  0  0  0  0  0  0  0  0
   -3.2647    1.4836    3.1173 O   0  0  0  0  0  0  0  0  0  0  0  0
   -3.0886   -0.9683    3.9537 C   0  0  0  0  0  0  0  0  0  0  0  0
   -2.3529   -2.0949    4.3153 C   0  0  0  0  0  0  0  0  0  0  0  0
   -3.0102   -3.2257    4.7993 C   0  0  0  0  0  0  0  0  0  0  0  0
   -4.3986   -3.2262    4.9220 C   0  0  0  0  0  0  0  0  0  0  0  0
   -5.1324   -2.0972    4.5604 C   0  0  0  0  0  0  0  0  0  0  0  0
   -4.4768   -0.9669    4.0745 C   0  0  0  0  0  0  0  0  0  0  0  0
    3.2539    0.0097    1.7861 C   0  0  0  0  0  0  0  0  0  0  0  0
    3.3030    0.0305    3.3264 C   0  0  0  0  0  0  0  0  0  0  0  0
    3.9607   -1.2624    1.2851 C   0  0  0  0  0  0  0  0  0  0  0  0
    3.9600    1.2693    1.2546 C   0  0  0  0  0  0  0  0  0  0  0  0
    2.3317    0.0062   -1.0829 N   0  0  0  0  0  0  0  0  0  0  0  0
    2.1778   -1.2027   -1.9259 C   0  0  0  0  0  0  0  0  0  0  0  0
    2.1898    1.2406   -1.8921 C   0  0  0  0  0  0  0  0  0  0  0  0
   -0.8806   -0.0126   -1.1496 C   0  0  0  0  0  0  0  0  0  0  0  0
   -1.3018   -1.2300   -1.6949 C   0  0  0  0  0  0  0  0  0  0  0  0
   -2.1458   -1.2412   -2.8016 C   0  0  0  0  0  0  0  0  0  0  0  0
   -2.5793   -0.0403   -3.3621 C   0  0  0  0  0  0  0  0  0  0  0  0
   -2.1732    1.1737   -2.8105 C   0  0  0  0  0  0  0  0  0  0  0  0
   -1.3274    1.1900   -1.7048 C   0  0  0  0  0  0  0  0  0  0  0  0
    0.8139    0.0257    3.2299 H   0  0  0  0  0  0  0  0  0  0  0  0
   -2.4098    0.1275    1.0039 H   0  0  0  0  0  0  0  0  0  0  0  0
   -1.2615   -2.1096    4.2267 H   0  0  0  0  0  0  0  0  0  0  0  0
   -2.4390   -4.1070    5.0806 H   0  0  0  0  0  0  0  0  0  0  0  0
   -4.9114   -4.1090    5.2999 H   0  0  0  0  0  0  0  0  0  0  0  0
   -6.2157   -2.0977    4.6567 H   0  0  0  0  0  0  0  0  0  0  0  0
   -5.0662   -0.0849    3.7949 H   0  0  0  0  0  0  0  0  0  0  0  0
    2.7946    0.9126    3.7380 H   0  0  0  0  0  0  0  0  0  0  0  0
    4.3405    0.0610    3.6760 H   0  0  0  0  0  0  0  0  0  0  0  0
    2.8361   -0.8599    3.7627 H   0  0  0  0  0  0  0  0  0  0  0  0
    4.0308   -1.2692    0.1876 H   0  0  0  0  0  0  0  0  0  0  0  0
    3.4202   -2.1657    1.5852 H   0  0  0  0  0  0  0  0  0  0  0  0
    4.9793   -1.3261    1.6783 H   0  0  0  0  0  0  0  0  0  0  0  0
    4.0463    1.2434    0.1591 H   0  0  0  0  0  0  0  0  0  0  0  0
    4.9724    1.3531    1.6597 H   0  0  0  0  0  0  0  0  0  0  0  0
    3.4089    2.1778    1.5204 H   0  0  0  0  0  0  0  0  0  0  0  0
    2.2193   -2.1021   -1.2904 H   0  0  0  0  0  0  0  0  0  0  0  0
    3.0234   -1.2418   -2.6316 H   0  0  0  0  0  0  0  0  0  0  0  0
    1.2358   -1.2323   -2.4977 H   0  0  0  0  0  0  0  0  0  0  0  0
    1.2357    1.3087   -2.4396 H   0  0  0  0  0  0  0  0  0  0  0  0
    3.0189    1.2791   -2.6168 H   0  0  0  0  0  0  0  0  0  0  0  0
    2.2686    2.1210   -1.2329 H   0  0  0  0  0  0  0  0  0  0  0  0
   -0.9708   -2.1625   -1.2412 H   0  0  0  0  0  0  0  0  0  0  0  0
   -2.4714   -2.1884   -3.2268 H   0  0  0  0  0  0  0  0  0  0  0  0
   -3.2379   -0.0511   -4.2273 H   0  0  0  0  0  0  0  0  0  0  0  0
   -2.5185    2.1109   -3.2430 H   0  0  0  0  0  0  0  0  0  0  0  0
   -1.0119    2.1344   -1.2648 H   0  0  0  0  0  0  0  0  0  0  0  0
  1  2  2  0  0  0  0
  1  5  1  0  0  0  0
  2  3  1  0  0  0  0
  3 16  1  0  0  0  0
  3  4  1  0  0  0  0
  4 29  1  0  0  0  0
  5  6  1  0  0  0  0
  5  4  2  0  0  0  0
  6  7  1  0  0  0  0
  7 10  1  0  0  0  0
  7  8  2  0  0  0  0
  9  7  2  0  0  0  0
 10 15  2  0  0  0  0
 10 11  1  0  0  0  0
 11 12  2  0  0  0  0
 12 13  1  0  0  0  0
 12 32  1  0  0  0  0
 13 33  1  0  0  0  0
 14 34  1  0  0  0  0
 14 13  2  0  0  0  0
 15 14  1  0  0  0  0
 16 17  1  0  0  0  0
 17 37  1  0  0  0  0
 17 36  1  0  0  0  0
 17 38  1  0  0  0  0
 18 40  1  0  0  0  0
 18 41  1  0  0  0  0
 18 16  1  0  0  0  0
 19 44  1  0  0  0  0
 19 43  1  0  0  0  0
 19 16  1  0  0  0  0
 20  2  1  0  0  0  0
 21 45  1  0  0  0  0
 21 20  1  0  0  0  0
 22 50  1  0  0  0  0
 22 20  1  0  0  0  0
 23  1  1  0  0  0  0
 24 51  1  0  0  0  0
 24 23  1  0  0  0  0
 25 24  2  0  0  0  0
 26 27  2  0  0  0  0
 26 25  1  0  0  0  0
 27 28  1  0  0  0  0
 28 55  1  0  0  0  0
 28 23  2  0  0  0  0
 30  6  1  0  0  0  0
 31 11  1  0  0  0  0
 35 15  1  0  0  0  0
 39 18  1  0  0  0  0
 42 19  1  0  0  0  0
 46 21  1  0  0  0  0
 47 21  1  0  0  0  0
 48 22  1  0  0  0  0
 49 22  1  0  0  0  0
 52 25  1  0  0  0  0
 53 26  1  0  0  0  0
 54 27  1  0  0  0  0
M  END
$$$$
