rmsd9.gzmat
 OpenBabel08211713373D

 55 57  0  0  0  0  0  0  0  0999 V2000
    0.0000    0.0000    0.0000 C   0  0  0  0  0  0  0  0  0  0  0  0
    1.4059    0.0000    0.0000 C   0  0  0  0  0  0  0  0  0  0  0  0
    1.8488    0.0000    1.3176 N   0  0  0  0  0  0  0  0  0  0  0  0
    0.7372   -0.0023    2.1583 C   0  0  0  0  0  0  0  0  0  0  0  0
   -0.4162   -0.0010    1.3665 C   0  0  0  0  0  0  0  0  0  0  0  0
   -1.7534   -0.0714    1.7819 N   0  0  0  0  0  0  0  0  0  0  0  0
   -2.2621    0.6908    3.2686 S   0  0  0  0  0  0  0  0  0  0  0  0
   -1.0977    0.9502    4.0806 O   0  0  0  0  0  0  0  0  0  0  0  0
   -3.1782    1.7389    2.8861 O   0  0  0  0  0  0  0  0  0  0  0  0
   -3.2001   -0.5946    4.0202 C   0  0  0  0  0  0  0  0  0  0  0  0
   -2.5538   -1.6268    4.6967 C   0  0  0  0  0  0  0  0  0  0  0  0
   -3.3034   -2.6384    5.2964 C   0  0  0  0  0  0  0  0  0  0  0  0
   -4.6948   -2.6148    5.2180 C   0  0  0  0  0  0  0  0  0  0  0  0
   -5.3394   -1.5799    4.5418 C   0  0  0  0  0  0  0  0  0  0  0  0
   -4.5915   -0.5679    3.9417 C   0  0  0  0  0  0  0  0  0  0  0  0
    3.2535    0.0446    1.7835 C   0  0  0  0  0  0  0  0  0  0  0  0
    3.3060    0.0290    3.3240 C   0  0  0  0  0  0  0  0  0  0  0  0
    4.0056   -1.1878    1.2518 C   0  0  0  0  0  0  0  0  0  0  0  0
    3.9086    1.3428    1.2790 C   0  0  0  0  0  0  0  0  0  0  0  0
    2.3315    0.0064   -1.0826 N   0  0  0  0  0  0  0  0  0  0  0  0
    2.2057   -1.2252   -1.8976 C   0  0  0  0  0  0  0  0  0  0  0  0
    2.1593    1.2184   -1.9188 C   0  0  0  0  0  0  0  0  0  0  0  0
   -0.8814    0.0008   -1.1491 C   0  0  0  0  0  0  0  0  0  0  0  0
   -1.3026   -1.2077   -1.7122 C   0  0  0  0  0  0  0  0  0  0  0  0
   -2.1539   -1.2024   -2.8137 C   0  0  0  0  0  0  0  0  0  0  0  0
   -2.5935    0.0066   -3.3513 C   0  0  0  0  0  0  0  0  0  0  0  0
   -2.1812    1.2122   -2.7863 C   0  0  0  0  0  0  0  0  0  0  0  0
   -1.3290    1.2122   -1.6856 C   0  0  0  0  0  0  0  0  0  0  0  0
    0.8100    0.0236    3.2300 H   0  0  0  0  0  0  0  0  0  0  0  0
   -2.4104    0.0179    0.9987 H   0  0  0  0  0  0  0  0  0  0  0  0
   -1.4616   -1.6569    4.7700 H   0  0  0  0  0  0  0  0  0  0  0  0
   -2.8028   -3.4456    5.8257 H   0  0  0  0  0  0  0  0  0  0  0  0
   -5.2792   -3.4054    5.6857 H   0  0  0  0  0  0  0  0  0  0  0  0
   -6.4252   -1.5616    4.4828 H   0  0  0  0  0  0  0  0  0  0  0  0
   -5.1117    0.2442    3.4191 H   0  0  0  0  0  0  0  0  0  0  0  0
    2.7842    0.8925    3.7577 H   0  0  0  0  0  0  0  0  0  0  0  0
    4.3438    0.0687    3.6718 H   0  0  0  0  0  0  0  0  0  0  0  0
    2.8556   -0.8798    3.7389 H   0  0  0  0  0  0  0  0  0  0  0  0
    4.0906   -1.1578    0.1557 H   0  0  0  0  0  0  0  0  0  0  0  0
    3.4902   -2.1170    1.5156 H   0  0  0  0  0  0  0  0  0  0  0  0
    5.0211   -1.2323    1.6554 H   0  0  0  0  0  0  0  0  0  0  0  0
    3.9776    1.3523    0.1815 H   0  0  0  0  0  0  0  0  0  0  0  0
    4.9236    1.4496    1.6717 H   0  0  0  0  0  0  0  0  0  0  0  0
    3.3304    2.2236    1.5804 H   0  0  0  0  0  0  0  0  0  0  0  0
    2.3177   -2.1066   -1.2452 H   0  0  0  0  0  0  0  0  0  0  0  0
    3.0232   -1.2392   -2.6365 H   0  0  0  0  0  0  0  0  0  0  0  0
    1.2446   -1.3124   -2.4297 H   0  0  0  0  0  0  0  0  0  0  0  0
    1.2057    1.2489   -2.4704 H   0  0  0  0  0  0  0  0  0  0  0  0
    2.9898    1.2637   -2.6415 H   0  0  0  0  0  0  0  0  0  0  0  0
    2.2109    2.1146   -1.2786 H   0  0  0  0  0  0  0  0  0  0  0  0
   -0.9654   -2.1471   -1.2786 H   0  0  0  0  0  0  0  0  0  0  0  0
   -2.4781   -2.1436   -3.2532 H   0  0  0  0  0  0  0  0  0  0  0  0
   -3.2606    0.0090   -4.2103 H   0  0  0  0  0  0  0  0  0  0  0  0
   -2.5281    2.1558   -3.2035 H   0  0  0  0  0  0  0  0  0  0  0  0
   -1.0099    2.1497   -1.2332 H   0  0  0  0  0  0  0  0  0  0  0  0
  1  2  2  0  0  0  0
  1  5  1  0  0  0  0
  2  3  1  0  0  0  0
  3 16  1  0  0  0  0
  3  4  1  0  0  0  0
  4 29  1  0  0  0  0
  5  6  1  0  0  0  0
  5  4  2  0  0  0  0
  6  7  1  0  0  0  0
  7 10  1  0  0  0  0
  7  8  2  0  0  0  0
  9  7  2  0  0  0  0
 10 11  1  0  0  0  0
 11 31  1  0  0  0  0
 11 12  2  0  0  0  0
 12 32  1  0  0  0  0
 13 12  1  0  0  0  0
 13 33  1  0  0  0  0
 14 13  2  0  0  0  0
 15 10  2  0  0  0  0
 15 14  1  0  0  0  0
 16 17  1  0  0  0  0
 17 37  1  0  0  0  0
 17 38  1  0  0  0  0
 17 36  1  0  0  0  0
 18 40  1  0  0  0  0
 18 41  1  0  0  0  0
 18 16  1  0  0  0  0
 19 44  1  0  0  0  0
 19 43  1  0  0  0  0
 19 16  1  0  0  0  0
 20  2  1  0  0  0  0
 21 45  1  0  0  0  0
 21 20  1  0  0  0  0
 22 50  1  0  0  0  0
 22 20  1  0  0  0  0
 23  1  1  0  0  0  0
 24 51  1  0  0  0  0
 24 23  2  0  0  0  0
 25 24  1  0  0  0  0
 26 25  2  0  0  0  0
 26 27  1  0  0  0  0
 27 28  2  0  0  0  0
 28 55  1  0  0  0  0
 28 23  1  0  0  0  0
 30  6  1  0  0  0  0
 34 14  1  0  0  0  0
 35 15  1  0  0  0  0
 39 18  1  0  0  0  0
 42 19  1  0  0  0  0
 46 21  1  0  0  0  0
 47 21  1  0  0  0  0
 48 22  1  0  0  0  0
 49 22  1  0  0  0  0
 52 25  1  0  0  0  0
 53 26  1  0  0  0  0
 54 27  1  0  0  0  0
M  END
$$$$
