
     RDKit          3D

 55 57  0  0  0  0  0  0  0  0999 V2000
   -0.0962   -0.3305    0.5858 C   0  0  0  0  0  0  0  0  0  0  0  0
    1.2340    0.0914    0.5867 C   0  0  0  0  0  0  0  0  0  0  0  0
    1.8547   -0.4318    1.7269 N   0  0  0  0  0  0  0  0  0  0  0  0
    0.9339   -1.1736    2.4298 C   0  0  0  0  0  0  0  0  0  0  0  0
   -0.2695   -1.1419    1.7545 C   0  0  0  0  0  0  0  0  0  0  0  0
   -1.4811   -1.6777    2.2437 N   0  0  0  0  0  0  0  0  0  0  0  0
   -2.2695   -0.8340    3.4902 S   0  0  0  0  0  0  0  0  0  0  0  0
   -3.5826   -1.4688    3.6055 O   0  0  0  0  0  0  0  0  0  0  0  0
   -1.3294   -0.7540    4.6067 O   0  0  0  0  0  0  0  0  0  0  0  0
   -2.4930    0.8278    2.8567 C   0  0  0  0  0  0  0  0  0  0  0  0
   -3.6806    1.1470    2.1951 C   0  0  0  0  0  0  0  0  0  0  0  0
   -3.8314    2.4269    1.6597 C   0  0  0  0  0  0  0  0  0  0  0  0
   -2.8024    3.3652    1.7856 C   0  0  0  0  0  0  0  0  0  0  0  0
   -1.6175    3.0295    2.4487 C   0  0  0  0  0  0  0  0  0  0  0  0
   -1.4557    1.7539    2.9928 C   0  0  0  0  0  0  0  0  0  0  0  0
    3.2999   -0.3323    2.0791 C   0  0  0  0  0  0  0  0  0  0  0  0
    3.5537   -1.0475    3.4133 C   0  0  0  0  0  0  0  0  0  0  0  0
    4.1368   -1.0114    0.9829 C   0  0  0  0  0  0  0  0  0  0  0  0
    3.7025    1.1421    2.2369 C   0  0  0  0  0  0  0  0  0  0  0  0
    1.9519    0.8138   -0.3824 N   0  0  0  0  0  0  0  0  0  0  0  0
    1.9954    0.2248   -1.7124 C   0  0  0  0  0  0  0  0  0  0  0  0
    1.8214    2.2633   -0.3981 C   0  0  0  0  0  0  0  0  0  0  0  0
   -1.1642   -0.0278   -0.3818 C   0  0  0  0  0  0  0  0  0  0  0  0
   -1.9319   -1.0719   -0.9340 C   0  0  0  0  0  0  0  0  0  0  0  0
   -2.9939   -0.8052   -1.8002 C   0  0  0  0  0  0  0  0  0  0  0  0
   -3.3058    0.5136   -2.1428 C   0  0  0  0  0  0  0  0  0  0  0  0
   -2.5497    1.5593   -1.6062 C   0  0  0  0  0  0  0  0  0  0  0  0
   -1.4971    1.2917   -0.7304 C   0  0  0  0  0  0  0  0  0  0  0  0
    1.1403   -1.6300    3.3887 H   0  0  0  0  0  0  0  0  0  0  0  0
   -2.1672   -1.9261    1.5333 H   0  0  0  0  0  0  0  0  0  0  0  0
   -4.4696    0.3978    2.1159 H   0  0  0  0  0  0  0  0  0  0  0  0
   -4.7549    2.6917    1.1406 H   0  0  0  0  0  0  0  0  0  0  0  0
   -2.9245    4.3655    1.3634 H   0  0  0  0  0  0  0  0  0  0  0  0
   -0.8171    3.7664    2.5481 H   0  0  0  0  0  0  0  0  0  0  0  0
   -0.5487    1.4711    3.5276 H   0  0  0  0  0  0  0  0  0  0  0  0
    2.9734   -0.6014    4.2342 H   0  0  0  0  0  0  0  0  0  0  0  0
    4.6197   -0.9517    3.6635 H   0  0  0  0  0  0  0  0  0  0  0  0
    3.3187   -2.1198    3.3569 H   0  0  0  0  0  0  0  0  0  0  0  0
    4.0241   -0.4855    0.0277 H   0  0  0  0  0  0  0  0  0  0  0  0
    3.8210   -2.0579    0.8536 H   0  0  0  0  0  0  0  0  0  0  0  0
    5.2012   -1.0036    1.2640 H   0  0  0  0  0  0  0  0  0  0  0  0
    3.6599    1.6724    1.2801 H   0  0  0  0  0  0  0  0  0  0  0  0
    4.7335    1.2065    2.6168 H   0  0  0  0  0  0  0  0  0  0  0  0
    3.0398    1.6477    2.9560 H   0  0  0  0  0  0  0  0  0  0  0  0
    2.2021   -0.8520   -1.6376 H   0  0  0  0  0  0  0  0  0  0  0  0
    2.8080    0.6903   -2.2959 H   0  0  0  0  0  0  0  0  0  0  0  0
    1.0511    0.3576   -2.2778 H   0  0  0  0  0  0  0  0  0  0  0  0
    0.9964    2.6139   -1.0489 H   0  0  0  0  0  0  0  0  0  0  0  0
    2.7534    2.7283   -0.7669 H   0  0  0  0  0  0  0  0  0  0  0  0
    1.6331    2.6342    0.6179 H   0  0  0  0  0  0  0  0  0  0  0  0
   -1.6715   -2.1072   -0.6976 H   0  0  0  0  0  0  0  0  0  0  0  0
   -3.5746   -1.6318   -2.2169 H   0  0  0  0  0  0  0  0  0  0  0  0
   -4.1352    0.7244   -2.8220 H   0  0  0  0  0  0  0  0  0  0  0  0
   -2.7947    2.5949   -1.8544 H   0  0  0  0  0  0  0  0  0  0  0  0
   -0.9508    2.1141   -0.2725 H   0  0  0  0  0  0  0  0  0  0  0  0
  1  2  2  0
  1  5  1  0
  1 23  1  0
  2  3  1  0
  2 20  1  0
  3  4  1  0
  3 16  1  0
  4  5  2  0
  4 29  1  0
  5  6  1  0
  7  6  1  0
  6 30  1  0
  7  8  2  0
  7  9  2  0
  7 10  1  0
 10 11  2  0
 10 15  1  0
 11 12  1  0
 11 31  1  0
 12 13  2  0
 12 32  1  0
 13 14  1  0
 13 33  1  0
 14 15  2  0
 14 34  1  0
 15 35  1  0
 16 17  1  0
 16 18  1  0
 16 19  1  0
 17 36  1  0
 17 37  1  0
 17 38  1  0
 18 39  1  0
 18 40  1  0
 18 41  1  0
 19 42  1  0
 19 43  1  0
 19 44  1  0
 20 21  1  0
 20 22  1  0
 21 45  1  0
 21 46  1  0
 21 47  1  0
 22 48  1  0
 22 49  1  0
 22 50  1  0
 23 24  2  0
 23 28  1  0
 24 25  1  0
 24 51  1  0
 25 26  2  0
 25 52  1  0
 26 27  1  0
 26 53  1  0
 27 28  2  0
 27 54  1  0
 28 55  1  0
M  END

