55
rmsd96.gzmat
C          0.00000        0.00000        0.00000
C          1.40640        0.00000        0.00000
N          1.84950        0.00000        1.31660
C          0.73740       -0.00070        2.15830
C         -0.41650       -0.00250        1.36680
N         -1.75650       -0.07560        1.76550
S         -2.27730        0.39740        3.36000
O         -1.11800        0.62880        4.18640
O         -3.28570        1.41050        3.15510
C         -3.08420       -1.06470        3.91500
C         -2.33280       -2.16590        4.32030
C         -2.97840       -3.32470        4.75080
C         -4.37090       -3.37850        4.77780
C         -5.12070       -2.27250        4.37990
C         -4.47670       -1.11380        3.94790
C          3.25530        0.00740        1.78130
C          3.31060        0.04100        3.32090
C          3.95340       -1.27210        1.28720
C          3.96390        1.25950        1.23430
N          2.33250       -0.00280       -1.08200
C          2.16240       -1.20680       -1.92910
C          2.21390        1.23650       -1.88660
C         -0.87460       -0.01630       -1.15420
C         -1.32070       -1.23670       -1.67220
C         -2.15380       -1.25610       -2.78710
C         -2.54930       -0.06000       -3.38460
C         -2.11670        1.15760       -2.86190
C         -1.28380        1.18220       -1.74650
H          0.81430        0.02650        3.22980
H         -2.40910        0.13950        1.00450
H         -1.23820       -2.13830        4.30860
H         -2.39540       -4.18730        5.06410
H         -4.87410       -4.28430        5.11110
H         -6.20710       -2.31380        4.40460
H         -5.07930       -0.24960        3.64260
H          2.81970        0.93610        3.72510
H          4.34980        0.05410        3.66690
H          2.82870       -0.83610        3.76780
H          4.00360       -1.29550        0.18880
H          3.41800       -2.17060        1.61010
H          4.97890       -1.32970        1.66230
H          4.09360        1.19650        0.14450
H          4.95730        1.37520        1.67650
H          3.38800        2.16750        1.44360
H          2.18980       -2.10820       -1.29530
H          3.00850       -1.25690       -2.63340
H          1.22130       -1.22120       -2.50310
H          1.27480        1.31020       -2.45810
H          3.06260        1.27550       -2.58850
H          2.27850        2.11370       -1.22170
H         -1.01530       -2.16490       -1.19240
H         -2.49810       -2.20660       -3.18960
H         -3.19880       -0.07720       -4.25670
H         -2.43300        2.09100       -3.32390
H         -0.95060        2.12920       -1.32550
