55
rmsd105.gzmat
C          0.00000        0.00000        0.00000
C          1.40650        0.00000        0.00000
N          1.84980        0.00000        1.31660
C          0.73800       -0.00760        2.15840
C         -0.41590       -0.00880        1.36740
N         -1.75560       -0.08460        1.76690
S         -2.27120        0.37100        3.36810
O         -1.10970        0.62080        4.18600
O         -3.29970        1.36560        3.17260
C         -3.04840       -1.10390        3.93220
C         -2.27890       -2.16270        4.41010
C         -2.90350       -3.32640        4.85850
C         -4.29350       -3.42760        4.82830
C         -5.06120       -2.36620        4.35120
C         -4.43830       -1.20250        3.90330
C          3.25480        0.01880        1.78370
C          3.30410        0.07080        3.32330
C          3.96100       -1.26310        1.30640
C          3.96030        1.26670        1.22400
N          2.33350       -0.00760       -1.08120
C          2.18820       -1.23660       -1.89650
C          2.18850        1.20920       -1.91500
C         -0.88170       -0.00380       -1.14910
C         -1.35480       -1.21580       -1.66220
C         -2.20290       -1.22020       -2.76600
C         -2.59030       -0.01690       -3.35440
C         -2.12940        1.19270       -2.83720
C         -1.27820        1.20200       -1.73550
H          0.81490        0.01400        3.23000
H         -2.40930        0.13890        1.00890
H         -1.18650       -2.09700        4.44180
H         -2.30560       -4.15500        5.22930
H         -4.78100       -4.33600        5.17740
H         -6.14560       -2.44560        4.32800
H         -5.05510       -0.37250        3.53720
H          2.80150        0.96530        3.71520
H          4.34110        0.09930        3.67410
H          2.83000       -0.80700        3.77780
H          4.03830       -1.28490        0.20970
H          3.41540       -2.16050        1.61500
H          4.97650       -1.32470        1.70790
H          4.07380        1.20150        0.13180
H          4.96110        1.37750        1.65040
H          3.39200        2.17800        1.44020
H          2.27570       -2.11930       -1.24180
H          3.01180       -1.26860       -2.62800
H          1.22950       -1.30480       -2.43600
H          1.24820        1.24970       -2.48820
H          3.03560        1.25050       -2.61850
H          2.23480        2.10230       -1.26970
H         -1.05940       -2.14940       -1.18680
H         -2.56610       -2.16380       -3.16810
H         -3.25530       -0.02210       -4.21470
H         -2.43770        2.13180       -3.29310
H         -0.92100        2.14330       -1.32170
