55
rmsd97.gzmat
C          0.00000        0.00000        0.00000
C          1.40610        0.00000        0.00000
N          1.84870        0.00000        1.31670
C          0.73650       -0.00440        2.15820
C         -0.41690       -0.00560        1.36660
N         -1.75860       -0.07510        1.75960
S         -2.28020        0.33880        3.36920
O         -1.12250        0.51660        4.21130
O         -3.27080        1.37570        3.20070
C         -3.11320       -1.13200        3.85670
C         -2.38310       -2.23480        4.29500
C         -3.04900       -3.39920        4.67650
C         -4.44070       -3.45670        4.62200
C         -5.16950       -2.35080        4.18640
C         -4.50480       -1.18620        3.80350
C          3.25380        0.02440        1.78240
C          3.30700        0.06220        3.32220
C          3.96880       -1.24830        1.29390
C          3.94880        1.28340        1.23310
N          2.33170       -0.00170       -1.08260
C          2.18220       -1.22360       -1.90800
C          2.18430        1.22090       -1.90760
C         -0.88370       -0.00100       -1.14710
C         -1.31600       -1.21180       -1.69760
C         -2.17560       -1.21030       -2.79230
C         -2.60890       -0.00310       -3.33860
C         -2.18540        1.20460       -2.78670
C         -1.32730        1.20870       -1.69040
H          0.81330        0.01570        3.23000
H         -2.40660        0.17160        1.00460
H         -1.28980       -2.20340        4.34820
H         -2.48270       -4.26290        5.01660
H         -4.95880       -4.36620        4.92140
H         -6.25550       -2.39560        4.14400
H         -5.09050       -0.32130        3.46840
H          2.79630        0.94600        3.72680
H          4.34560        0.09980        3.66830
H          2.84560       -0.82560        3.77010
H          4.01480       -1.27970        0.19570
H          3.44890       -2.15200        1.62750
H          4.99770       -1.28650        1.66290
H          4.07190        1.22380        0.14220
H          4.94440        1.40600        1.66820
H          3.36770        2.18630        1.44890
H          2.24670       -2.11290       -1.25960
H          3.01650       -1.26210       -2.62660
H          1.23150       -1.27400       -2.46290
H          1.22390        1.28430       -2.44460
H          3.00490        1.24800       -2.64230
H          2.27410        2.10930       -1.26060
H         -0.98310       -2.14920       -1.25630
H         -2.51130       -2.15340       -3.21910
H         -3.28100       -0.00420       -4.19320
H         -2.52820        2.14690       -3.20970
H         -1.00130        2.14820       -1.24740
