55

C         -0.15650        0.35060        0.54990
C          1.15690       -0.12140        0.54700
N          1.79240        0.35560        1.69920
C          0.89760        1.11810        2.41330
C         -0.30330        1.14570        1.73360
N         -1.49470        1.71940        2.22920
S         -2.32410        0.88190        3.45310
O         -1.39240        0.73400        4.56980
O         -3.60830        1.57110        3.57980
C         -2.61850       -0.75270        2.77920
C         -1.62490       -1.72780        2.89830
C         -1.84110       -2.98150        2.32310
C         -3.03570       -3.24730        1.64610
C         -4.02040       -2.26050        1.53740
C         -3.81520       -1.00190        2.10410
C          3.23220        0.19780        2.05270
C          3.50660        0.87470        3.40270
C          3.58330       -1.29270        2.17950
C          4.09550        0.87080        0.97330
N          1.85110       -0.85080       -0.43400
C          1.67190       -2.29450       -0.47620
C          1.91960       -0.23960       -1.75280
C         -1.23100        0.10710       -0.42690
C         -1.60660       -1.19180       -0.80800
C         -2.66450       -1.40310       -1.69270
C         -3.38370       -0.32030       -2.20590
C         -3.02910        0.97870       -1.83100
C         -1.96170        1.18900       -0.95610
H          1.11730        1.54780        3.38160
H         -2.16630        2.01200        1.52190
H         -0.70930       -1.49910        3.44420
H         -1.07540       -3.75620        2.40880
H         -3.20040       -4.23070        1.19930
H         -4.95170       -2.47070        1.00730
H         -4.56910       -0.21610        2.03910
H          3.31040        1.95570        3.36890
H          4.56750        0.73540        3.65390
H          2.90750        0.43210        4.21200
H          3.52780       -1.80000        1.21100
H          2.90010       -1.79110        2.88420
H          4.60950       -1.40050        2.56250
H          3.96680        0.37030        0.00650
H          5.15830        0.81890        1.25600
H          3.81750        1.93040        0.86650
H          1.46820       -2.67720        0.53250
H          2.58870       -2.78400       -0.85110
H          0.83750       -2.60540       -1.13530
H          0.97360       -0.33010       -2.32380
H          2.71830       -0.72160       -2.34210
H          2.16210        0.82810       -1.65760
H         -1.08950       -2.04270       -0.36860
H         -2.94290       -2.42380       -1.96640
H         -4.21740       -0.48710       -2.89200
H         -3.58040        1.83410       -2.22930
H         -1.66730        2.20920       -0.69520
