55

C         -0.38340       -0.39700       -0.36220
C          0.97370       -0.42700       -0.03590
N          1.10630       -0.99020        1.23860
C         -0.14340       -1.33930        1.69320
C         -1.08080       -0.96980        0.74750
N         -2.47600       -1.13660        0.90240
S         -3.31910        0.00430        1.84600
O         -2.82510        1.37230        1.63430
O         -4.73250       -0.32030        1.64930
C         -2.79720       -0.48340        3.48650
C         -1.87690        0.31050        4.17040
C         -1.43580       -0.10550        5.42930
C         -1.91820       -1.29580        5.98240
C         -2.85100       -2.07370        5.28570
C         -3.29930       -1.66850        4.02800
C          2.33930       -1.02240        2.07520
C          2.03320       -1.70780        3.41480
C          3.44680       -1.81640        1.36660
C          2.79350        0.42090        2.34880
N          2.07660        0.10130       -0.72850
C          2.68720       -0.71340       -1.76890
C          1.99300        1.51210       -1.08010
C         -1.00520        0.10490       -1.60450
C         -0.63610       -0.40390       -2.86270
C         -1.22470        0.07910       -4.03300
C         -2.20870        1.06960       -3.96640
C         -2.60010        1.56850       -2.72080
C         -2.00530        1.09470       -1.54910
H         -0.31010       -1.82120        2.64700
H         -3.01040       -1.28270        0.04500
H         -1.51740        1.22910        3.70560
H         -0.71360        0.50200        5.97950
H         -1.56920       -1.61900        6.96600
H         -3.23140       -2.99790        5.72640
H         -4.02530       -2.25610        3.46380
H          1.27600       -1.16190        3.99580
H          2.95620       -1.73760        4.01100
H          1.69030       -2.74370        3.27410
H          3.79440       -1.29770        0.46750
H          3.08500       -2.81710        1.08480
H          4.30570       -1.93920        2.04400
H          3.07080        0.92230        1.41410
H          3.66650        0.42190        3.01990
H          1.98420        0.99060        2.83080
H          2.62150       -1.77650       -1.50230
H          3.75490       -0.45260       -1.87930
H          2.20750       -0.57680       -2.75820
H          1.34640        1.70470       -1.95880
H          3.00240        1.89360       -1.31100
H          1.59430        2.08470       -0.23120
H          0.10720       -1.20060       -2.91650
H         -0.92180       -0.32850       -5.00090
H         -2.67300        1.44580       -4.88130
H         -3.37180        2.33970       -2.65770
H         -2.30460        1.49620       -0.57950
