55
rmsd133.gzmat
C          0.00000        0.00000        0.00000
C          1.40740        0.00000        0.00000
N          1.85110        0.00000        1.31550
C          0.73950       -0.00900        2.15740
C         -0.41540       -0.00270        1.36610
N         -1.75040        0.07180        1.77570
S         -2.24590       -0.37370        3.38470
O         -3.47820       -1.10460        3.20140
O         -1.12020       -0.93190        4.09210
C         -2.62480        1.18400        4.10920
C         -3.95150        1.59550        4.21880
C         -4.24980        2.82310        4.80900
C         -3.22210        3.63600        5.28440
C         -1.89510        3.22440        5.16890
C         -1.59530        1.99610        4.58140
C          3.25570       -0.02020        1.78250
C          3.30700        0.01060        3.32290
C          3.93270       -1.31030        1.28740
C          3.98840        1.22070        1.24190
N          2.33370       -0.00080       -1.08190
C          2.19160       -1.22680       -1.90260
C          2.18360        1.21770       -1.91210
C         -0.87480        0.00650       -1.15450
C         -1.28560       -1.19980       -1.73040
C         -2.11750       -1.19010       -2.84680
C         -2.54800        0.02070       -3.38700
C         -2.15160        1.22420       -2.80550
C         -1.31980        1.21950       -1.68940
H          0.81810       -0.06330        3.22620
H         -2.41900       -0.12660        1.02540
H         -4.77030        0.96420        3.85240
H         -5.28460        3.14570        4.89900
H         -3.45530        4.59350        5.74680
H         -1.09400        3.86120        5.53600
H         -0.54870        1.68530        4.50020
H          2.83250        0.91190        3.72760
H          4.34520        0.00150        3.67140
H          2.80870       -0.86250        3.76490
H          4.02970       -1.31030        0.19230
H          3.35350       -2.19750        1.56620
H          4.93790       -1.41350        1.70550
H          4.08530        1.17790        0.14720
H          4.99830        1.29190        1.65560
H          3.45060        2.14230        1.48650
H          2.24040       -2.11360       -1.24930
H          3.03790       -1.27220       -2.60740
H          1.25090       -1.27610       -2.47480
H          1.22350        1.27650       -2.45040
H          3.00470        1.24260       -2.64670
H          2.26950        2.10910       -1.26900
H         -0.95300       -2.14140       -1.29680
H         -2.43420       -2.12960       -3.29590
H         -3.19730        0.02720       -4.25940
H         -2.49500        2.16890       -3.22270
H         -1.01560        2.15430       -1.22220
