40
rmsd156.gzmat
C          0.00000        0.00000        0.00000
C          1.53090        0.00000        0.00000
C          2.05500        0.00000        1.40630
C          2.39090       -1.12000        2.06520
C          2.24910       -2.45050        1.45700
C          3.33210       -3.02850        0.78420
C          3.20650       -4.28120        0.19930
C          1.97760       -4.94210        0.30500
O          1.92460       -6.16120       -0.29550
C          0.88580       -4.39080        0.97600
C          1.03500       -3.13270        1.55450
C          2.93380       -1.12060        3.46400
C          1.82910       -1.46130        4.46710
C          2.17550        1.33060        2.01790
C          3.33290        2.08910        1.80670
C          3.46400        3.34390        2.38540
C          2.41200        3.82290        3.17420
O          2.61220        5.05330        3.71790
C          1.24320        3.09210        3.38910
C          1.13520        1.83440        2.80030
H         -0.39530       -0.08140       -1.01800
H         -0.39710        0.92000        0.44320
H         -0.39430       -0.84490        0.57660
H          1.91020        0.88440       -0.55140
H          1.90630       -0.88220       -0.55920
H          4.27590       -2.48720        0.72000
H          4.03040       -4.75160       -0.33080
H          1.04270       -6.58990       -0.18990
H         -0.05590       -4.92230        1.04690
H          0.20050       -2.67460        2.08530
H          3.37890       -0.13530        3.71620
H          3.76300       -1.85240        3.55080
H          1.00470       -0.74200        4.40570
H          2.20920       -1.44470        5.49400
H          1.41730       -2.45980        4.27940
H          4.13380        1.68700        1.18640
H          4.35340        3.95100        2.24060
H          1.84720        5.34700        4.26660
H          0.43950        3.48740        3.99890
H          0.23650        1.23720        2.95220
