rmsd156.gzmat
 OpenBabel08211713373D

 40 41  0  0  0  0  0  0  0  0999 V2000
    0.0000    0.0000    0.0000 C   0  0  0  0  0  0  0  0  0  0  0  0
    1.5309    0.0000    0.0000 C   0  0  0  0  0  0  0  0  0  0  0  0
    2.0550    0.0000    1.4063 C   0  0  0  0  0  0  0  0  0  0  0  0
    2.3909   -1.1200    2.0652 C   0  0  0  0  0  0  0  0  0  0  0  0
    2.2491   -2.4505    1.4570 C   0  0  0  0  0  0  0  0  0  0  0  0
    3.3321   -3.0285    0.7842 C   0  0  0  0  0  0  0  0  0  0  0  0
    3.2065   -4.2812    0.1993 C   0  0  0  0  0  0  0  0  0  0  0  0
    1.9776   -4.9421    0.3050 C   0  0  0  0  0  0  0  0  0  0  0  0
    1.9246   -6.1612   -0.2955 O   0  0  0  0  0  0  0  0  0  0  0  0
    0.8858   -4.3908    0.9760 C   0  0  0  0  0  0  0  0  0  0  0  0
    1.0350   -3.1327    1.5545 C   0  0  0  0  0  0  0  0  0  0  0  0
    2.9338   -1.1206    3.4640 C   0  0  0  0  0  0  0  0  0  0  0  0
    1.8291   -1.4613    4.4671 C   0  0  0  0  0  0  0  0  0  0  0  0
    2.1755    1.3306    2.0179 C   0  0  0  0  0  0  0  0  0  0  0  0
    3.3329    2.0891    1.8067 C   0  0  0  0  0  0  0  0  0  0  0  0
    3.4640    3.3439    2.3854 C   0  0  0  0  0  0  0  0  0  0  0  0
    2.4120    3.8229    3.1742 C   0  0  0  0  0  0  0  0  0  0  0  0
    2.6122    5.0533    3.7179 O   0  0  0  0  0  0  0  0  0  0  0  0
    1.2432    3.0921    3.3891 C   0  0  0  0  0  0  0  0  0  0  0  0
    1.1352    1.8344    2.8003 C   0  0  0  0  0  0  0  0  0  0  0  0
   -0.3953   -0.0814   -1.0180 H   0  0  0  0  0  0  0  0  0  0  0  0
   -0.3971    0.9200    0.4432 H   0  0  0  0  0  0  0  0  0  0  0  0
   -0.3943   -0.8449    0.5766 H   0  0  0  0  0  0  0  0  0  0  0  0
    1.9102    0.8844   -0.5514 H   0  0  0  0  0  0  0  0  0  0  0  0
    1.9063   -0.8822   -0.5592 H   0  0  0  0  0  0  0  0  0  0  0  0
    4.2759   -2.4872    0.7200 H   0  0  0  0  0  0  0  0  0  0  0  0
    4.0304   -4.7516   -0.3308 H   0  0  0  0  0  0  0  0  0  0  0  0
    1.0427   -6.5899   -0.1899 H   0  0  0  0  0  0  0  0  0  0  0  0
   -0.0559   -4.9223    1.0469 H   0  0  0  0  0  0  0  0  0  0  0  0
    0.2005   -2.6746    2.0853 H   0  0  0  0  0  0  0  0  0  0  0  0
    3.3789   -0.1353    3.7162 H   0  0  0  0  0  0  0  0  0  0  0  0
    3.7630   -1.8524    3.5508 H   0  0  0  0  0  0  0  0  0  0  0  0
    1.0047   -0.7420    4.4057 H   0  0  0  0  0  0  0  0  0  0  0  0
    2.2092   -1.4447    5.4940 H   0  0  0  0  0  0  0  0  0  0  0  0
    1.4173   -2.4598    4.2794 H   0  0  0  0  0  0  0  0  0  0  0  0
    4.1338    1.6870    1.1864 H   0  0  0  0  0  0  0  0  0  0  0  0
    4.3534    3.9510    2.2406 H   0  0  0  0  0  0  0  0  0  0  0  0
    1.8472    5.3470    4.2666 H   0  0  0  0  0  0  0  0  0  0  0  0
    0.4395    3.4874    3.9989 H   0  0  0  0  0  0  0  0  0  0  0  0
    0.2365    1.2372    2.9522 H   0  0  0  0  0  0  0  0  0  0  0  0
  1  2  1  0  0  0  0
  1 22  1  0  0  0  0
  1 23  1  0  0  0  0
  2  3  1  0  0  0  0
  3 14  1  0  0  0  0
  3  4  2  0  0  0  0
  4 12  1  0  0  0  0
  5 11  1  0  0  0  0
  5  4  1  0  0  0  0
  6  5  2  0  0  0  0
  7  8  2  0  0  0  0
  7  6  1  0  0  0  0
  8 10  1  0  0  0  0
  9 28  1  0  0  0  0
  9  8  1  0  0  0  0
 10 29  1  0  0  0  0
 10 11  2  0  0  0  0
 11 30  1  0  0  0  0
 12 32  1  0  0  0  0
 12 31  1  0  0  0  0
 12 13  1  0  0  0  0
 13 34  1  0  0  0  0
 14 20  1  0  0  0  0
 15 14  2  0  0  0  0
 15 16  1  0  0  0  0
 16 17  2  0  0  0  0
 17 19  1  0  0  0  0
 17 18  1  0  0  0  0
 18 38  1  0  0  0  0
 19 39  1  0  0  0  0
 20 40  1  0  0  0  0
 20 19  2  0  0  0  0
 21  1  1  0  0  0  0
 24  2  1  0  0  0  0
 25  2  1  0  0  0  0
 26  6  1  0  0  0  0
 27  7  1  0  0  0  0
 33 13  1  0  0  0  0
 35 13  1  0  0  0  0
 36 15  1  0  0  0  0
 37 16  1  0  0  0  0
M  END
$$$$
