40
rmsd138.gzmat
C          0.00000        0.00000        0.00000
C          1.53080        0.00000        0.00000
C          2.05800        0.00000        1.40420
C          2.51320       -1.10010        2.02340
C          2.54800       -2.41570        1.36990
C          3.73720       -2.85120        0.77180
C          3.80730       -4.10390        0.17900
C          2.66170       -4.90780        0.19280
O          2.80360       -6.12260       -0.40180
C          1.46260       -4.49370        0.77300
C          1.41670       -3.23300        1.36440
C          3.03890       -1.09060        3.42990
C          1.94300       -1.51730        4.41000
C          2.05300        1.31160        2.06760
C          3.12160        2.19380        1.86560
C          3.13680        3.43160        2.49300
C          2.06360        3.76530        3.32700
O          2.14940        4.98890        3.91400
C          0.98580        2.90600        3.54160
C          0.98960        1.67100        2.89770
H         -0.39350       -0.00680       -1.02240
H         -0.39680        0.88840        0.50530
H         -0.39760       -0.88100        0.51580
H          1.90810        0.88760       -0.54820
H          1.90580       -0.87930       -0.56360
H          4.60980       -2.19820        0.77450
H          4.71990       -4.46870       -0.28460
H          1.97420       -6.65510       -0.36420
H          0.58770       -5.13310        0.76850
H          0.49380       -2.88240        1.82540
H          3.41690       -0.08370        3.70520
H          3.91200       -1.76920        3.51780
H          1.10120       -0.81590        4.39030
H          2.32270       -1.55220        5.43660
H          1.55460       -2.51220        4.16260
H          3.94530        1.90280        1.21400
H          3.95180        4.13610        2.35170
H          1.37090        5.18330        4.48780
H          0.16710        3.18620        4.19340
H          0.16090        0.97830        3.04320
