40
rmsd161.gzmat
C          0.00000        0.00000        0.00000
C          1.53110        0.00000        0.00000
C          2.05620        0.00000        1.40590
C          2.57440       -1.08470        2.00210
C          2.67200       -2.38590        1.32610
C          3.90680       -2.81780        0.82660
C          4.01810       -4.05350        0.20400
C          2.87010       -4.84650        0.09390
O          3.05360       -6.04450       -0.52300
C          1.62820       -4.43820        0.58070
C          1.54100       -3.19460        1.20170
C          3.09200       -1.07950        3.41110
C          2.01570       -1.60380        4.36550
C          1.96410        1.29930        2.08720
C          2.96930        2.25400        1.89260
C          2.88790        3.49420        2.51060
C          1.78220        3.75640        3.32730
O          1.76880        4.98870        3.90240
C          0.76820        2.82190        3.53810
C          0.87170        1.58420        2.90760
H         -0.39490       -0.02890       -1.02090
H         -0.39700        0.89890        0.48620
H         -0.39610       -0.86910        0.53590
H          1.91010        0.88860       -0.54620
H          1.90700       -0.87780       -0.56530
H          4.78220       -2.17650        0.92870
H          4.96390       -4.41360       -0.19130
H          2.21730       -6.56360       -0.58620
H          0.75200       -5.06730        0.47960
H          0.58530       -2.84790        1.59370
H          3.40390       -0.05970        3.71690
H          4.00490       -1.70480        3.48860
H          1.12480       -0.96580        4.34460
H          2.38100       -1.63240        5.39730
H          1.70400       -2.61880        4.09140
H          3.81830        2.01740        1.25120
H          3.65270        4.25360        2.37330
H          0.97350        5.12600        4.46960
H         -0.07940        3.04850        4.17400
H          0.09690        0.83200        3.05490
