40
rmsd157.gzmat
C          0.00000        0.00000        0.00000
C          1.53080        0.00000        0.00000
C          2.05620        0.00000        1.40530
C          2.62300       -1.06770        1.98860
C          2.75960       -2.35910        1.30160
C          4.01290       -2.77140        0.83280
C          4.15320       -3.99120        0.18490
C          3.01520       -4.78890        0.02000
O          3.22230       -5.96590       -0.62890
C          1.75690       -4.40530        0.48540
C          1.64040       -3.17650        1.12970
C          3.15920       -1.04590        3.39050
C          2.16290       -1.70260        4.34970
C          1.90550        1.28180        2.10870
C          2.83750        2.30480        1.89710
C          2.70220        3.52140        2.55150
C          1.61390        3.69210        3.41490
O          1.54690        4.90660        4.02300
C          0.66810        2.69090        3.63730
C          0.82710        1.47700        2.97350
H         -0.39540        0.00020       -1.02090
H         -0.39600        0.88660        0.51040
H         -0.39640       -0.88270        0.51310
H          1.90850        0.89160       -0.54290
H          1.90810       -0.87510       -0.56830
H          4.88050       -2.12750        0.97650
H          5.11410       -4.33240       -0.19000
H          2.39580       -6.49910       -0.70370
H          0.89140       -5.04320        0.34980
H          0.67110       -2.84720        1.50300
H          3.37110       -0.00770        3.72040
H          4.13290       -1.57550        3.43530
H          1.20360       -1.17340        4.34770
H          2.54300       -1.70020        5.37670
H          1.96890       -2.74390        4.06650
H          3.67260        2.13950        1.21650
H          3.41290        4.33080        2.40870
H          0.76240        4.98390        4.61600
H         -0.16850        2.84760        4.30800
H          0.10810        0.67280        3.12870
