rmsd172.gzmat
 OpenBabel08211713373D

 40 41  0  0  0  0  0  0  0  0999 V2000
    0.0000    0.0000    0.0000 C   0  0  0  0  0  0  0  0  0  0  0  0
    1.5311    0.0000    0.0000 C   0  0  0  0  0  0  0  0  0  0  0  0
    2.0564    0.0000    1.4057 C   0  0  0  0  0  0  0  0  0  0  0  0
    2.5907   -1.0810    1.9947 C   0  0  0  0  0  0  0  0  0  0  0  0
    2.7037   -2.3770    1.3111 C   0  0  0  0  0  0  0  0  0  0  0  0
    3.9403   -2.7842    0.7957 C   0  0  0  0  0  0  0  0  0  0  0  0
    4.0676   -4.0150    0.1669 C   0  0  0  0  0  0  0  0  0  0  0  0
    2.9338   -4.8294    0.0685 C   0  0  0  0  0  0  0  0  0  0  0  0
    3.1326   -6.0218   -0.5544 O   0  0  0  0  0  0  0  0  0  0  0  0
    1.6900   -4.4462    0.5708 C   0  0  0  0  0  0  0  0  0  0  0  0
    1.5862   -3.2056    1.1953 C   0  0  0  0  0  0  0  0  0  0  0  0
    3.1180   -1.0756    3.4002 C   0  0  0  0  0  0  0  0  0  0  0  0
    2.0957   -1.7039    4.3510 C   0  0  0  0  0  0  0  0  0  0  0  0
    1.9451    1.2921    2.0978 C   0  0  0  0  0  0  0  0  0  0  0  0
    2.9157    2.2787    1.8845 C   0  0  0  0  0  0  0  0  0  0  0  0
    2.8161    3.5090    2.5194 C   0  0  0  0  0  0  0  0  0  0  0  0
    1.7262    3.7303    3.3687 C   0  0  0  0  0  0  0  0  0  0  0  0
    1.6907    4.9580    3.9524 O   0  0  0  0  0  0  0  0  0  0  0  0
    0.7478    2.7631    3.6001 C   0  0  0  0  0  0  0  0  0  0  0  0
    0.8685    1.5361    2.9523 C   0  0  0  0  0  0  0  0  0  0  0  0
   -0.3945   -0.0572   -1.0201 H   0  0  0  0  0  0  0  0  0  0  0  0
   -0.3968    0.9123    0.4617 H   0  0  0  0  0  0  0  0  0  0  0  0
   -0.3967   -0.8541    0.5598 H   0  0  0  0  0  0  0  0  0  0  0  0
    1.9092    0.8891   -0.5462 H   0  0  0  0  0  0  0  0  0  0  0  0
    1.9071   -0.8779   -0.5657 H   0  0  0  0  0  0  0  0  0  0  0  0
    4.8056   -2.1285    0.8905 H   0  0  0  0  0  0  0  0  0  0  0  0
    5.0156   -4.3541   -0.2416 H   0  0  0  0  0  0  0  0  0  0  0  0
    2.3107   -6.5660   -0.5882 H   0  0  0  0  0  0  0  0  0  0  0  0
    0.8255   -5.0935    0.4802 H   0  0  0  0  0  0  0  0  0  0  0  0
    0.6284   -2.8774    1.5978 H   0  0  0  0  0  0  0  0  0  0  0  0
    3.3575   -0.0444    3.7324 H   0  0  0  0  0  0  0  0  0  0  0  0
    4.0758   -1.6329    3.4512 H   0  0  0  0  0  0  0  0  0  0  0  0
    1.1493   -1.1520    4.3359 H   0  0  0  0  0  0  0  0  0  0  0  0
    2.4644   -1.7064    5.3819 H   0  0  0  0  0  0  0  0  0  0  0  0
    1.8791   -2.7416    4.0706 H   0  0  0  0  0  0  0  0  0  0  0  0
    3.7525    2.0747    1.2168 H   0  0  0  0  0  0  0  0  0  0  0  0
    3.5549    4.2920    2.3715 H   0  0  0  0  0  0  0  0  0  0  0  0
    0.9067    5.0687    4.5407 H   0  0  0  0  0  0  0  0  0  0  0  0
   -0.0851    2.9561    4.2658 H   0  0  0  0  0  0  0  0  0  0  0  0
    0.1192    0.7610    3.1115 H   0  0  0  0  0  0  0  0  0  0  0  0
  1  2  1  0  0  0  0
  1 22  1  0  0  0  0
  1 23  1  0  0  0  0
  2  3  1  0  0  0  0
  3  4  2  0  0  0  0
  3 14  1  0  0  0  0
  4 12  1  0  0  0  0
  5  4  1  0  0  0  0
  6 26  1  0  0  0  0
  6  5  2  0  0  0  0
  7  6  1  0  0  0  0
  8  7  2  0  0  0  0
  8 10  1  0  0  0  0
  9  8  1  0  0  0  0
 10 11  2  0  0  0  0
 11  5  1  0  0  0  0
 11 30  1  0  0  0  0
 12 32  1  0  0  0  0
 12 31  1  0  0  0  0
 12 13  1  0  0  0  0
 13 34  1  0  0  0  0
 14 20  1  0  0  0  0
 15 14  2  0  0  0  0
 15 16  1  0  0  0  0
 16 17  2  0  0  0  0
 17 19  1  0  0  0  0
 17 18  1  0  0  0  0
 18 38  1  0  0  0  0
 19 39  1  0  0  0  0
 20 40  1  0  0  0  0
 20 19  2  0  0  0  0
 21  1  1  0  0  0  0
 24  2  1  0  0  0  0
 25  2  1  0  0  0  0
 27  7  1  0  0  0  0
 28  9  1  0  0  0  0
 29 10  1  0  0  0  0
 33 13  1  0  0  0  0
 35 13  1  0  0  0  0
 36 15  1  0  0  0  0
 37 16  1  0  0  0  0
M  END
$$$$
