40
rmsd100.gzmat
C          0.00000        0.00000        0.00000
C          1.53110        0.00000        0.00000
C          2.04950        0.00000        1.40830
C          2.27250        1.12200        2.11040
C          2.04650        2.45730        1.54090
C          0.85700        3.14170        1.81770
C          0.63720        4.40650        1.28940
C          1.63160        4.96930        0.48140
O          1.34880        6.20900       -0.00080
C          2.82510        4.30770        0.19030
C          3.02380        3.03980        0.73090
C          2.78730        1.12000        3.52000
C          4.31550        1.21770        3.52010
C          2.29530       -1.33360        1.97410
C          3.53280       -1.95480        1.76390
C          3.78360       -3.21470        2.28980
C          2.77170       -3.83610        3.03070
O          3.08950       -5.06280        3.52440
C          1.52930       -3.24100        3.24950
C          1.29950       -1.97680        2.71140
H         -0.39530       -0.02480       -1.02110
H         -0.39350        0.90090        0.48690
H         -0.39740       -0.87070        0.53400
H          1.90580        0.88440       -0.55630
H          1.91040       -0.88320       -0.55320
H          0.10170        2.67500        2.44920
H         -0.27750        4.95920        1.48630
H          2.07320        6.56250       -0.56940
H          3.57990        4.76490       -0.43910
H          3.94480        2.49590        0.52220
H          2.46890        0.20110        4.05490
H          2.35280        1.96470        4.09230
H          4.76340        0.37910        2.97400
H          4.71300        1.19990        4.54010
H          4.65220        2.14620        3.04490
H          4.29980       -1.44140        1.18460
H          4.73430       -3.71940        2.14060
H          2.34730       -5.46100        4.03830
H          0.76000       -3.74500        3.82270
H          0.33980       -1.48480        2.86740
