rmsd8.gzmat
 OpenBabel08211713413D

 51 55  0  0  1  0  0  0  0  0999 V2000
    0.0000    0.0000    0.0000 N   0  0  0  0  0  0  0  0  0  0  0  0
    1.4286    0.0000    0.0000 C   0  0  0  0  0  0  0  0  0  0  0  0
    2.1938    0.0000    1.0932 C   0  0  0  0  0  0  0  0  0  0  0  0
    1.9089   -0.0582   -1.4613 C   0  0  2  0  0  0  0  0  0  0  0  0
    0.6220    0.1585   -2.2300 C   0  0  0  0  0  0  0  0  0  0  0  0
    0.4005    0.2701   -3.5837 C   0  0  0  0  0  0  0  0  0  0  0  0
   -0.9133    0.4654   -4.0349 C   0  0  0  0  0  0  0  0  0  0  0  0
   -1.9690    0.5446   -3.1329 C   0  0  0  0  0  0  0  0  0  0  0  0
   -1.7607    0.4321   -1.7538 C   0  0  0  0  0  0  0  0  0  0  0  0
   -0.4586    0.2349   -1.3134 C   0  0  0  0  0  0  0  0  0  0  0  0
    2.4566   -1.4558   -1.8283 C   0  0  0  0  0  0  0  0  0  0  0  0
    3.5826   -1.9037   -0.9739 C   0  0  0  0  0  0  0  0  0  0  0  0
    3.5127   -3.0528   -0.1462 N   0  0  0  0  0  0  0  0  0  0  0  0
    4.7675   -3.1974    0.4621 C   0  0  2  0  0  0  0  0  0  0  0  0
    5.2813   -4.1226    1.3723 C   0  0  0  0  0  0  0  0  0  0  0  0
    6.5937   -3.9439    1.7772 C   0  0  0  0  0  0  0  0  0  0  0  0
    7.3804   -2.8745    1.3010 C   0  0  0  0  0  0  0  0  0  0  0  0
    6.8821   -1.9483    0.4008 C   0  0  0  0  0  0  0  0  0  0  0  0
    5.5614   -2.1070   -0.0275 C   0  0  0  0  0  0  0  0  0  0  0  0
    4.7946   -1.3458   -0.9161 N   0  0  0  0  0  0  0  0  0  0  0  0
    2.4168   -3.9326    0.0367 C   0  0  0  0  0  0  0  0  0  0  0  0
    2.5965   -5.3025   -0.1953 C   0  0  0  0  0  0  0  0  0  0  0  0
    1.5198   -6.1660   -0.0195 C   0  0  0  0  0  0  0  0  0  0  0  0
    0.2779   -5.6718    0.3779 C   0  0  0  0  0  0  0  0  0  0  0  0
    0.1091   -4.3078    0.6108 C   0  0  0  0  0  0  0  0  0  0  0  0
    1.1775   -3.4313    0.4496 C   0  0  0  0  0  0  0  0  0  0  0  0
    2.9169    1.0487   -1.7403 C   0  0  0  0  0  0  0  0  0  0  0  0
   -0.7308    0.5357    1.1452 C   0  0  0  0  0  0  0  0  0  0  0  0
    1.8252    0.0589    2.1004 H   0  0  0  0  0  0  0  0  0  0  0  0
    3.2709   -0.0650    1.0495 H   0  0  0  0  0  0  0  0  0  0  0  0
    1.2230    0.2123   -4.2936 H   0  0  0  0  0  0  0  0  0  0  0  0
   -1.1030    0.5555   -5.1008 H   0  0  0  0  0  0  0  0  0  0  0  0
   -2.9831    0.6969   -3.5016 H   0  0  0  0  0  0  0  0  0  0  0  0
   -2.5930    0.4923   -1.0632 H   0  0  0  0  0  0  0  0  0  0  0  0
    1.6204   -2.1921   -1.8055 H   0  0  0  0  0  0  0  0  0  0  0  0
    2.7977   -1.4309   -2.8921 H   0  0  0  0  0  0  0  0  0  0  0  0
    4.6731   -4.9396    1.7471 H   0  0  0  0  0  0  0  0  0  0  0  0
    7.0377   -4.6437    2.4841 H   0  0  0  0  0  0  0  0  0  0  0  0
    8.4046   -2.7816    1.6574 H   0  0  0  0  0  0  0  0  0  0  0  0
    7.4801   -1.1196    0.0293 H   0  0  0  0  0  0  0  0  0  0  0  0
    3.5658   -5.6819   -0.5151 H   0  0  0  0  0  0  0  0  0  0  0  0
    1.6496   -7.2325   -0.1975 H   0  0  0  0  0  0  0  0  0  0  0  0
   -0.5603   -6.3525    0.5080 H   0  0  0  0  0  0  0  0  0  0  0  0
   -0.8609   -3.9212    0.9219 H   0  0  0  0  0  0  0  0  0  0  0  0
    1.0509   -2.3644    0.6497 H   0  0  0  0  0  0  0  0  0  0  0  0
    2.5185    2.0331   -1.4728 H   0  0  0  0  0  0  0  0  0  0  0  0
    3.2033    1.0768   -2.7974 H   0  0  0  0  0  0  0  0  0  0  0  0
    3.8467    0.8985   -1.1661 H   0  0  0  0  0  0  0  0  0  0  0  0
   -1.8172    0.4174    0.9926 H   0  0  0  0  0  0  0  0  0  0  0  0
   -0.5173    1.6034    1.3263 H   0  0  0  0  0  0  0  0  0  0  0  0
   -0.4575   -0.0362    2.0518 H   0  0  0  0  0  0  0  0  0  0  0  0
  1  2  1  0  0  0  0
  1 28  1  0  0  0  0
  2  3  2  0  0  0  0
  3 29  1  0  0  0  0
  4 11  1  6  0  0  0
  4  2  1  0  0  0  0
  5  4  1  0  0  0  0
  5 10  2  0  0  0  0
  6  5  1  0  0  0  0
  7  6  2  0  0  0  0
  7  8  1  0  0  0  0
  8  9  2  0  0  0  0
  9 10  1  0  0  0  0
  9 34  1  0  0  0  0
 10  1  1  0  0  0  0
 11 35  1  0  0  0  0
 11 12  1  0  0  0  0
 12 20  2  0  0  0  0
 12 13  1  0  0  0  0
 13 21  1  0  0  0  0
 13 14  1  0  0  0  0
 14 19  1  1  0  0  0
 14 15  1  0  0  0  0
 15 37  1  0  0  0  0
 15 16  2  0  0  0  0
 16 38  1  0  0  0  0
 17 39  1  0  0  0  0
 17 16  1  0  0  0  0
 18 17  2  0  0  0  0
 19 18  1  0  0  0  0
 20 19  2  0  0  0  0
 21 26  2  0  0  0  0
 22 23  2  0  0  0  0
 22 21  1  0  0  0  0
 23 24  1  0  0  0  0
 24 43  1  0  0  0  0
 24 25  2  0  0  0  0
 25 44  1  0  0  0  0
 26 25  1  0  0  0  0
 26 45  1  0  0  0  0
 27 46  1  0  0  0  0
 27  4  1  0  0  0  0
 27 48  1  0  0  0  0
 28 50  1  0  0  0  0
 28 51  1  0  0  0  0
 30  3  1  0  0  0  0
 31  6  1  0  0  0  0
 32  7  1  0  0  0  0
 33  8  1  0  0  0  0
 36 11  1  0  0  0  0
 40 18  1  0  0  0  0
 41 22  1  0  0  0  0
 42 23  1  0  0  0  0
 47 27  1  0  0  0  0
 49 28  1  0  0  0  0
M  RAD  1  14   2
M  END
$$$$
