51
rmsd28.gzmat
N          0.00000        0.00000        0.00000
C          1.42900        0.00000        0.00000
C          2.19580        0.00000        1.09180
C          1.90660       -0.04750       -1.46310
C          0.62150        0.19450       -2.22640
C          0.40030        0.33980       -3.57680
C         -0.90940        0.57500       -4.02170
C         -1.96230        0.65770       -3.11680
C         -1.75550        0.50590       -1.74100
C         -0.45780        0.27060       -1.30650
C          2.44910       -1.44450       -1.84420
C          3.51870       -1.92700       -0.93760
N          3.37980       -3.07550       -0.11870
C          4.58950       -3.23520        0.57250
C          5.02670       -4.16160        1.52070
C          6.30800       -3.99380        2.01870
C          7.13970       -2.93710        1.59330
C          6.71690       -2.00990        0.65640
C          5.42760       -2.15590        0.13720
N          4.73250       -1.38640       -0.80150
C          2.27030       -3.95110       -0.01970
C          1.00490       -3.44650        0.29790
C         -0.07270       -4.32240        0.38780
C          0.11200       -5.68780        0.17590
C          1.37830       -6.18440       -0.13180
C          2.46490       -5.32190       -0.23510
C          2.92740        1.05080       -1.73340
C         -0.72980        0.49410        1.16400
H          1.83240        0.05060        2.10100
H          3.27350       -0.05860        1.04540
H          1.22020        0.28090       -4.28980
H         -1.09800        0.69610       -5.08480
H         -2.97210        0.84700       -3.48070
H         -2.58600        0.57010       -1.04880
H          1.60360       -2.16840       -1.88700
H          2.84810       -1.39550       -2.88610
H          4.38360       -4.96930        1.85510
H          6.69020       -4.69120        2.76300
H          8.13780       -2.85530        2.02000
H          7.34830       -1.18940        0.32410
H          0.86480       -2.37920        0.48370
H         -1.06170       -3.93400        0.62910
H         -0.73250       -6.36890        0.25140
H          1.51820       -7.25160       -0.29610
H          3.45400       -5.70220       -0.48550
H          2.55820        2.03140       -1.41440
H          3.17740        1.11650       -2.79820
H          3.87160        0.86080       -1.19460
H         -1.81520        0.36180        1.01790
H         -0.53030        1.55910        1.37370
H         -0.43900       -0.09810        2.05280
