rmsd10.gzmat
 OpenBabel08211713413D

 51 55  0  0  1  0  0  0  0  0999 V2000
    0.0000    0.0000    0.0000 N   0  0  0  0  0  0  0  0  0  0  0  0
    1.4292    0.0000    0.0000 C   0  0  0  0  0  0  0  0  0  0  0  0
    2.1964    0.0000    1.0916 C   0  0  0  0  0  0  0  0  0  0  0  0
    1.9081   -0.0544   -1.4617 C   0  0  2  0  0  0  0  0  0  0  0  0
    0.6251    0.1930   -2.2268 C   0  0  0  0  0  0  0  0  0  0  0  0
    0.4086    0.3421   -3.5777 C   0  0  0  0  0  0  0  0  0  0  0  0
   -0.9017    0.5642   -4.0270 C   0  0  0  0  0  0  0  0  0  0  0  0
   -1.9598    0.6265   -3.1264 C   0  0  0  0  0  0  0  0  0  0  0  0
   -1.7566    0.4753   -1.7501 C   0  0  0  0  0  0  0  0  0  0  0  0
   -0.4571    0.2606   -1.3101 C   0  0  0  0  0  0  0  0  0  0  0  0
    2.4298   -1.4613   -1.8360 C   0  0  0  0  0  0  0  0  0  0  0  0
    3.5096   -1.9512   -0.9455 C   0  0  0  0  0  0  0  0  0  0  0  0
    3.3697   -3.0881   -0.1105 N   0  0  0  0  0  0  0  0  0  0  0  0
    4.5933   -3.2650    0.5502 C   0  0  2  0  0  0  0  0  0  0  0  0
    5.0347   -4.1902    1.4978 C   0  0  0  0  0  0  0  0  0  0  0  0
    6.3354   -4.0519    1.9522 C   0  0  0  0  0  0  0  0  0  0  0  0
    7.1807   -3.0232    1.4863 C   0  0  0  0  0  0  0  0  0  0  0  0
    6.7524   -2.0945    0.5532 C   0  0  0  0  0  0  0  0  0  0  0  0
    5.4435   -2.2106    0.0776 C   0  0  0  0  0  0  0  0  0  0  0  0
    4.7378   -1.4348   -0.8478 N   0  0  0  0  0  0  0  0  0  0  0  0
    2.2470   -3.9413    0.0314 C   0  0  0  0  0  0  0  0  0  0  0  0
    2.4007   -5.3155   -0.1949 C   0  0  0  0  0  0  0  0  0  0  0  0
    1.2976   -6.1519   -0.0550 C   0  0  0  0  0  0  0  0  0  0  0  0
    0.0554   -5.6265    0.3001 C   0  0  0  0  0  0  0  0  0  0  0  0
   -0.0866   -4.2587    0.5285 C   0  0  0  0  0  0  0  0  0  0  0  0
    1.0085   -3.4095    0.4047 C   0  0  0  0  0  0  0  0  0  0  0  0
    2.9385    1.0332   -1.7347 C   0  0  0  0  0  0  0  0  0  0  0  0
   -0.7242    0.5182    1.1575 C   0  0  0  0  0  0  0  0  0  0  0  0
    1.8328    0.0534    2.1003 H   0  0  0  0  0  0  0  0  0  0  0  0
    3.2739   -0.0623    1.0434 H   0  0  0  0  0  0  0  0  0  0  0  0
    1.2321    0.2949   -4.2871 H   0  0  0  0  0  0  0  0  0  0  0  0
   -1.0867    0.6893   -5.0903 H   0  0  0  0  0  0  0  0  0  0  0  0
   -2.9712    0.7987   -3.4942 H   0  0  0  0  0  0  0  0  0  0  0  0
   -2.5907    0.5206   -1.0606 H   0  0  0  0  0  0  0  0  0  0  0  0
    1.5741   -2.1747   -1.8550 H   0  0  0  0  0  0  0  0  0  0  0  0
    2.8119   -1.4284   -2.8852 H   0  0  0  0  0  0  0  0  0  0  0  0
    4.3802   -4.9751    1.8635 H   0  0  0  0  0  0  0  0  0  0  0  0
    6.7229   -4.7517    2.6915 H   0  0  0  0  0  0  0  0  0  0  0  0
    8.1949   -2.9649    1.8771 H   0  0  0  0  0  0  0  0  0  0  0  0
    7.3955   -1.2964    0.1903 H   0  0  0  0  0  0  0  0  0  0  0  0
    3.3708   -5.7191   -0.4813 H   0  0  0  0  0  0  0  0  0  0  0  0
    1.4061   -7.2217   -0.2269 H   0  0  0  0  0  0  0  0  0  0  0  0
   -0.8039   -6.2855    0.4011 H   0  0  0  0  0  0  0  0  0  0  0  0
   -1.0559   -3.8479    0.8091 H   0  0  0  0  0  0  0  0  0  0  0  0
    0.9040   -2.3411    0.6063 H   0  0  0  0  0  0  0  0  0  0  0  0
    2.5822    2.0167   -1.4096 H   0  0  0  0  0  0  0  0  0  0  0  0
    3.1816    1.1002   -2.8011 H   0  0  0  0  0  0  0  0  0  0  0  0
    3.8844    0.8317   -1.2034 H   0  0  0  0  0  0  0  0  0  0  0  0
   -1.8118    0.4148    1.0050 H   0  0  0  0  0  0  0  0  0  0  0  0
   -0.4967    1.5785    1.3630 H   0  0  0  0  0  0  0  0  0  0  0  0
   -0.4531   -0.0766    2.0506 H   0  0  0  0  0  0  0  0  0  0  0  0
  1  2  1  0  0  0  0
  1 28  1  0  0  0  0
  2  3  2  0  0  0  0
  3 29  1  0  0  0  0
  4 11  1  6  0  0  0
  4  2  1  0  0  0  0
  5  4  1  0  0  0  0
  5 10  2  0  0  0  0
  6  5  1  0  0  0  0
  7  6  2  0  0  0  0
  7  8  1  0  0  0  0
  8  9  2  0  0  0  0
  9 10  1  0  0  0  0
  9 34  1  0  0  0  0
 10  1  1  0  0  0  0
 11 12  1  0  0  0  0
 12 20  2  0  0  0  0
 12 13  1  0  0  0  0
 13 21  1  0  0  0  0
 13 14  1  0  0  0  0
 14 19  1  1  0  0  0
 14 15  1  0  0  0  0
 15 37  1  0  0  0  0
 15 16  2  0  0  0  0
 16 38  1  0  0  0  0
 17 39  1  0  0  0  0
 17 16  1  0  0  0  0
 18 17  2  0  0  0  0
 19 18  1  0  0  0  0
 20 19  2  0  0  0  0
 21 26  2  0  0  0  0
 22 23  2  0  0  0  0
 22 21  1  0  0  0  0
 23 24  1  0  0  0  0
 24 43  1  0  0  0  0
 24 25  2  0  0  0  0
 25 44  1  0  0  0  0
 26 25  1  0  0  0  0
 26 45  1  0  0  0  0
 27  4  1  0  0  0  0
 27 46  1  0  0  0  0
 27 48  1  0  0  0  0
 28 50  1  0  0  0  0
 28 51  1  0  0  0  0
 30  3  1  0  0  0  0
 31  6  1  0  0  0  0
 32  7  1  0  0  0  0
 33  8  1  0  0  0  0
 35 11  1  0  0  0  0
 36 11  1  0  0  0  0
 40 18  1  0  0  0  0
 41 22  1  0  0  0  0
 42 23  1  0  0  0  0
 47 27  1  0  0  0  0
 49 28  1  0  0  0  0
M  RAD  1  14   2
M  END
$$$$
