51
rmsd29.gzmat
N          0.00000        0.00000        0.00000
C          1.42200        0.00000        0.00000
C          2.20300        0.00000        1.08330
C          1.89970       -0.07570       -1.46810
C          0.61750        0.14940       -2.23270
C          0.39400        0.28580       -3.58450
C         -0.92270        0.46680       -4.03320
C         -1.97960        0.51980       -3.13120
C         -1.76900        0.40240       -1.75250
C         -0.46420        0.22130       -1.31410
C          2.46630       -1.49440       -1.70520
C          2.70570       -1.79660       -3.13730
N          1.99980       -2.80380       -3.84050
C          2.52290       -2.84260       -5.14010
C          2.22020       -3.61670       -6.26170
C          2.95330       -3.37050       -7.41030
C          3.95880       -2.38190       -7.45360
C          4.26380       -1.60380       -6.34990
C          3.53990       -1.83200       -5.17620
N          3.62160       -1.22000       -3.92070
C          0.98520       -3.66790       -3.35650
C         -0.20930       -3.13560       -2.86210
C         -1.19690       -3.99900       -2.39850
C         -0.99730       -5.37820       -2.43370
C          0.19370       -5.90140       -2.93620
C          1.19330       -5.05230       -3.40020
C          2.92670        1.00960       -1.75820
C         -0.74510        0.50880        1.14660
H          1.84470        0.06400        2.09340
H          3.27580       -0.06480        1.02870
H          1.22060        0.24860       -4.29610
H         -1.11210        0.56710       -5.09900
H         -2.99650        0.65960       -3.49690
H         -2.60090        0.45100       -1.06150
H          3.42860       -1.59500       -1.14710
H          1.77920       -2.24430       -1.25030
H          1.44220       -4.37290       -6.22940
H          2.75330       -3.95130       -8.30990
H          4.50300       -2.23420       -8.38480
H          5.03600       -0.83870       -6.37360
H         -0.37100       -2.05550       -2.84820
H         -2.12950       -3.58940       -2.01150
H         -1.77330       -6.04800       -2.06950
H          0.34560       -6.97940       -2.96480
H          2.12780       -5.45320       -3.78970
H          2.50870        2.01070       -1.60580
H          3.27900        0.95170       -2.80230
H          3.81340        0.91320       -1.12100
H         -1.82330        0.31150        1.01490
H         -0.60140        1.59240        1.30050
H         -0.42080       -0.02090        2.06180
