51
rmsd41.gzmat
N          0.00000        0.00000        0.00000
C          1.43060        0.00000        0.00000
C          2.19570        0.00000        1.09280
C          1.91310       -0.05300       -1.46050
C          0.62870        0.17340       -2.22960
C          0.41190        0.29730       -3.58310
C         -0.90020        0.49630       -4.03700
C         -1.96000        0.56160       -3.13850
C         -1.75630        0.43570       -1.75970
C         -0.45500        0.24190       -1.31560
C          2.45900       -1.44970       -1.83680
C          3.53530       -1.92980       -0.93730
N          3.40190       -3.07950       -0.11900
C          4.62050       -3.24810        0.55280
C          5.06540       -4.18210        1.48970
C          6.35790       -4.02990        1.96310
C          7.19040       -2.97800        1.52770
C          6.75880       -2.04080        0.60470
C          5.45910       -2.17220        0.10830
N          4.75300       -1.39430       -0.81540
C          2.29370       -3.95610       -0.01580
C          1.03020       -3.45160        0.30820
C         -0.04910       -4.32590        0.39020
C          0.13260       -5.69020        0.17010
C          1.39910       -6.18800       -0.13520
C          2.48690       -5.32670       -0.23480
C          2.93060        1.04750       -1.73080
C         -0.71860        0.57120        1.13730
H          1.83030        0.05260        2.10110
H          3.27340       -0.06150        1.04720
H          1.23700        0.24700       -4.29080
H         -1.08690        0.60100       -5.10240
H         -2.97280        0.71480       -3.51060
H         -2.59180        0.48190       -1.07190
H          1.61360       -2.17500       -1.87260
H          2.85270       -1.40570       -2.88120
H          4.42010       -4.98430        1.83360
H          6.74820       -4.73670        2.69430
H          8.19680       -2.90800        1.93620
H          7.39160       -1.22420        0.26640
H          0.89260       -2.38530        0.50380
H         -1.03790       -3.93710        0.63170
H         -0.71510       -6.36840        0.23800
H          1.53920       -7.25530       -0.29950
H          3.47580       -5.70790       -0.48530
H          2.55610        2.02920       -1.42330
H          3.18990        1.10530       -2.79360
H          3.87070        0.86460       -1.18270
H         -1.80630        0.45160        0.99810
H         -0.49910        1.64260        1.28480
H         -0.43710        0.02490        2.05700
