51
rmsd31.gzmat
N          0.00000        0.00000        0.00000
C          1.42950        0.00000        0.00000
C          2.19530        0.00000        1.09250
C          1.90970       -0.04670       -1.46160
C          0.62450        0.18830       -2.22730
C          0.40450        0.32570       -3.57900
C         -0.90670        0.54530       -4.02710
C         -1.96200        0.62380       -3.12440
C         -1.75600        0.48280       -1.74770
C         -0.45700        0.26130       -1.30980
C          2.46010       -1.43960       -1.84510
C          3.51780       -1.93070       -0.92960
N          3.35290       -3.06820       -0.10070
C          4.55450       -3.24410        0.59860
C          4.96350       -4.16790        1.56150
C          6.24670       -4.02550        2.06200
C          7.10560       -2.99600        1.62400
C          6.70910       -2.06920        0.67520
C          5.41770       -2.18770        0.15450
N          4.74130       -1.41210       -0.79270
C          2.23490       -3.93530       -0.01760
C          0.97870       -3.42490        0.32390
C         -0.11080       -4.28840        0.38640
C          0.05380       -5.64810        0.12680
C          1.31320       -6.15180       -0.19730
C          2.41170       -5.30140       -0.27370
C          2.92630        1.05670       -1.72770
C         -0.72500        0.52260        1.15530
H          1.83000        0.05280        2.10100
H          3.27310       -0.06210        1.04720
H          1.22670        0.27180       -4.28960
H         -1.09590        0.65720       -5.09120
H         -2.97310        0.80020       -3.49070
H         -2.58810        0.54310       -1.05690
H          1.61660       -2.16480       -1.90450
H          2.87460       -1.38120       -2.88050
H          4.29750       -4.95400        1.90260
H          6.60980       -4.72260        2.81620
H          8.10510       -2.93500        2.05050
H          7.36300       -1.27000        0.33500
H          0.85570       -2.36250        0.54670
H         -1.09360       -3.89440        0.64280
H         -0.80150       -6.31840        0.17860
H          1.43910       -7.21510       -0.39520
H          3.39620       -5.68730       -0.53320
H          2.54470        2.03800       -1.42540
H          3.19240        1.11280       -2.78910
H          3.86260        0.87900       -1.17180
H         -1.81230        0.41020        1.00620
H         -0.50430        1.58620        1.35160
H         -0.44980       -0.06360        2.05270
