rmsd43.gzmat
 OpenBabel08211713413D

 51 55  0  0  1  0  0  0  0  0999 V2000
    0.0000    0.0000    0.0000 N   0  0  0  0  0  0  0  0  0  0  0  0
    1.4208    0.0000    0.0000 C   0  0  0  0  0  0  0  0  0  0  0  0
    2.2028    0.0000    1.0827 C   0  0  0  0  0  0  0  0  0  0  0  0
    1.8981   -0.0920   -1.4669 C   0  0  2  0  0  0  0  0  0  0  0  0
    0.6131    0.1066   -2.2340 C   0  0  0  0  0  0  0  0  0  0  0  0
    0.3879    0.2153   -3.5880 C   0  0  0  0  0  0  0  0  0  0  0  0
   -0.9295    0.3835   -4.0382 C   0  0  0  0  0  0  0  0  0  0  0  0
   -1.9855    0.4535   -3.1362 C   0  0  0  0  0  0  0  0  0  0  0  0
   -1.7732    0.3665   -1.7553 C   0  0  0  0  0  0  0  0  0  0  0  0
   -0.4674    0.1949   -1.3159 C   0  0  0  0  0  0  0  0  0  0  0  0
    2.4859   -1.5070   -1.6728 C   0  0  0  0  0  0  0  0  0  0  0  0
    2.6763   -1.8579   -3.1004 C   0  0  0  0  0  0  0  0  0  0  0  0
    1.9597   -2.9005   -3.7385 N   0  0  0  0  0  0  0  0  0  0  0  0
    2.4305   -2.9764   -5.0559 C   0  0  1  0  0  0  0  0  0  0  0  0
    2.0941   -3.7924   -6.1374 C   0  0  0  0  0  0  0  0  0  0  0  0
    2.7787   -3.5775   -7.3217 C   0  0  0  0  0  0  0  0  0  0  0  0
    3.7702   -2.5808   -7.4380 C   0  0  0  0  0  0  0  0  0  0  0  0
    4.1071   -1.7599   -6.3754 C   0  0  0  0  0  0  0  0  0  0  0  0
    3.4312   -1.9537   -5.1676 C   0  0  0  0  0  0  0  0  0  0  0  0
    3.5521   -1.2964   -3.9386 N   0  0  0  0  0  0  0  0  0  0  0  0
    0.9768   -3.7557   -3.1791 C   0  0  0  0  0  0  0  0  0  0  0  0
   -0.1938   -3.2121   -2.6412 C   0  0  0  0  0  0  0  0  0  0  0  0
   -1.1440   -4.0616   -2.0834 C   0  0  0  0  0  0  0  0  0  0  0  0
   -0.9334   -5.4397   -2.0731 C   0  0  0  0  0  0  0  0  0  0  0  0
    0.2289   -5.9754   -2.6271 C   0  0  0  0  0  0  0  0  0  0  0  0
    1.1927   -5.1395   -3.1829 C   0  0  0  0  0  0  0  0  0  0  0  0
    2.9101    1.0002   -1.7846 C   0  0  0  0  0  0  0  0  0  0  0  0
   -0.7511    0.4985    1.1459 C   0  0  0  0  0  0  0  0  0  0  0  0
    1.8465    0.0710    2.0926 H   0  0  0  0  0  0  0  0  0  0  0  0
    3.2747   -0.0757    1.0260 H   0  0  0  0  0  0  0  0  0  0  0  0
    1.2148    0.1686   -4.2984 H   0  0  0  0  0  0  0  0  0  0  0  0
   -1.1200    0.4615   -5.1057 H   0  0  0  0  0  0  0  0  0  0  0  0
   -3.0019    0.5841   -3.5064 H   0  0  0  0  0  0  0  0  0  0  0  0
   -2.6030    0.4319   -1.0624 H   0  0  0  0  0  0  0  0  0  0  0  0
    3.4705   -1.5667   -1.1485 H   0  0  0  0  0  0  0  0  0  0  0  0
    1.8334   -2.2539   -1.1643 H   0  0  0  0  0  0  0  0  0  0  0  0
    1.3272   -4.5555   -6.0487 H   0  0  0  0  0  0  0  0  0  0  0  0
    2.5502   -4.1905   -8.1925 H   0  0  0  0  0  0  0  0  0  0  0  0
    4.2783   -2.4607   -8.3932 H   0  0  0  0  0  0  0  0  0  0  0  0
    4.8689   -0.9884   -6.4570 H   0  0  0  0  0  0  0  0  0  0  0  0
   -0.3648   -2.1336   -2.6656 H   0  0  0  0  0  0  0  0  0  0  0  0
   -2.0554   -3.6421   -1.6576 H   0  0  0  0  0  0  0  0  0  0  0  0
   -1.6788   -6.0986   -1.6330 H   0  0  0  0  0  0  0  0  0  0  0  0
    0.3862   -7.0531   -2.6238 H   0  0  0  0  0  0  0  0  0  0  0  0
    2.1047   -5.5511   -3.6123 H   0  0  0  0  0  0  0  0  0  0  0  0
    2.4638    1.9978   -1.7076 H   0  0  0  0  0  0  0  0  0  0  0  0
    3.2975    0.8892   -2.8123 H   0  0  0  0  0  0  0  0  0  0  0  0
    3.7755    0.9666   -1.1131 H   0  0  0  0  0  0  0  0  0  0  0  0
   -1.8278    0.2943    1.0117 H   0  0  0  0  0  0  0  0  0  0  0  0
   -0.6159    1.5828    1.3036 H   0  0  0  0  0  0  0  0  0  0  0  0
   -0.4236   -0.0331    2.0589 H   0  0  0  0  0  0  0  0  0  0  0  0
  1  2  1  0  0  0  0
  1 28  1  0  0  0  0
  2  3  2  0  0  0  0
  3 29  1  0  0  0  0
  4 27  1  6  0  0  0
  4  2  1  0  0  0  0
  5  4  1  0  0  0  0
  5 10  2  0  0  0  0
  6  5  1  0  0  0  0
  7  6  2  0  0  0  0
  7  8  1  0  0  0  0
  8  9  2  0  0  0  0
  9 10  1  0  0  0  0
  9 34  1  0  0  0  0
 10  1  1  0  0  0  0
 11  4  1  0  0  0  0
 11 36  1  0  0  0  0
 11 35  1  0  0  0  0
 12 11  1  0  0  0  0
 13 21  1  0  0  0  0
 13 12  1  0  0  0  0
 14 15  1  6  0  0  0
 14 13  1  0  0  0  0
 15 37  1  0  0  0  0
 16 15  2  0  0  0  0
 17 16  1  0  0  0  0
 17 18  2  0  0  0  0
 18 19  1  0  0  0  0
 19 14  1  0  0  0  0
 19 20  2  0  0  0  0
 20 12  2  0  0  0  0
 21 22  1  0  0  0  0
 22 23  2  0  0  0  0
 23 24  1  0  0  0  0
 23 42  1  0  0  0  0
 24 43  1  0  0  0  0
 25 44  1  0  0  0  0
 25 24  2  0  0  0  0
 26 21  2  0  0  0  0
 26 25  1  0  0  0  0
 27 46  1  0  0  0  0
 27 48  1  0  0  0  0
 28 50  1  0  0  0  0
 28 51  1  0  0  0  0
 30  3  1  0  0  0  0
 31  6  1  0  0  0  0
 32  7  1  0  0  0  0
 33  8  1  0  0  0  0
 38 16  1  0  0  0  0
 39 17  1  0  0  0  0
 40 18  1  0  0  0  0
 41 22  1  0  0  0  0
 45 26  1  0  0  0  0
 47 27  1  0  0  0  0
 49 28  1  0  0  0  0
M  RAD  1  14   2
M  END
$$$$
