51
rmsd23.gzmat
N          0.00000        0.00000        0.00000
C          1.42970        0.00000        0.00000
C          2.19500        0.00000        1.09290
C          1.91090       -0.04570       -1.46120
C          0.62450        0.17550       -2.22830
C          0.40520        0.29240       -3.58170
C         -0.90850        0.48590       -4.03370
C         -1.96560        0.56170       -3.13280
C         -1.75910        0.44530       -1.75350
C         -0.45750        0.24630       -1.31200
C          2.46940       -1.43350       -1.84960
C          3.53410       -1.92450       -0.94250
N          3.38510       -3.07350       -0.12460
C          4.60170       -3.25650        0.54820
C          5.03610       -4.19590        1.48480
C          6.32940       -4.05740        1.96030
C          7.17620       -3.01810        1.52190
C          6.75560       -2.07660        0.59830
C          5.45270       -2.19000        0.10560
N          4.75650       -1.40150       -0.81700
C          2.27370       -3.94800       -0.04150
C          2.47090       -5.32230       -0.23250
C          1.37830       -6.18040       -0.16030
C          0.10220       -5.67710        0.09160
C         -0.08370       -4.30950        0.28670
C          0.99980       -3.43860        0.23060
C          2.91750        1.06700       -1.72510
C         -0.72490        0.53180        1.15090
H          1.82800        0.05220        2.10110
H          3.27270       -0.06150        1.04770
H          1.22890        0.23930       -4.29050
H         -1.09760        0.57770       -5.09970
H         -2.97900        0.71430       -3.50320
H         -2.59250        0.50400       -1.06450
H          1.62970       -2.16320       -1.91220
H          2.87970       -1.36990       -2.88710
H          4.38310       -4.99320        1.82590
H          6.71000       -4.76630        2.69470
H          8.18510       -2.96250        1.92680
H          7.39970       -1.27080        0.25510
H          3.46690       -5.70950       -0.44190
H          1.52240       -7.25000       -0.30610
H         -0.74920       -6.35250        0.13680
H         -1.07930       -3.91450        0.48750
H          0.85470       -2.37020        0.40670
H          2.52380        2.04500       -1.42700
H          3.18980        1.12420       -2.78480
H          3.85280        0.89820       -1.16470
H         -1.81270        0.43350        0.99640
H         -0.49210        1.59250        1.34790
H         -0.46150       -0.05810        2.04950
