rmsd23.gzmat
 OpenBabel08211713413D

 51 55  0  0  1  0  0  0  0  0999 V2000
    0.0000    0.0000    0.0000 N   0  0  0  0  0  0  0  0  0  0  0  0
    1.4297    0.0000    0.0000 C   0  0  0  0  0  0  0  0  0  0  0  0
    2.1950    0.0000    1.0929 C   0  0  0  0  0  0  0  0  0  0  0  0
    1.9109   -0.0457   -1.4612 C   0  0  2  0  0  0  0  0  0  0  0  0
    0.6245    0.1755   -2.2283 C   0  0  0  0  0  0  0  0  0  0  0  0
    0.4052    0.2924   -3.5817 C   0  0  0  0  0  0  0  0  0  0  0  0
   -0.9085    0.4859   -4.0337 C   0  0  0  0  0  0  0  0  0  0  0  0
   -1.9656    0.5617   -3.1328 C   0  0  0  0  0  0  0  0  0  0  0  0
   -1.7591    0.4453   -1.7535 C   0  0  0  0  0  0  0  0  0  0  0  0
   -0.4575    0.2463   -1.3120 C   0  0  0  0  0  0  0  0  0  0  0  0
    2.4694   -1.4335   -1.8496 C   0  0  0  0  0  0  0  0  0  0  0  0
    3.5341   -1.9245   -0.9425 C   0  0  0  0  0  0  0  0  0  0  0  0
    3.3851   -3.0735   -0.1246 N   0  0  0  0  0  0  0  0  0  0  0  0
    4.6017   -3.2565    0.5482 C   0  0  2  0  0  0  0  0  0  0  0  0
    5.0361   -4.1959    1.4848 C   0  0  0  0  0  0  0  0  0  0  0  0
    6.3294   -4.0574    1.9603 C   0  0  0  0  0  0  0  0  0  0  0  0
    7.1762   -3.0181    1.5219 C   0  0  0  0  0  0  0  0  0  0  0  0
    6.7556   -2.0766    0.5983 C   0  0  0  0  0  0  0  0  0  0  0  0
    5.4527   -2.1900    0.1056 C   0  0  0  0  0  0  0  0  0  0  0  0
    4.7565   -1.4015   -0.8170 N   0  0  0  0  0  0  0  0  0  0  0  0
    2.2737   -3.9480   -0.0415 C   0  0  0  0  0  0  0  0  0  0  0  0
    2.4709   -5.3223   -0.2325 C   0  0  0  0  0  0  0  0  0  0  0  0
    1.3783   -6.1804   -0.1603 C   0  0  0  0  0  0  0  0  0  0  0  0
    0.1022   -5.6771    0.0916 C   0  0  0  0  0  0  0  0  0  0  0  0
   -0.0837   -4.3095    0.2867 C   0  0  0  0  0  0  0  0  0  0  0  0
    0.9998   -3.4386    0.2306 C   0  0  0  0  0  0  0  0  0  0  0  0
    2.9175    1.0670   -1.7251 C   0  0  0  0  0  0  0  0  0  0  0  0
   -0.7249    0.5318    1.1509 C   0  0  0  0  0  0  0  0  0  0  0  0
    1.8280    0.0522    2.1011 H   0  0  0  0  0  0  0  0  0  0  0  0
    3.2727   -0.0615    1.0477 H   0  0  0  0  0  0  0  0  0  0  0  0
    1.2289    0.2393   -4.2905 H   0  0  0  0  0  0  0  0  0  0  0  0
   -1.0976    0.5777   -5.0997 H   0  0  0  0  0  0  0  0  0  0  0  0
   -2.9790    0.7143   -3.5032 H   0  0  0  0  0  0  0  0  0  0  0  0
   -2.5925    0.5040   -1.0645 H   0  0  0  0  0  0  0  0  0  0  0  0
    1.6297   -2.1632   -1.9122 H   0  0  0  0  0  0  0  0  0  0  0  0
    2.8797   -1.3699   -2.8871 H   0  0  0  0  0  0  0  0  0  0  0  0
    4.3831   -4.9932    1.8259 H   0  0  0  0  0  0  0  0  0  0  0  0
    6.7100   -4.7663    2.6947 H   0  0  0  0  0  0  0  0  0  0  0  0
    8.1851   -2.9625    1.9268 H   0  0  0  0  0  0  0  0  0  0  0  0
    7.3997   -1.2708    0.2551 H   0  0  0  0  0  0  0  0  0  0  0  0
    3.4669   -5.7095   -0.4419 H   0  0  0  0  0  0  0  0  0  0  0  0
    1.5224   -7.2500   -0.3061 H   0  0  0  0  0  0  0  0  0  0  0  0
   -0.7492   -6.3525    0.1368 H   0  0  0  0  0  0  0  0  0  0  0  0
   -1.0793   -3.9145    0.4875 H   0  0  0  0  0  0  0  0  0  0  0  0
    0.8547   -2.3702    0.4067 H   0  0  0  0  0  0  0  0  0  0  0  0
    2.5238    2.0450   -1.4270 H   0  0  0  0  0  0  0  0  0  0  0  0
    3.1898    1.1242   -2.7848 H   0  0  0  0  0  0  0  0  0  0  0  0
    3.8528    0.8982   -1.1647 H   0  0  0  0  0  0  0  0  0  0  0  0
   -1.8127    0.4335    0.9964 H   0  0  0  0  0  0  0  0  0  0  0  0
   -0.4921    1.5925    1.3479 H   0  0  0  0  0  0  0  0  0  0  0  0
   -0.4615   -0.0581    2.0495 H   0  0  0  0  0  0  0  0  0  0  0  0
  1  2  1  0  0  0  0
  1 28  1  0  0  0  0
  2  3  2  0  0  0  0
  3 29  1  0  0  0  0
  4 11  1  6  0  0  0
  4  2  1  0  0  0  0
  5  4  1  0  0  0  0
  5 10  2  0  0  0  0
  6  5  1  0  0  0  0
  7  6  2  0  0  0  0
  7  8  1  0  0  0  0
  8  9  2  0  0  0  0
  9 10  1  0  0  0  0
  9 34  1  0  0  0  0
 10  1  1  0  0  0  0
 11 12  1  0  0  0  0
 12 20  2  0  0  0  0
 12 13  1  0  0  0  0
 13 21  1  0  0  0  0
 13 14  1  0  0  0  0
 14 19  1  1  0  0  0
 14 15  1  0  0  0  0
 15 37  1  0  0  0  0
 15 16  2  0  0  0  0
 16 38  1  0  0  0  0
 17 39  1  0  0  0  0
 17 16  1  0  0  0  0
 18 17  2  0  0  0  0
 19 18  1  0  0  0  0
 20 19  2  0  0  0  0
 21 26  2  0  0  0  0
 22 23  2  0  0  0  0
 22 21  1  0  0  0  0
 23 24  1  0  0  0  0
 24 43  1  0  0  0  0
 24 25  2  0  0  0  0
 25 44  1  0  0  0  0
 26 25  1  0  0  0  0
 26 45  1  0  0  0  0
 27  4  1  0  0  0  0
 27 46  1  0  0  0  0
 27 48  1  0  0  0  0
 28 50  1  0  0  0  0
 28 51  1  0  0  0  0
 30  3  1  0  0  0  0
 31  6  1  0  0  0  0
 32  7  1  0  0  0  0
 33  8  1  0  0  0  0
 35 11  1  0  0  0  0
 36 11  1  0  0  0  0
 40 18  1  0  0  0  0
 41 22  1  0  0  0  0
 42 23  1  0  0  0  0
 47 27  1  0  0  0  0
 49 28  1  0  0  0  0
M  RAD  1  14   2
M  END
$$$$
