51
rmsd10.gzmat
N          0.00000        0.00000        0.00000
C          1.42920        0.00000        0.00000
C          2.19640        0.00000        1.09160
C          1.90810       -0.05440       -1.46170
C          0.62510        0.19300       -2.22680
C          0.40860        0.34210       -3.57770
C         -0.90170        0.56420       -4.02700
C         -1.95980        0.62650       -3.12640
C         -1.75660        0.47530       -1.75010
C         -0.45710        0.26060       -1.31010
C          2.42980       -1.46130       -1.83600
C          3.50960       -1.95120       -0.94550
N          3.36970       -3.08810       -0.11050
C          4.59330       -3.26500        0.55020
C          5.03470       -4.19020        1.49780
C          6.33540       -4.05190        1.95220
C          7.18070       -3.02320        1.48630
C          6.75240       -2.09450        0.55320
C          5.44350       -2.21060        0.07760
N          4.73780       -1.43480       -0.84780
C          2.24700       -3.94130        0.03140
C          2.40070       -5.31550       -0.19490
C          1.29760       -6.15190       -0.05500
C          0.05540       -5.62650        0.30010
C         -0.08660       -4.25870        0.52850
C          1.00850       -3.40950        0.40470
C          2.93850        1.03320       -1.73470
C         -0.72420        0.51820        1.15750
H          1.83280        0.05340        2.10030
H          3.27390       -0.06230        1.04340
H          1.23210        0.29490       -4.28710
H         -1.08670        0.68930       -5.09030
H         -2.97120        0.79870       -3.49420
H         -2.59070        0.52060       -1.06060
H          1.57410       -2.17470       -1.85500
H          2.81190       -1.42840       -2.88520
H          4.38020       -4.97510        1.86350
H          6.72290       -4.75170        2.69150
H          8.19490       -2.96490        1.87710
H          7.39550       -1.29640        0.19030
H          3.37080       -5.71910       -0.48130
H          1.40610       -7.22170       -0.22690
H         -0.80390       -6.28550        0.40110
H         -1.05590       -3.84790        0.80910
H          0.90400       -2.34110        0.60630
H          2.58220        2.01670       -1.40960
H          3.18160        1.10020       -2.80110
H          3.88440        0.83170       -1.20340
H         -1.81180        0.41480        1.00500
H         -0.49670        1.57850        1.36300
H         -0.45310       -0.07660        2.05060
