rmsd41.gzmat
 OpenBabel08211713413D

 51 55  0  0  1  0  0  0  0  0999 V2000
    0.0000    0.0000    0.0000 N   0  0  0  0  0  0  0  0  0  0  0  0
    1.4306    0.0000    0.0000 C   0  0  0  0  0  0  0  0  0  0  0  0
    2.1957    0.0000    1.0928 C   0  0  0  0  0  0  0  0  0  0  0  0
    1.9131   -0.0530   -1.4605 C   0  0  2  0  0  0  0  0  0  0  0  0
    0.6287    0.1734   -2.2296 C   0  0  0  0  0  0  0  0  0  0  0  0
    0.4119    0.2973   -3.5831 C   0  0  0  0  0  0  0  0  0  0  0  0
   -0.9002    0.4963   -4.0370 C   0  0  0  0  0  0  0  0  0  0  0  0
   -1.9600    0.5616   -3.1385 C   0  0  0  0  0  0  0  0  0  0  0  0
   -1.7563    0.4357   -1.7597 C   0  0  0  0  0  0  0  0  0  0  0  0
   -0.4550    0.2419   -1.3156 C   0  0  0  0  0  0  0  0  0  0  0  0
    2.4590   -1.4497   -1.8368 C   0  0  0  0  0  0  0  0  0  0  0  0
    3.5353   -1.9298   -0.9373 C   0  0  0  0  0  0  0  0  0  0  0  0
    3.4019   -3.0795   -0.1190 N   0  0  0  0  0  0  0  0  0  0  0  0
    4.6205   -3.2481    0.5528 C   0  0  2  0  0  0  0  0  0  0  0  0
    5.0654   -4.1821    1.4897 C   0  0  0  0  0  0  0  0  0  0  0  0
    6.3579   -4.0299    1.9631 C   0  0  0  0  0  0  0  0  0  0  0  0
    7.1904   -2.9780    1.5277 C   0  0  0  0  0  0  0  0  0  0  0  0
    6.7588   -2.0408    0.6047 C   0  0  0  0  0  0  0  0  0  0  0  0
    5.4591   -2.1722    0.1083 C   0  0  0  0  0  0  0  0  0  0  0  0
    4.7530   -1.3943   -0.8154 N   0  0  0  0  0  0  0  0  0  0  0  0
    2.2937   -3.9561   -0.0158 C   0  0  0  0  0  0  0  0  0  0  0  0
    1.0302   -3.4516    0.3082 C   0  0  0  0  0  0  0  0  0  0  0  0
   -0.0491   -4.3259    0.3902 C   0  0  0  0  0  0  0  0  0  0  0  0
    0.1326   -5.6902    0.1701 C   0  0  0  0  0  0  0  0  0  0  0  0
    1.3991   -6.1880   -0.1352 C   0  0  0  0  0  0  0  0  0  0  0  0
    2.4869   -5.3267   -0.2348 C   0  0  0  0  0  0  0  0  0  0  0  0
    2.9306    1.0475   -1.7308 C   0  0  0  0  0  0  0  0  0  0  0  0
   -0.7186    0.5712    1.1373 C   0  0  0  0  0  0  0  0  0  0  0  0
    1.8303    0.0526    2.1011 H   0  0  0  0  0  0  0  0  0  0  0  0
    3.2734   -0.0615    1.0472 H   0  0  0  0  0  0  0  0  0  0  0  0
    1.2370    0.2470   -4.2908 H   0  0  0  0  0  0  0  0  0  0  0  0
   -1.0869    0.6010   -5.1024 H   0  0  0  0  0  0  0  0  0  0  0  0
   -2.9728    0.7148   -3.5106 H   0  0  0  0  0  0  0  0  0  0  0  0
   -2.5918    0.4819   -1.0719 H   0  0  0  0  0  0  0  0  0  0  0  0
    1.6136   -2.1750   -1.8726 H   0  0  0  0  0  0  0  0  0  0  0  0
    2.8527   -1.4057   -2.8812 H   0  0  0  0  0  0  0  0  0  0  0  0
    4.4201   -4.9843    1.8336 H   0  0  0  0  0  0  0  0  0  0  0  0
    6.7482   -4.7367    2.6943 H   0  0  0  0  0  0  0  0  0  0  0  0
    8.1968   -2.9080    1.9362 H   0  0  0  0  0  0  0  0  0  0  0  0
    7.3916   -1.2242    0.2664 H   0  0  0  0  0  0  0  0  0  0  0  0
    0.8926   -2.3853    0.5038 H   0  0  0  0  0  0  0  0  0  0  0  0
   -1.0379   -3.9371    0.6317 H   0  0  0  0  0  0  0  0  0  0  0  0
   -0.7151   -6.3684    0.2380 H   0  0  0  0  0  0  0  0  0  0  0  0
    1.5392   -7.2553   -0.2995 H   0  0  0  0  0  0  0  0  0  0  0  0
    3.4758   -5.7079   -0.4853 H   0  0  0  0  0  0  0  0  0  0  0  0
    2.5561    2.0292   -1.4233 H   0  0  0  0  0  0  0  0  0  0  0  0
    3.1899    1.1053   -2.7936 H   0  0  0  0  0  0  0  0  0  0  0  0
    3.8707    0.8646   -1.1827 H   0  0  0  0  0  0  0  0  0  0  0  0
   -1.8063    0.4516    0.9981 H   0  0  0  0  0  0  0  0  0  0  0  0
   -0.4991    1.6426    1.2848 H   0  0  0  0  0  0  0  0  0  0  0  0
   -0.4371    0.0249    2.0570 H   0  0  0  0  0  0  0  0  0  0  0  0
  1  2  1  0  0  0  0
  1 28  1  0  0  0  0
  2  3  2  0  0  0  0
  3 29  1  0  0  0  0
  4 11  1  6  0  0  0
  4  2  1  0  0  0  0
  5  4  1  0  0  0  0
  5 10  2  0  0  0  0
  6  5  1  0  0  0  0
  7  6  2  0  0  0  0
  7  8  1  0  0  0  0
  8  9  2  0  0  0  0
  9 10  1  0  0  0  0
  9 34  1  0  0  0  0
 10  1  1  0  0  0  0
 11 12  1  0  0  0  0
 12 20  2  0  0  0  0
 12 13  1  0  0  0  0
 13 21  1  0  0  0  0
 13 14  1  0  0  0  0
 14 19  1  1  0  0  0
 14 15  1  0  0  0  0
 15 37  1  0  0  0  0
 15 16  2  0  0  0  0
 16 38  1  0  0  0  0
 17 39  1  0  0  0  0
 17 16  1  0  0  0  0
 18 17  2  0  0  0  0
 19 18  1  0  0  0  0
 20 19  2  0  0  0  0
 21 22  2  0  0  0  0
 22 23  1  0  0  0  0
 22 41  1  0  0  0  0
 23 42  1  0  0  0  0
 24 43  1  0  0  0  0
 24 23  2  0  0  0  0
 25 24  1  0  0  0  0
 26 25  2  0  0  0  0
 26 21  1  0  0  0  0
 27  4  1  0  0  0  0
 27 46  1  0  0  0  0
 27 48  1  0  0  0  0
 28 50  1  0  0  0  0
 28 51  1  0  0  0  0
 30  3  1  0  0  0  0
 31  6  1  0  0  0  0
 32  7  1  0  0  0  0
 33  8  1  0  0  0  0
 35 11  1  0  0  0  0
 36 11  1  0  0  0  0
 40 18  1  0  0  0  0
 44 25  1  0  0  0  0
 45 26  1  0  0  0  0
 47 27  1  0  0  0  0
 49 28  1  0  0  0  0
M  RAD  1  14   2
M  END
$$$$
