rmsd102.gzmat
 OpenBabel08211713383D

 34 36  0  0  0  0  0  0  0  0999 V2000
    0.0000    0.0000    0.0000 O   0  0  0  0  0  0  0  0  0  0  0  0
    1.3934    0.0000    0.0000 C   0  0  0  0  0  0  0  0  0  0  0  0
    2.0592    0.0000    1.2779 C   0  0  0  0  0  0  0  0  0  0  0  0
    1.3181    0.1277    2.4581 C   0  0  0  0  0  0  0  0  0  0  0  0
    1.9744    0.1199    3.6853 C   0  0  0  0  0  0  0  0  0  0  0  0
    3.3619   -0.0118    3.7360 C   0  0  0  0  0  0  0  0  0  0  0  0
    4.0989   -0.1330    2.5586 C   0  0  0  0  0  0  0  0  0  0  0  0
    3.4518   -0.1274    1.3263 C   0  0  0  0  0  0  0  0  0  0  0  0
    1.8334   -0.0009   -1.2579 N   0  0  0  0  0  0  0  0  0  0  0  0
    0.7586    0.0026   -2.0877 N   0  0  0  0  0  0  0  0  0  0  0  0
   -0.3441    0.0069   -1.3459 C   0  0  0  0  0  0  0  0  0  0  0  0
   -1.7792    0.0498   -1.6678 C   0  0  0  0  0  0  0  0  0  0  0  0
   -2.3104    1.4268   -1.3916 C   0  0  0  0  0  0  0  0  0  0  0  0
   -3.0879    1.6650   -0.2532 C   0  0  0  0  0  0  0  0  0  0  0  0
   -3.5677    2.9384    0.0114 C   0  0  0  0  0  0  0  0  0  0  0  0
   -3.2555    3.9784   -0.8801 C   0  0  0  0  0  0  0  0  0  0  0  0
   -3.7913    5.1696   -0.5062 O   0  0  0  0  0  0  0  0  0  0  0  0
   -3.4798    6.3022   -1.3060 C   0  0  0  0  0  0  0  0  0  0  0  0
   -2.4796    3.7585   -2.0185 C   0  0  0  0  0  0  0  0  0  0  0  0
   -2.0093    2.4711   -2.2656 C   0  0  0  0  0  0  0  0  0  0  0  0
    0.2336    0.2357    2.4162 H   0  0  0  0  0  0  0  0  0  0  0  0
    1.4022    0.2184    4.6062 H   0  0  0  0  0  0  0  0  0  0  0  0
    3.8711   -0.0184    4.6986 H   0  0  0  0  0  0  0  0  0  0  0  0
    5.1823   -0.2319    2.6011 H   0  0  0  0  0  0  0  0  0  0  0  0
    4.0214   -0.2206    0.3982 H   0  0  0  0  0  0  0  0  0  0  0  0
   -2.3339   -0.7239   -1.0859 H   0  0  0  0  0  0  0  0  0  0  0  0
   -1.9393   -0.2250   -2.7406 H   0  0  0  0  0  0  0  0  0  0  0  0
   -3.3153    0.8493    0.4331 H   0  0  0  0  0  0  0  0  0  0  0  0
   -4.1721    3.1462    0.8905 H   0  0  0  0  0  0  0  0  0  0  0  0
   -3.9996    7.1110   -0.7740 H   0  0  0  0  0  0  0  0  0  0  0  0
   -3.8828    6.1885   -2.3169 H   0  0  0  0  0  0  0  0  0  0  0  0
   -2.4009    6.4868   -1.3211 H   0  0  0  0  0  0  0  0  0  0  0  0
   -2.2383    4.5626   -2.7052 H   0  0  0  0  0  0  0  0  0  0  0  0
   -1.3919    2.2832   -3.1467 H   0  0  0  0  0  0  0  0  0  0  0  0
  2  1  1  0  0  0  0
  2  3  1  0  0  0  0
  3  8  2  0  0  0  0
  3  4  1  0  0  0  0
  4  5  2  0  0  0  0
  5  6  1  0  0  0  0
  5 22  1  0  0  0  0
  6 23  1  0  0  0  0
  7 24  1  0  0  0  0
  7  6  2  0  0  0  0
  8  7  1  0  0  0  0
  9  2  2  0  0  0  0
 10 11  2  0  0  0  0
 10  9  1  0  0  0  0
 11  1  1  0  0  0  0
 12 13  1  0  0  0  0
 12 11  1  0  0  0  0
 12 26  1  0  0  0  0
 13 14  2  0  0  0  0
 14 15  1  0  0  0  0
 14 28  1  0  0  0  0
 15 29  1  0  0  0  0
 16 17  1  0  0  0  0
 16 15  2  0  0  0  0
 18 30  1  0  0  0  0
 18 17  1  0  0  0  0
 19 16  1  0  0  0  0
 20 19  2  0  0  0  0
 20 13  1  0  0  0  0
 21  4  1  0  0  0  0
 25  8  1  0  0  0  0
 27 12  1  0  0  0  0
 31 18  1  0  0  0  0
 32 18  1  0  0  0  0
 33 19  1  0  0  0  0
 34 20  1  0  0  0  0
M  END
$$$$
