34
rmsd18.gzmat
O          0.00000        0.00000        0.00000
C          1.39410        0.00000        0.00000
C          2.06320        0.00000        1.27660
C          3.44130       -0.24010        1.33140
C          4.09090       -0.23660        2.56250
C          3.37190        0.00640        3.73210
C          1.99850        0.24390        3.67570
C          1.33950        0.23970        2.45000
N          1.83280        0.00090       -1.25760
N          0.75760        0.00150       -2.08710
C         -0.34550       -0.00390       -1.34590
C         -1.78160       -0.02600       -1.66660
C         -2.20680       -1.41280       -2.05750
C         -3.12510       -2.11650       -1.27170
C         -3.52120       -3.39510       -1.63490
C         -2.98650       -3.96450       -2.80220
O         -3.46280       -5.21420       -3.04270
C         -2.94080       -5.90560       -4.16880
C         -2.07060       -3.27590       -3.59790
C         -1.68250       -1.99590       -3.21150
H          3.99860       -0.42780        0.41000
H          5.16270       -0.42390        2.61010
H          3.88310        0.01110        4.69370
H          1.43940        0.43310        4.59070
H          0.26570        0.42270        2.40430
H         -1.99590        0.68650       -2.50310
H         -2.37800        0.35170       -0.80250
H         -3.53370       -1.66550       -0.36730
H         -4.22900       -3.96090       -1.03510
H         -3.46280       -6.87070       -4.10920
H         -1.86040       -6.05110       -4.07260
H         -3.19710       -5.39000       -5.09870
H         -1.65820       -3.71490       -4.49930
H         -0.94990       -1.45000       -3.81250
