34
rmsd121.gzmat
O          0.00000        0.00000        0.00000
C          1.39340        0.00000        0.00000
C          2.05940        0.00000        1.27770
C          1.32210       -0.15990        2.45640
C          1.97870       -0.15220        3.68340
C          3.36320        0.00950        3.73540
C          4.09690        0.16410        2.55950
C          3.44950        0.16050        1.32740
N          1.83330        0.00260       -1.25770
N          0.75840        0.00140       -2.08730
C         -0.34440       -0.00340       -1.34560
C         -1.77880       -0.04310       -1.67020
C         -2.29940       -1.44020       -1.49190
C         -3.24580       -1.71830       -0.50030
C         -3.72450       -3.00890       -0.33360
C         -3.24310       -4.02430       -1.17640
O         -3.79770       -5.23560       -0.90920
C         -3.37960       -6.33320       -1.70890
C         -2.29460       -3.76510       -2.16660
C         -1.82650       -2.46250       -2.31560
H          0.24040       -0.29340        2.41340
H          1.40910       -0.27360        4.60320
H          3.87330        0.01370        4.69770
H          5.17800        0.28820        2.60320
H          4.01660        0.27990        0.40060
H         -1.94310        0.29750       -2.72390
H         -2.34050        0.68500       -1.03850
H         -3.60950       -0.92080        0.14850
H         -4.45700       -3.24820        0.43320
H         -3.95790       -7.16410       -1.28180
H         -2.30670       -6.51660       -1.59450
H         -3.65150       -6.17710       -2.75710
H         -1.91760       -4.55080       -2.81230
H         -1.07500       -2.24350       -3.07830
