34
rmsd120.gzmat
O          0.00000        0.00000        0.00000
C          1.39350        0.00000        0.00000
C          2.06270        0.00000        1.27620
C          1.32490       -0.10700        2.46050
C          1.98710       -0.10410        3.68460
C          3.37710        0.00330        3.72840
C          4.11090        0.10840        2.54740
C          3.45800        0.10660        1.31820
N          1.83300        0.00090       -1.25770
N          0.75810       -0.00150       -2.08730
C         -0.34470       -0.00560       -1.34570
C         -1.77890       -0.04310       -1.67100
C         -2.27670       -1.45850       -1.60560
C         -3.19890       -1.83540       -0.62370
C         -3.66530       -3.13990       -0.56670
C         -3.19200       -4.07010       -1.50680
O         -3.73680       -5.30410       -1.34380
C         -3.31340       -6.32520       -2.23630
C         -2.26430       -3.71320       -2.48610
C         -1.81130       -2.39700       -2.52670
H          0.23820       -0.19400        2.42440
H          1.41780       -0.18610        4.60900
H          3.89050        0.00460        4.68870
H          5.19610        0.19110        2.58490
H          4.02470        0.18650        0.38690
H         -1.95110        0.37810       -2.69380
H         -2.35160        0.62290       -0.98320
H         -3.55450       -1.10480        0.10330
H         -4.38270       -3.45370        0.18730
H         -3.89630       -7.19010       -1.89030
H         -2.24140       -6.51790       -2.12840
H         -3.57560       -6.07650       -3.26920
H         -1.89330       -4.43430       -3.20610
H         -1.07960       -2.10070       -3.28240
