34
rmsd124.gzmat
O          0.00000        0.00000        0.00000
C          1.39400        0.00000        0.00000
C          2.05540        0.00000        1.28040
C          1.35050       -0.35730        2.43500
C          1.99430       -0.32800        3.66850
C          3.33330        0.05400        3.74960
C          4.03720        0.39780        2.59610
C          3.40300        0.36980        1.35740
N          1.83370        0.02080       -1.25680
N          0.75850        0.03690       -2.08650
C         -0.34460        0.02200       -1.34520
C         -1.77990        0.01150       -1.66810
C         -2.24920       -1.39560       -1.90260
C         -3.21160       -1.96440       -1.06240
C         -3.64870       -3.26260       -1.27840
C         -3.10480       -3.99100       -2.34890
O         -3.61970       -5.24490       -2.44710
C         -3.04360       -6.10900       -3.41690
C         -2.14630       -3.43740       -3.19830
C         -1.72380       -2.13150       -2.96480
H          0.30460       -0.65920        2.36730
H          1.45090       -0.60380        4.57080
H          3.83080        0.08310        4.71790
H          5.08390        0.69050        2.66280
H          3.94670        0.63320        0.44700
H         -1.96940        0.63290       -2.58000
H         -2.36420        0.50170       -0.85340
H         -3.62220       -1.39020       -0.23170
H         -4.39460       -3.72390       -0.63670
H         -3.56500       -7.05620       -3.22190
H         -1.96760       -6.22360       -3.25340
H         -3.26000       -5.75510       -4.42900
H         -1.72830       -3.99910       -4.02640
H         -0.96610       -1.68400       -3.61390
