rmsd145.gzmat
 OpenBabel08211713383D

 34 36  0  0  0  0  0  0  0  0999 V2000
    0.0000    0.0000    0.0000 O   0  0  0  0  0  0  0  0  0  0  0  0
    1.3934    0.0000    0.0000 C   0  0  0  0  0  0  0  0  0  0  0  0
    2.0624    0.0000    1.2764 C   0  0  0  0  0  0  0  0  0  0  0  0
    1.3222   -0.0649    2.4622 C   0  0  0  0  0  0  0  0  0  0  0  0
    1.9846   -0.0715    3.6860 C   0  0  0  0  0  0  0  0  0  0  0  0
    3.3775   -0.0142    3.7283 C   0  0  0  0  0  0  0  0  0  0  0  0
    4.1135    0.0536    2.5460 C   0  0  0  0  0  0  0  0  0  0  0  0
    3.4602    0.0612    1.3171 C   0  0  0  0  0  0  0  0  0  0  0  0
    1.8317    0.0048   -1.2580 N   0  0  0  0  0  0  0  0  0  0  0  0
    0.7562    0.0107   -2.0875 N   0  0  0  0  0  0  0  0  0  0  0  0
   -0.3463    0.0047   -1.3461 C   0  0  0  0  0  0  0  0  0  0  0  0
   -1.7831   -0.0092   -1.6628 C   0  0  0  0  0  0  0  0  0  0  0  0
   -2.2263   -1.4073   -1.9865 C   0  0  0  0  0  0  0  0  0  0  0  0
   -3.0558   -2.1054   -1.1029 C   0  0  0  0  0  0  0  0  0  0  0  0
   -3.4785   -3.3903   -1.4081 C   0  0  0  0  0  0  0  0  0  0  0  0
   -3.0585   -3.9731   -2.6151 C   0  0  0  0  0  0  0  0  0  0  0  0
   -3.5531   -5.2260   -2.7926 O   0  0  0  0  0  0  0  0  0  0  0  0
   -3.2042   -5.9010   -3.9931 C   0  0  0  0  0  0  0  0  0  0  0  0
   -2.2207   -3.2954   -3.5014 C   0  0  0  0  0  0  0  0  0  0  0  0
   -1.8065   -2.0069   -3.1736 C   0  0  0  0  0  0  0  0  0  0  0  0
    0.2334   -0.1136    2.4278 H   0  0  0  0  0  0  0  0  0  0  0  0
    1.4133   -0.1245    4.6113 H   0  0  0  0  0  0  0  0  0  0  0  0
    3.8918   -0.0249    4.6881 H   0  0  0  0  0  0  0  0  0  0  0  0
    5.2010    0.0978    2.5818 H   0  0  0  0  0  0  0  0  0  0  0  0
    4.0294    0.1118    0.3850 H   0  0  0  0  0  0  0  0  0  0  0  0
   -1.9904    0.6696   -2.5285 H   0  0  0  0  0  0  0  0  0  0  0  0
   -2.3729    0.4153   -0.8157 H   0  0  0  0  0  0  0  0  0  0  0  0
   -3.3743   -1.6420   -0.1691 H   0  0  0  0  0  0  0  0  0  0  0  0
   -4.1220   -3.9513   -0.7357 H   0  0  0  0  0  0  0  0  0  0  0  0
   -3.7425   -6.8531   -3.8868 H   0  0  0  0  0  0  0  0  0  0  0  0
   -2.1248   -6.0756   -4.0429 H   0  0  0  0  0  0  0  0  0  0  0  0
   -3.5648   -5.3550   -4.8700 H   0  0  0  0  0  0  0  0  0  0  0  0
   -1.8874   -3.7490   -4.4281 H   0  0  0  0  0  0  0  0  0  0  0  0
   -1.1378   -1.4667   -3.8488 H   0  0  0  0  0  0  0  0  0  0  0  0
  1  2  1  0  0  0  0
  2  3  1  0  0  0  0
  3  8  2  0  0  0  0
  3  4  1  0  0  0  0
  4  5  2  0  0  0  0
  5  6  1  0  0  0  0
  5 22  1  0  0  0  0
  6 23  1  0  0  0  0
  7 24  1  0  0  0  0
  7  6  2  0  0  0  0
  8  7  1  0  0  0  0
  9  2  2  0  0  0  0
 10 11  2  0  0  0  0
 10  9  1  0  0  0  0
 11  1  1  0  0  0  0
 12 11  1  0  0  0  0
 12 27  1  0  0  0  0
 13 12  1  0  0  0  0
 13 14  2  0  0  0  0
 14 28  1  0  0  0  0
 15 14  1  0  0  0  0
 15 29  1  0  0  0  0
 16 15  2  0  0  0  0
 17 16  1  0  0  0  0
 18 30  1  0  0  0  0
 18 17  1  0  0  0  0
 19 20  2  0  0  0  0
 19 16  1  0  0  0  0
 20 13  1  0  0  0  0
 21  4  1  0  0  0  0
 25  8  1  0  0  0  0
 26 12  1  0  0  0  0
 31 18  1  0  0  0  0
 32 18  1  0  0  0  0
 33 19  1  0  0  0  0
 34 20  1  0  0  0  0
M  END
$$$$
