34
rmsd145.gzmat
O          0.00000        0.00000        0.00000
C          1.39340        0.00000        0.00000
C          2.06240        0.00000        1.27640
C          1.32220       -0.06490        2.46220
C          1.98460       -0.07150        3.68600
C          3.37750       -0.01420        3.72830
C          4.11350        0.05360        2.54600
C          3.46020        0.06120        1.31710
N          1.83170        0.00480       -1.25800
N          0.75620        0.01070       -2.08750
C         -0.34630        0.00470       -1.34610
C         -1.78310       -0.00920       -1.66280
C         -2.22630       -1.40730       -1.98650
C         -3.05580       -2.10540       -1.10290
C         -3.47850       -3.39030       -1.40810
C         -3.05850       -3.97310       -2.61510
O         -3.55310       -5.22600       -2.79260
C         -3.20420       -5.90100       -3.99310
C         -2.22070       -3.29540       -3.50140
C         -1.80650       -2.00690       -3.17360
H          0.23340       -0.11360        2.42780
H          1.41330       -0.12450        4.61130
H          3.89180       -0.02490        4.68810
H          5.20100        0.09780        2.58180
H          4.02940        0.11180        0.38500
H         -1.99040        0.66960       -2.52850
H         -2.37290        0.41530       -0.81570
H         -3.37430       -1.64200       -0.16910
H         -4.12200       -3.95130       -0.73570
H         -3.74250       -6.85310       -3.88680
H         -2.12480       -6.07560       -4.04290
H         -3.56480       -5.35500       -4.87000
H         -1.88740       -3.74900       -4.42810
H         -1.13780       -1.46670       -3.84880
