rmsd18.gzmat
 OpenBabel08211713383D

 34 36  0  0  0  0  0  0  0  0999 V2000
    0.0000    0.0000    0.0000 O   0  0  0  0  0  0  0  0  0  0  0  0
    1.3941    0.0000    0.0000 C   0  0  0  0  0  0  0  0  0  0  0  0
    2.0632    0.0000    1.2766 C   0  0  0  0  0  0  0  0  0  0  0  0
    3.4413   -0.2401    1.3314 C   0  0  0  0  0  0  0  0  0  0  0  0
    4.0909   -0.2366    2.5625 C   0  0  0  0  0  0  0  0  0  0  0  0
    3.3719    0.0064    3.7321 C   0  0  0  0  0  0  0  0  0  0  0  0
    1.9985    0.2439    3.6757 C   0  0  0  0  0  0  0  0  0  0  0  0
    1.3395    0.2397    2.4500 C   0  0  0  0  0  0  0  0  0  0  0  0
    1.8328    0.0009   -1.2576 N   0  0  0  0  0  0  0  0  0  0  0  0
    0.7576    0.0015   -2.0871 N   0  0  0  0  0  0  0  0  0  0  0  0
   -0.3455   -0.0039   -1.3459 C   0  0  0  0  0  0  0  0  0  0  0  0
   -1.7816   -0.0260   -1.6666 C   0  0  0  0  0  0  0  0  0  0  0  0
   -2.2068   -1.4128   -2.0575 C   0  0  0  0  0  0  0  0  0  0  0  0
   -3.1251   -2.1165   -1.2717 C   0  0  0  0  0  0  0  0  0  0  0  0
   -3.5212   -3.3951   -1.6349 C   0  0  0  0  0  0  0  0  0  0  0  0
   -2.9865   -3.9645   -2.8022 C   0  0  0  0  0  0  0  0  0  0  0  0
   -3.4628   -5.2142   -3.0427 O   0  0  0  0  0  0  0  0  0  0  0  0
   -2.9408   -5.9056   -4.1688 C   0  0  0  0  0  0  0  0  0  0  0  0
   -2.0706   -3.2759   -3.5979 C   0  0  0  0  0  0  0  0  0  0  0  0
   -1.6825   -1.9959   -3.2115 C   0  0  0  0  0  0  0  0  0  0  0  0
    3.9986   -0.4278    0.4100 H   0  0  0  0  0  0  0  0  0  0  0  0
    5.1627   -0.4239    2.6101 H   0  0  0  0  0  0  0  0  0  0  0  0
    3.8831    0.0111    4.6937 H   0  0  0  0  0  0  0  0  0  0  0  0
    1.4394    0.4331    4.5907 H   0  0  0  0  0  0  0  0  0  0  0  0
    0.2657    0.4227    2.4043 H   0  0  0  0  0  0  0  0  0  0  0  0
   -1.9959    0.6865   -2.5031 H   0  0  0  0  0  0  0  0  0  0  0  0
   -2.3780    0.3517   -0.8025 H   0  0  0  0  0  0  0  0  0  0  0  0
   -3.5337   -1.6655   -0.3673 H   0  0  0  0  0  0  0  0  0  0  0  0
   -4.2290   -3.9609   -1.0351 H   0  0  0  0  0  0  0  0  0  0  0  0
   -3.4628   -6.8707   -4.1092 H   0  0  0  0  0  0  0  0  0  0  0  0
   -1.8604   -6.0511   -4.0726 H   0  0  0  0  0  0  0  0  0  0  0  0
   -3.1971   -5.3900   -5.0987 H   0  0  0  0  0  0  0  0  0  0  0  0
   -1.6582   -3.7149   -4.4993 H   0  0  0  0  0  0  0  0  0  0  0  0
   -0.9499   -1.4500   -3.8125 H   0  0  0  0  0  0  0  0  0  0  0  0
  2  1  1  0  0  0  0
  2  3  1  0  0  0  0
  3  4  2  0  0  0  0
  3  8  1  0  0  0  0
  4  5  1  0  0  0  0
  5 22  1  0  0  0  0
  5  6  2  0  0  0  0
  6 23  1  0  0  0  0
  7  6  1  0  0  0  0
  7 24  1  0  0  0  0
  8  7  2  0  0  0  0
  9  2  2  0  0  0  0
 10 11  2  0  0  0  0
 10  9  1  0  0  0  0
 11  1  1  0  0  0  0
 12 11  1  0  0  0  0
 12 27  1  0  0  0  0
 13 12  1  0  0  0  0
 13 14  2  0  0  0  0
 14 28  1  0  0  0  0
 15 14  1  0  0  0  0
 15 29  1  0  0  0  0
 16 15  2  0  0  0  0
 17 16  1  0  0  0  0
 18 30  1  0  0  0  0
 18 31  1  0  0  0  0
 18 17  1  0  0  0  0
 19 20  2  0  0  0  0
 19 16  1  0  0  0  0
 20 13  1  0  0  0  0
 21  4  1  0  0  0  0
 25  8  1  0  0  0  0
 26 12  1  0  0  0  0
 32 18  1  0  0  0  0
 33 19  1  0  0  0  0
 34 20  1  0  0  0  0
M  END
$$$$
