rmsd19.gzmat
 OpenBabel08211713383D

 34 36  0  0  0  0  0  0  0  0999 V2000
    0.0000    0.0000    0.0000 O   0  0  0  0  0  0  0  0  0  0  0  0
    1.3935    0.0000    0.0000 C   0  0  0  0  0  0  0  0  0  0  0  0
    2.0633    0.0000    1.2758 C   0  0  0  0  0  0  0  0  0  0  0  0
    3.4628    0.0038    1.3139 C   0  0  0  0  0  0  0  0  0  0  0  0
    4.1168    0.0007    2.5423 C   0  0  0  0  0  0  0  0  0  0  0  0
    3.3808   -0.0077    3.7266 C   0  0  0  0  0  0  0  0  0  0  0  0
    1.9866   -0.0086    3.6865 C   0  0  0  0  0  0  0  0  0  0  0  0
    1.3228   -0.0055    2.4630 C   0  0  0  0  0  0  0  0  0  0  0  0
    1.8328    0.0007   -1.2580 N   0  0  0  0  0  0  0  0  0  0  0  0
    0.7577   -0.0003   -2.0875 N   0  0  0  0  0  0  0  0  0  0  0  0
   -0.3450   -0.0046   -1.3456 C   0  0  0  0  0  0  0  0  0  0  0  0
   -1.7802   -0.0423   -1.6677 C   0  0  0  0  0  0  0  0  0  0  0  0
   -2.2480   -1.4678   -1.7440 C   0  0  0  0  0  0  0  0  0  0  0  0
   -3.1864   -1.9521   -0.8268 C   0  0  0  0  0  0  0  0  0  0  0  0
   -3.6237   -3.2660   -0.9020 C   0  0  0  0  0  0  0  0  0  0  0  0
   -3.1064   -4.0959   -1.9104 C   0  0  0  0  0  0  0  0  0  0  0  0
   -3.6208   -5.3528   -1.8715 O   0  0  0  0  0  0  0  0  0  0  0  0
   -3.1516   -6.2789   -2.8414 C   0  0  0  0  0  0  0  0  0  0  0  0
   -2.1655   -3.6303   -2.8297 C   0  0  0  0  0  0  0  0  0  0  0  0
   -1.7399   -2.3080   -2.7354 C   0  0  0  0  0  0  0  0  0  0  0  0
    4.0319    0.0086    0.3804 H   0  0  0  0  0  0  0  0  0  0  0  0
    5.2051    0.0056    2.5765 H   0  0  0  0  0  0  0  0  0  0  0  0
    3.8967   -0.0146    4.6859 H   0  0  0  0  0  0  0  0  0  0  0  0
    1.4143   -0.0107    4.6131 H   0  0  0  0  0  0  0  0  0  0  0  0
    0.2325   -0.0083    2.4299 H   0  0  0  0  0  0  0  0  0  0  0  0
   -1.9683    0.4743   -2.6431 H   0  0  0  0  0  0  0  0  0  0  0  0
   -2.3635    0.5376   -0.9139 H   0  0  0  0  0  0  0  0  0  0  0  0
   -3.5787   -1.2986   -0.0472 H   0  0  0  0  0  0  0  0  0  0  0  0
   -4.3522   -3.6636   -0.1998 H   0  0  0  0  0  0  0  0  0  0  0  0
   -3.7051   -7.1907   -2.5773 H   0  0  0  0  0  0  0  0  0  0  0  0
   -2.0744   -6.4434   -2.7373 H   0  0  0  0  0  0  0  0  0  0  0  0
   -3.4141   -5.9522   -3.8520 H   0  0  0  0  0  0  0  0  0  0  0  0
   -1.7635   -4.2725   -3.6055 H   0  0  0  0  0  0  0  0  0  0  0  0
   -0.9932   -1.9299   -3.4389 H   0  0  0  0  0  0  0  0  0  0  0  0
  2  1  1  0  0  0  0
  2  3  1  0  0  0  0
  3  4  2  0  0  0  0
  3  8  1  0  0  0  0
  4  5  1  0  0  0  0
  5 22  1  0  0  0  0
  5  6  2  0  0  0  0
  6 23  1  0  0  0  0
  7  6  1  0  0  0  0
  7 24  1  0  0  0  0
  8  7  2  0  0  0  0
  9  2  2  0  0  0  0
 10 11  2  0  0  0  0
 10  9  1  0  0  0  0
 11  1  1  0  0  0  0
 12 11  1  0  0  0  0
 12 27  1  0  0  0  0
 13 12  1  0  0  0  0
 13 14  2  0  0  0  0
 14 28  1  0  0  0  0
 15 14  1  0  0  0  0
 15 29  1  0  0  0  0
 16 17  1  0  0  0  0
 16 15  2  0  0  0  0
 18 31  1  0  0  0  0
 18 30  1  0  0  0  0
 18 17  1  0  0  0  0
 19 20  2  0  0  0  0
 19 16  1  0  0  0  0
 20 13  1  0  0  0  0
 21  4  1  0  0  0  0
 25  8  1  0  0  0  0
 26 12  1  0  0  0  0
 32 18  1  0  0  0  0
 33 19  1  0  0  0  0
 34 20  1  0  0  0  0
M  END
$$$$
