
     RDKit          3D

 50 52  0  0  0  0  0  0  0  0999 V2000
   -0.0503    0.0025    0.0720 N   0  0  0  0  0  0  0  0  0  0  0  0
    1.3266    0.0427    0.1330 N   0  0  0  0  0  0  0  0  0  0  0  0
    1.9431    0.0093    1.3995 C   0  0  0  0  0  0  0  0  0  0  0  0
    1.2991   -0.5504    2.5129 C   0  0  0  0  0  0  0  0  0  0  0  0
    1.9542   -0.5862    3.7456 C   0  0  0  0  0  0  0  0  0  0  0  0
    3.2478   -0.0770    3.8860 C   0  0  0  0  0  0  0  0  0  0  0  0
    3.8868    0.4742    2.7709 C   0  0  0  0  0  0  0  0  0  0  0  0
    3.2427    0.5206    1.5353 C   0  0  0  0  0  0  0  0  0  0  0  0
   -0.7636   -1.1506   -0.1262 C   0  0  0  0  0  0  0  0  0  0  0  0
   -2.1045   -0.8227   -0.1242 C   0  0  0  0  0  0  0  0  0  0  0  0
   -2.1984    0.6007    0.0686 C   0  0  0  0  0  0  0  0  0  0  0  0
   -0.9033    1.0946    0.1947 C   0  0  0  0  0  0  0  0  0  0  0  0
   -0.3815    2.4572    0.4319 C   0  0  0  0  0  0  0  0  0  0  0  0
   -0.5429    3.4529   -0.5469 C   0  0  0  0  0  0  0  0  0  0  0  0
   -0.0543    4.7421   -0.3329 C   0  0  0  0  0  0  0  0  0  0  0  0
    0.6040    5.0550    0.8606 C   0  0  0  0  0  0  0  0  0  0  0  0
    0.7694    4.0721    1.8399 C   0  0  0  0  0  0  0  0  0  0  0  0
    0.2794    2.7817    1.6291 C   0  0  0  0  0  0  0  0  0  0  0  0
   -3.4321    1.3769    0.3333 C   0  0  0  0  0  0  0  0  0  0  0  0
   -4.3645    0.9909    0.9977 O   0  0  0  0  0  0  0  0  0  0  0  0
   -3.3684    2.6062   -0.2208 O   0  0  0  0  0  0  0  0  0  0  0  0
   -4.3793    3.5539    0.1550 C   0  0  0  0  0  0  0  0  0  0  0  0
   -4.0107    4.2456    1.4563 C   0  0  0  0  0  0  0  0  0  0  0  0
   -3.1783   -1.8105   -0.3464 C   0  0  0  0  0  0  0  0  0  0  0  0
   -3.0669   -2.9983   -0.1368 O   0  0  0  0  0  0  0  0  0  0  0  0
   -4.2833   -1.2303   -0.8427 O   0  0  0  0  0  0  0  0  0  0  0  0
   -5.4792   -2.0204   -0.9032 C   0  0  0  0  0  0  0  0  0  0  0  0
   -6.1769   -2.0400    0.4462 C   0  0  0  0  0  0  0  0  0  0  0  0
    1.7151    0.7220   -0.5147 H   0  0  0  0  0  0  0  0  0  0  0  0
    0.2883   -0.9485    2.4157 H   0  0  0  0  0  0  0  0  0  0  0  0
    1.4407   -1.0206    4.6067 H   0  0  0  0  0  0  0  0  0  0  0  0
    3.7530   -0.1086    4.8533 H   0  0  0  0  0  0  0  0  0  0  0  0
    4.8968    0.8808    2.8628 H   0  0  0  0  0  0  0  0  0  0  0  0
    3.7422    0.9647    0.6701 H   0  0  0  0  0  0  0  0  0  0  0  0
   -0.2659   -2.1040   -0.2769 H   0  0  0  0  0  0  0  0  0  0  0  0
   -1.0704    3.2072   -1.4688 H   0  0  0  0  0  0  0  0  0  0  0  0
   -0.1885    5.5071   -1.1015 H   0  0  0  0  0  0  0  0  0  0  0  0
    0.9860    6.0651    1.0275 H   0  0  0  0  0  0  0  0  0  0  0  0
    1.2779    4.3093    2.7771 H   0  0  0  0  0  0  0  0  0  0  0  0
    0.3989    2.0225    2.4021 H   0  0  0  0  0  0  0  0  0  0  0  0
   -5.3453    3.0354    0.2378 H   0  0  0  0  0  0  0  0  0  0  0  0
   -4.4224    4.2664   -0.6812 H   0  0  0  0  0  0  0  0  0  0  0  0
   -3.9897    3.5214    2.2841 H   0  0  0  0  0  0  0  0  0  0  0  0
   -4.7542    5.0216    1.6986 H   0  0  0  0  0  0  0  0  0  0  0  0
   -3.0204    4.7203    1.3780 H   0  0  0  0  0  0  0  0  0  0  0  0
   -5.2244   -3.0364   -1.2397 H   0  0  0  0  0  0  0  0  0  0  0  0
   -6.0985   -1.5318   -1.6689 H   0  0  0  0  0  0  0  0  0  0  0  0
   -5.5689   -2.5824    1.1852 H   0  0  0  0  0  0  0  0  0  0  0  0
   -7.1521   -2.5460    0.3634 H   0  0  0  0  0  0  0  0  0  0  0  0
   -6.3304   -1.0135    0.8099 H   0  0  0  0  0  0  0  0  0  0  0  0
  1  2  1  0
  1  9  1  0
  1 12  1  0
  2  3  1  0
  2 29  1  0
  3  4  2  0
  3  8  1  0
  4  5  1  0
  4 30  1  0
  5  6  2  0
  5 31  1  0
  6  7  1  0
  6 32  1  0
  7  8  2  0
  7 33  1  0
  8 34  1  0
  9 10  2  0
  9 35  1  0
 10 11  1  0
 10 24  1  0
 11 12  2  0
 11 19  1  0
 12 13  1  0
 13 14  2  0
 13 18  1  0
 14 15  1  0
 14 36  1  0
 15 16  2  0
 15 37  1  0
 16 17  1  0
 16 38  1  0
 17 18  2  0
 17 39  1  0
 18 40  1  0
 19 20  2  0
 19 21  1  0
 21 22  1  0
 22 23  1  0
 22 41  1  0
 22 42  1  0
 23 43  1  0
 23 44  1  0
 23 45  1  0
 24 25  2  0
 24 26  1  0
 26 27  1  0
 27 28  1  0
 27 46  1  0
 27 47  1  0
 28 48  1  0
 28 49  1  0
 28 50  1  0
M  END

