50
rmsd93.gzmat
N          0.00000        0.00000        0.00000
N          1.39860        0.00000        0.00000
C          1.98050        0.00000        1.32000
C          3.17600        0.70470        1.51180
C          3.80850        0.64400        2.74980
C          3.25370       -0.10190        3.78870
C          2.06660       -0.80440        3.58690
C          1.42490       -0.76250        2.35290
C         -0.71290       -1.04540       -0.55700
C         -2.06390       -0.80840       -0.28220
C         -2.15170        0.38820        0.48930
C         -0.86130        0.88220        0.67320
C         -0.39320        2.04710        1.40090
C          0.39510        3.01330        0.76850
C          0.88010        4.09470        1.49790
C          0.56990        4.21900        2.85210
C         -0.24340        3.27310        3.47360
C         -0.73080        2.18770        2.75030
C         -3.36890        0.99880        1.02790
O         -3.62040        1.18180        2.19300
O         -4.17360        1.38980        0.01490
C         -5.47160        1.87720        0.37180
C         -6.35790        0.71360        0.78000
C         -3.17210       -1.65260       -0.69180
O         -4.29920       -1.67260       -0.26680
O         -2.75460       -2.49690       -1.67970
C         -3.70070       -3.44980       -2.16190
C         -3.81150       -4.60730       -1.18190
H          1.72810        0.79670       -0.57570
H          3.60970        1.29700        0.70990
H          4.73900        1.18940        2.90700
H          3.74710       -0.13540        4.75810
H          1.63430       -1.38840        4.39990
H          0.49680       -1.31460        2.19790
H         -0.24880       -1.85270       -1.09970
H          0.61240        2.93100       -0.29370
H          1.49860        4.84600        1.01080
H          0.95820        5.06130        3.42200
H         -0.50290        3.38200        4.52590
H         -1.38420        1.45090        3.22810
H         -5.78970        2.34880       -0.57640
H         -5.37610        2.63830        1.16590
H         -6.22040       -0.14190        0.09850
H         -7.41660        0.98390        0.77850
H         -6.09900        0.34830        1.78430
H         -3.24390       -3.74570       -3.12460
H         -4.67250       -2.95450       -2.33950
H         -2.82570       -5.02090       -0.93840
H         -4.42820       -5.41660       -1.58540
H         -4.27060       -4.27930       -0.23740
