50

N         -0.01530        0.13340        0.15690
N          1.36180        0.15310        0.14140
C          2.06710       -0.02610        1.34460
C          3.42180        0.34060        1.39220
C          4.15720        0.14960        2.56060
C          3.55880       -0.40700        3.69590
C          2.21100       -0.76980        3.64400
C          1.46170       -0.58550        2.47960
C         -0.73980       -1.00800       -0.05580
C         -2.08000       -0.67100       -0.01940
C         -2.15710        0.74810        0.19700
C         -0.86010        1.23570        0.31040
C         -0.34500        2.59930        0.52290
C         -0.81880        3.65850       -0.27440
C         -0.32940        4.95270       -0.09220
C          0.64160        5.21190        0.87890
C          1.11230        4.16850        1.68110
C          0.62080        2.87410        1.51070
C         -3.40450        1.54000        0.34060
O         -3.65580        2.55990       -0.26330
O         -4.22360        0.98500        1.24270
C         -5.54510        1.53490        1.35720
C         -5.57760        2.72260        2.30280
C         -3.20350       -1.57990       -0.29960
O         -4.33020       -1.23530       -0.57560
O         -2.81270       -2.87410       -0.23920
C         -3.79590       -3.86520       -0.57360
C         -3.91140       -4.05710       -2.07610
H          1.73200        0.86110       -0.48530
H          3.89290        0.78230        0.51010
H          5.20930        0.44360        2.58370
H          4.13700       -0.55360        4.61020
H          1.72700       -1.20270        4.52280
H          0.40850       -0.86690        2.45330
H         -0.24640       -1.95660       -0.24270
H         -1.58710        3.45760       -1.01990
H         -0.70990        5.76400       -0.71720
H          1.02540        6.22580        1.01570
H          1.85940        4.36270        2.45440
H          0.97130        2.07830        2.16710
H         -6.15910        0.70260        1.72920
H         -5.89840        1.81780        0.35480
H         -5.17890        2.44680        3.29150
H         -6.61430        3.07220        2.43370
H         -4.98070        3.55270        1.89850
H         -4.76320       -3.56810       -0.14230
H         -3.44790       -4.78280       -0.07780
H         -4.28670       -3.14070       -2.55410
H         -4.61520       -4.87480       -2.29920
H         -2.93430       -4.31280       -2.51490
