rmsd195.gzmat
 OpenBabel08211713403D

 50 52  0  0  0  0  0  0  0  0999 V2000
    0.0000    0.0000    0.0000 N   0  0  0  0  0  0  0  0  0  0  0  0
    1.3987    0.0000    0.0000 N   0  0  0  0  0  0  0  0  0  0  0  0
    1.9810    0.0000    1.3196 C   0  0  0  0  0  0  0  0  0  0  0  0
    3.1660    0.7198    1.5183 C   0  0  0  0  0  0  0  0  0  0  0  0
    3.8021    0.6533    2.7542 C   0  0  0  0  0  0  0  0  0  0  0  0
    3.2604   -0.1129    3.7851 C   0  0  0  0  0  0  0  0  0  0  0  0
    2.0816   -0.8272    3.5778 C   0  0  0  0  0  0  0  0  0  0  0  0
    1.4363   -0.7794    2.3462 C   0  0  0  0  0  0  0  0  0  0  0  0
   -0.7130   -1.0398   -0.5688 C   0  0  0  0  0  0  0  0  0  0  0  0
   -2.0641   -0.8006   -0.2994 C   0  0  0  0  0  0  0  0  0  0  0  0
   -2.1539    0.3944    0.4743 C   0  0  0  0  0  0  0  0  0  0  0  0
   -0.8627    0.8820    0.6708 C   0  0  0  0  0  0  0  0  0  0  0  0
   -0.3957    2.0360    1.4162 C   0  0  0  0  0  0  0  0  0  0  0  0
    0.3858    3.0173    0.7999 C   0  0  0  0  0  0  0  0  0  0  0  0
    0.8708    4.0847    1.5502 C   0  0  0  0  0  0  0  0  0  0  0  0
    0.5681    4.1787    2.9083 C   0  0  0  0  0  0  0  0  0  0  0  0
   -0.2405    3.2182    3.5133 C   0  0  0  0  0  0  0  0  0  0  0  0
   -0.7304    2.1487    2.7689 C   0  0  0  0  0  0  0  0  0  0  0  0
   -3.3772    1.0131    0.9878 C   0  0  0  0  0  0  0  0  0  0  0  0
   -3.6319    1.2549    2.1411 O   0  0  0  0  0  0  0  0  0  0  0  0
   -4.1902    1.3331   -0.0446 O   0  0  0  0  0  0  0  0  0  0  0  0
   -5.4944    1.8225    0.2833 C   0  0  0  0  0  0  0  0  0  0  0  0
   -6.3741    0.6659    0.7243 C   0  0  0  0  0  0  0  0  0  0  0  0
   -3.1749   -1.6415   -0.7106 C   0  0  0  0  0  0  0  0  0  0  0  0
   -4.2732   -1.7255   -0.2226 O   0  0  0  0  0  0  0  0  0  0  0  0
   -2.7971   -2.3954   -1.7829 O   0  0  0  0  0  0  0  0  0  0  0  0
   -3.7459   -3.3380   -2.2803 C   0  0  0  0  0  0  0  0  0  0  0  0
   -3.7113   -4.5955   -1.4255 C   0  0  0  0  0  0  0  0  0  0  0  0
    1.7278    0.7962   -0.5766 H   0  0  0  0  0  0  0  0  0  0  0  0
    3.5902    1.3268    0.7227 H   0  0  0  0  0  0  0  0  0  0  0  0
    4.7246    1.2099    2.9166 H   0  0  0  0  0  0  0  0  0  0  0  0
    3.7584   -0.1538    4.7520 H   0  0  0  0  0  0  0  0  0  0  0  0
    1.6590   -1.4253    4.3852 H   0  0  0  0  0  0  0  0  0  0  0  0
    0.5137   -1.3387    2.1873 H   0  0  0  0  0  0  0  0  0  0  0  0
   -0.2473   -1.8438   -1.1143 H   0  0  0  0  0  0  0  0  0  0  0  0
    0.5985    2.9582   -0.2647 H   0  0  0  0  0  0  0  0  0  0  0  0
    1.4833    4.8484    1.0754 H   0  0  0  0  0  0  0  0  0  0  0  0
    0.9574    5.0091    3.4947 H   0  0  0  0  0  0  0  0  0  0  0  0
   -0.4944    3.3032    4.5690 H   0  0  0  0  0  0  0  0  0  0  0  0
   -1.3841    1.4032    3.2321 H   0  0  0  0  0  0  0  0  0  0  0  0
   -5.8084    2.2570   -0.6841 H   0  0  0  0  0  0  0  0  0  0  0  0
   -5.4130    2.6130    1.0499 H   0  0  0  0  0  0  0  0  0  0  0  0
   -6.2105   -0.2170    0.0850 H   0  0  0  0  0  0  0  0  0  0  0  0
   -7.4357    0.9220    0.6864 H   0  0  0  0  0  0  0  0  0  0  0  0
   -6.1338    0.3500    1.7494 H   0  0  0  0  0  0  0  0  0  0  0  0
   -3.3735   -3.5067   -3.3076 H   0  0  0  0  0  0  0  0  0  0  0  0
   -4.7510   -2.8798   -2.3139 H   0  0  0  0  0  0  0  0  0  0  0  0
   -2.6916   -4.9881   -1.3331 H   0  0  0  0  0  0  0  0  0  0  0  0
   -4.3406   -5.3855   -1.8477 H   0  0  0  0  0  0  0  0  0  0  0  0
   -4.0764   -4.3890   -0.4083 H   0  0  0  0  0  0  0  0  0  0  0  0
  1  2  1  0  0  0  0
  1 12  1  0  0  0  0
  2  3  1  0  0  0  0
  3  4  2  0  0  0  0
  3  8  1  0  0  0  0
  4  5  1  0  0  0  0
  5 31  1  0  0  0  0
  5  6  2  0  0  0  0
  6 32  1  0  0  0  0
  7  6  1  0  0  0  0
  7 33  1  0  0  0  0
  8  7  2  0  0  0  0
  9 10  2  0  0  0  0
  9  1  1  0  0  0  0
 10 11  1  0  0  0  0
 11 12  2  0  0  0  0
 11 19  1  0  0  0  0
 12 13  1  0  0  0  0
 13 18  1  0  0  0  0
 14 13  2  0  0  0  0
 14 15  1  0  0  0  0
 15 16  2  0  0  0  0
 16 38  1  0  0  0  0
 16 17  1  0  0  0  0
 17 39  1  0  0  0  0
 18 40  1  0  0  0  0
 18 17  2  0  0  0  0
 19 20  2  0  0  0  0
 21 22  1  0  0  0  0
 21 19  1  0  0  0  0
 22 23  1  0  0  0  0
 22 42  1  0  0  0  0
 23 45  1  0  0  0  0
 24 10  1  0  0  0  0
 24 25  2  0  0  0  0
 26 24  1  0  0  0  0
 27 26  1  0  0  0  0
 27 28  1  0  0  0  0
 28 48  1  0  0  0  0
 28 50  1  0  0  0  0
 29  2  1  0  0  0  0
 30  4  1  0  0  0  0
 34  8  1  0  0  0  0
 35  9  1  0  0  0  0
 36 14  1  0  0  0  0
 37 15  1  0  0  0  0
 41 22  1  0  0  0  0
 43 23  1  0  0  0  0
 44 23  1  0  0  0  0
 46 27  1  0  0  0  0
 47 27  1  0  0  0  0
 49 28  1  0  0  0  0
M  END
$$$$
