rmsd93.gzmat
 OpenBabel08211713403D

 50 52  0  0  0  0  0  0  0  0999 V2000
    0.0000    0.0000    0.0000 N   0  0  0  0  0  0  0  0  0  0  0  0
    1.3986    0.0000    0.0000 N   0  0  0  0  0  0  0  0  0  0  0  0
    1.9805    0.0000    1.3200 C   0  0  0  0  0  0  0  0  0  0  0  0
    3.1760    0.7047    1.5118 C   0  0  0  0  0  0  0  0  0  0  0  0
    3.8085    0.6440    2.7498 C   0  0  0  0  0  0  0  0  0  0  0  0
    3.2537   -0.1019    3.7887 C   0  0  0  0  0  0  0  0  0  0  0  0
    2.0666   -0.8044    3.5869 C   0  0  0  0  0  0  0  0  0  0  0  0
    1.4249   -0.7625    2.3529 C   0  0  0  0  0  0  0  0  0  0  0  0
   -0.7129   -1.0454   -0.5570 C   0  0  0  0  0  0  0  0  0  0  0  0
   -2.0639   -0.8084   -0.2822 C   0  0  0  0  0  0  0  0  0  0  0  0
   -2.1517    0.3882    0.4893 C   0  0  0  0  0  0  0  0  0  0  0  0
   -0.8613    0.8822    0.6732 C   0  0  0  0  0  0  0  0  0  0  0  0
   -0.3932    2.0471    1.4009 C   0  0  0  0  0  0  0  0  0  0  0  0
    0.3951    3.0133    0.7685 C   0  0  0  0  0  0  0  0  0  0  0  0
    0.8801    4.0947    1.4979 C   0  0  0  0  0  0  0  0  0  0  0  0
    0.5699    4.2190    2.8521 C   0  0  0  0  0  0  0  0  0  0  0  0
   -0.2434    3.2731    3.4736 C   0  0  0  0  0  0  0  0  0  0  0  0
   -0.7308    2.1877    2.7503 C   0  0  0  0  0  0  0  0  0  0  0  0
   -3.3689    0.9988    1.0279 C   0  0  0  0  0  0  0  0  0  0  0  0
   -3.6204    1.1818    2.1930 O   0  0  0  0  0  0  0  0  0  0  0  0
   -4.1736    1.3898    0.0149 O   0  0  0  0  0  0  0  0  0  0  0  0
   -5.4716    1.8772    0.3718 C   0  0  0  0  0  0  0  0  0  0  0  0
   -6.3579    0.7136    0.7800 C   0  0  0  0  0  0  0  0  0  0  0  0
   -3.1721   -1.6526   -0.6918 C   0  0  0  0  0  0  0  0  0  0  0  0
   -4.2992   -1.6726   -0.2668 O   0  0  0  0  0  0  0  0  0  0  0  0
   -2.7546   -2.4969   -1.6797 O   0  0  0  0  0  0  0  0  0  0  0  0
   -3.7007   -3.4498   -2.1619 C   0  0  0  0  0  0  0  0  0  0  0  0
   -3.8115   -4.6073   -1.1819 C   0  0  0  0  0  0  0  0  0  0  0  0
    1.7281    0.7967   -0.5757 H   0  0  0  0  0  0  0  0  0  0  0  0
    3.6097    1.2970    0.7099 H   0  0  0  0  0  0  0  0  0  0  0  0
    4.7390    1.1894    2.9070 H   0  0  0  0  0  0  0  0  0  0  0  0
    3.7471   -0.1354    4.7581 H   0  0  0  0  0  0  0  0  0  0  0  0
    1.6343   -1.3884    4.3999 H   0  0  0  0  0  0  0  0  0  0  0  0
    0.4968   -1.3146    2.1979 H   0  0  0  0  0  0  0  0  0  0  0  0
   -0.2488   -1.8527   -1.0997 H   0  0  0  0  0  0  0  0  0  0  0  0
    0.6124    2.9310   -0.2937 H   0  0  0  0  0  0  0  0  0  0  0  0
    1.4986    4.8460    1.0108 H   0  0  0  0  0  0  0  0  0  0  0  0
    0.9582    5.0613    3.4220 H   0  0  0  0  0  0  0  0  0  0  0  0
   -0.5029    3.3820    4.5259 H   0  0  0  0  0  0  0  0  0  0  0  0
   -1.3842    1.4509    3.2281 H   0  0  0  0  0  0  0  0  0  0  0  0
   -5.7897    2.3488   -0.5764 H   0  0  0  0  0  0  0  0  0  0  0  0
   -5.3761    2.6383    1.1659 H   0  0  0  0  0  0  0  0  0  0  0  0
   -6.2204   -0.1419    0.0985 H   0  0  0  0  0  0  0  0  0  0  0  0
   -7.4166    0.9839    0.7785 H   0  0  0  0  0  0  0  0  0  0  0  0
   -6.0990    0.3483    1.7843 H   0  0  0  0  0  0  0  0  0  0  0  0
   -3.2439   -3.7457   -3.1246 H   0  0  0  0  0  0  0  0  0  0  0  0
   -4.6725   -2.9545   -2.3395 H   0  0  0  0  0  0  0  0  0  0  0  0
   -2.8257   -5.0209   -0.9384 H   0  0  0  0  0  0  0  0  0  0  0  0
   -4.4282   -5.4166   -1.5854 H   0  0  0  0  0  0  0  0  0  0  0  0
   -4.2706   -4.2793   -0.2374 H   0  0  0  0  0  0  0  0  0  0  0  0
  1  2  1  0  0  0  0
  1 12  1  0  0  0  0
  2  3  1  0  0  0  0
  3  4  2  0  0  0  0
  3  8  1  0  0  0  0
  4  5  1  0  0  0  0
  5 31  1  0  0  0  0
  5  6  2  0  0  0  0
  6 32  1  0  0  0  0
  7  6  1  0  0  0  0
  7 33  1  0  0  0  0
  8  7  2  0  0  0  0
  9 10  2  0  0  0  0
  9  1  1  0  0  0  0
 10 11  1  0  0  0  0
 11 12  2  0  0  0  0
 11 19  1  0  0  0  0
 12 13  1  0  0  0  0
 13 18  1  0  0  0  0
 14 13  2  0  0  0  0
 14 15  1  0  0  0  0
 15 16  2  0  0  0  0
 16 38  1  0  0  0  0
 16 17  1  0  0  0  0
 17 39  1  0  0  0  0
 18 40  1  0  0  0  0
 18 17  2  0  0  0  0
 19 20  2  0  0  0  0
 21 22  1  0  0  0  0
 21 19  1  0  0  0  0
 22 23  1  0  0  0  0
 22 42  1  0  0  0  0
 23 45  1  0  0  0  0
 24 10  1  0  0  0  0
 24 25  2  0  0  0  0
 26 24  1  0  0  0  0
 27 26  1  0  0  0  0
 27 28  1  0  0  0  0
 28 48  1  0  0  0  0
 28 50  1  0  0  0  0
 29  2  1  0  0  0  0
 30  4  1  0  0  0  0
 34  8  1  0  0  0  0
 35  9  1  0  0  0  0
 36 14  1  0  0  0  0
 37 15  1  0  0  0  0
 41 22  1  0  0  0  0
 43 23  1  0  0  0  0
 44 23  1  0  0  0  0
 46 27  1  0  0  0  0
 47 27  1  0  0  0  0
 49 28  1  0  0  0  0
M  END
$$$$
