50

N         -0.08080        0.11660        0.00730
N          1.29520        0.14680        0.09200
C          1.89120       -0.00890        1.35940
C          1.22870       -0.67120        2.40340
C          1.86350       -0.82630        3.63750
C          3.15490       -0.33570        3.84700
C          3.81240        0.31830        2.80030
C          3.18860        0.48430        1.56460
C         -0.79280       -1.00640       -0.31800
C         -2.13460       -0.67860       -0.29380
C         -2.22840        0.71790        0.04420
C         -0.93460        1.19230        0.23290
C         -0.41350        2.52330        0.61090
C         -0.54690        3.60800       -0.27290
C         -0.05900        4.86830        0.07410
C          0.57010        5.06290        1.30790
C          0.70740        3.99080        2.19340
C          0.21830        2.72900        1.84920
C         -3.45880        1.47950        0.36760
O         -4.38910        1.05470        1.00810
O         -3.38830        2.74420       -0.10260
C         -4.39000        3.67000        0.34530
C         -4.00920        4.26510        1.69020
C         -3.19040       -1.64420       -0.65190
O         -3.03440       -2.84620       -0.66740
O         -4.33450       -1.03070       -0.99400
C         -5.46760       -1.85840       -1.28880
C         -5.47240       -2.30020       -2.74210
H          1.69350        0.88620       -0.47950
H          0.21930       -1.05580        2.25220
H          1.33560       -1.33990        4.44470
H          3.64420       -0.46080        4.81490
H          4.82100        0.71200        2.94720
H          3.70240        1.00820        0.75420
H         -0.29680       -1.94080       -0.56350
H         -1.05290        3.45370       -1.22610
H         -0.17140        5.70340       -0.62140
H          0.95130        6.05040        1.57910
H          1.19310        4.13530        3.16110
H          0.31630        1.89890        2.54900
H         -5.35940        3.15370        0.39730
H         -4.43260        4.44040       -0.43800
H         -3.99120        3.48420        2.46480
H         -4.74430        5.02880        1.99050
H         -3.01460        4.73480        1.64060
H         -6.33830       -1.22980       -1.05370
H         -5.45950       -2.72850       -0.61590
H         -5.43070       -1.43000       -3.41560
H         -6.39280       -2.86440       -2.96250
H         -4.61070       -2.95120       -2.94890
