rmsd244.gzmat
 OpenBabel08211713403D

 50 52  0  0  0  0  0  0  0  0999 V2000
    0.0000    0.0000    0.0000 N   0  0  0  0  0  0  0  0  0  0  0  0
    1.3960    0.0000    0.0000 N   0  0  0  0  0  0  0  0  0  0  0  0
    1.9861    0.0000    1.3143 C   0  0  0  0  0  0  0  0  0  0  0  0
    1.3988   -0.6935    2.3783 C   0  0  0  0  0  0  0  0  0  0  0  0
    2.0615   -0.7531    3.6002 C   0  0  0  0  0  0  0  0  0  0  0  0
    3.2992   -0.1331    3.7629 C   0  0  0  0  0  0  0  0  0  0  0  0
    3.8826    0.5488    2.6958 C   0  0  0  0  0  0  0  0  0  0  0  0
    3.2313    0.6241    1.4685 C   0  0  0  0  0  0  0  0  0  0  0  0
   -0.7220   -1.1567   -0.2263 C   0  0  0  0  0  0  0  0  0  0  0  0
   -2.0762   -0.8072   -0.1732 C   0  0  0  0  0  0  0  0  0  0  0  0
   -2.1575    0.5902    0.0948 C   0  0  0  0  0  0  0  0  0  0  0  0
   -0.8595    1.0867    0.2168 C   0  0  0  0  0  0  0  0  0  0  0  0
   -0.4083    2.4392    0.4852 C   0  0  0  0  0  0  0  0  0  0  0  0
   -0.7908    3.4653   -0.3839 C   0  0  0  0  0  0  0  0  0  0  0  0
   -0.3644    4.7688   -0.1430 C   0  0  0  0  0  0  0  0  0  0  0  0
    0.4376    5.0493    0.9621 C   0  0  0  0  0  0  0  0  0  0  0  0
    0.7974    4.0293    1.8427 C   0  0  0  0  0  0  0  0  0  0  0  0
    0.3671    2.7263    1.6116 C   0  0  0  0  0  0  0  0  0  0  0  0
   -3.3718    1.4014    0.2042 C   0  0  0  0  0  0  0  0  0  0  0  0
   -3.6675    2.3423   -0.4895 O   0  0  0  0  0  0  0  0  0  0  0  0
   -4.1115    0.9808    1.2541 O   0  0  0  0  0  0  0  0  0  0  0  0
   -5.3915    1.5972    1.4293 C   0  0  0  0  0  0  0  0  0  0  0  0
   -6.3559    1.0892    0.3724 C   0  0  0  0  0  0  0  0  0  0  0  0
   -3.1953   -1.7125   -0.3653 C   0  0  0  0  0  0  0  0  0  0  0  0
   -4.3556   -1.4482   -0.5520 O   0  0  0  0  0  0  0  0  0  0  0  0
   -2.7423   -2.9999   -0.3315 O   0  0  0  0  0  0  0  0  0  0  0  0
   -3.7195   -4.0351   -0.4253 C   0  0  0  0  0  0  0  0  0  0  0  0
   -4.3597   -4.2502    0.9369 C   0  0  0  0  0  0  0  0  0  0  0  0
    1.7302    0.7863   -0.5878 H   0  0  0  0  0  0  0  0  0  0  0  0
    0.4324   -1.1841    2.2573 H   0  0  0  0  0  0  0  0  0  0  0  0
    1.6071   -1.2885    4.4341 H   0  0  0  0  0  0  0  0  0  0  0  0
    3.8102   -0.1823    4.7220 H   0  0  0  0  0  0  0  0  0  0  0  0
    4.8513    1.0312    2.8230 H   0  0  0  0  0  0  0  0  0  0  0  0
    3.6910    1.1620    0.6424 H   0  0  0  0  0  0  0  0  0  0  0  0
   -0.2611   -2.1121   -0.4166 H   0  0  0  0  0  0  0  0  0  0  0  0
   -1.4406    3.2427   -1.2359 H   0  0  0  0  0  0  0  0  0  0  0  0
   -0.6672    5.5690   -0.8164 H   0  0  0  0  0  0  0  0  0  0  0  0
    0.7758    6.0677    1.1447 H   0  0  0  0  0  0  0  0  0  0  0  0
    1.4089    4.2517    2.7149 H   0  0  0  0  0  0  0  0  0  0  0  0
    0.6219    1.9354    2.3170 H   0  0  0  0  0  0  0  0  0  0  0  0
   -5.2768    2.6951    1.4101 H   0  0  0  0  0  0  0  0  0  0  0  0
   -5.6518    1.2559    2.4484 H   0  0  0  0  0  0  0  0  0  0  0  0
   -6.1997    1.5970   -0.5896 H   0  0  0  0  0  0  0  0  0  0  0  0
   -7.3979    1.2300    0.6685 H   0  0  0  0  0  0  0  0  0  0  0  0
   -6.1964    0.0144    0.1828 H   0  0  0  0  0  0  0  0  0  0  0  0
   -3.1031   -4.8936   -0.7490 H   0  0  0  0  0  0  0  0  0  0  0  0
   -4.4611   -3.7862   -1.2059 H   0  0  0  0  0  0  0  0  0  0  0  0
   -3.5997   -4.3480    1.7216 H   0  0  0  0  0  0  0  0  0  0  0  0
   -4.9807   -5.1510    0.9522 H   0  0  0  0  0  0  0  0  0  0  0  0
   -4.9981   -3.3975    1.2104 H   0  0  0  0  0  0  0  0  0  0  0  0
  1  2  1  0  0  0  0
  1 12  1  0  0  0  0
  2  3  1  0  0  0  0
  3  8  2  0  0  0  0
  3  4  1  0  0  0  0
  4  5  2  0  0  0  0
  5  6  1  0  0  0  0
  5 31  1  0  0  0  0
  6 32  1  0  0  0  0
  7 33  1  0  0  0  0
  7  6  2  0  0  0  0
  8  7  1  0  0  0  0
  9 10  2  0  0  0  0
  9  1  1  0  0  0  0
 10 11  1  0  0  0  0
 11 19  1  0  0  0  0
 11 12  2  0  0  0  0
 12 13  1  0  0  0  0
 13 18  2  0  0  0  0
 14 15  2  0  0  0  0
 14 13  1  0  0  0  0
 15 16  1  0  0  0  0
 16 38  1  0  0  0  0
 16 17  2  0  0  0  0
 17 39  1  0  0  0  0
 18 17  1  0  0  0  0
 18 40  1  0  0  0  0
 19 21  1  0  0  0  0
 20 19  2  0  0  0  0
 21 22  1  0  0  0  0
 22 42  1  0  0  0  0
 23 44  1  0  0  0  0
 23 22  1  0  0  0  0
 24 26  1  0  0  0  0
 24 10  1  0  0  0  0
 25 24  2  0  0  0  0
 27 26  1  0  0  0  0
 27 28  1  0  0  0  0
 28 49  1  0  0  0  0
 28 50  1  0  0  0  0
 28 48  1  0  0  0  0
 29  2  1  0  0  0  0
 30  4  1  0  0  0  0
 34  8  1  0  0  0  0
 35  9  1  0  0  0  0
 36 14  1  0  0  0  0
 37 15  1  0  0  0  0
 41 22  1  0  0  0  0
 43 23  1  0  0  0  0
 45 23  1  0  0  0  0
 46 27  1  0  0  0  0
 47 27  1  0  0  0  0
M  END
$$$$
