50

N         -0.04510       -0.05660        0.25080
N          1.33130       -0.01660        0.28890
C          1.98520       -0.00350        1.53410
C          1.33920       -0.40710        2.71200
C          2.03870       -0.40360        3.92120
C          3.37640       -0.00570        3.97600
C          4.01550        0.39460        2.79780
C          3.32990        0.39760        1.58440
C         -0.74840       -1.22790        0.18000
C         -2.09260       -0.91100        0.11070
C         -2.19330        0.52380        0.11190
C         -0.90630        1.04230        0.20520
C         -0.40820        2.42860        0.23640
C         -0.83350        3.34920       -0.73990
C         -0.35410        4.65970       -0.73040
C          0.55810        5.07230        0.24450
C          0.97970        4.16830        1.22360
C          0.49790        2.85910        1.22490
C         -3.44710        1.31950        0.09500
O         -3.66010        2.26440       -0.63290
O         -4.31220        0.87430        1.01540
C         -5.63040        1.44860        1.01490
C         -6.50850        0.82540       -0.05620
C         -3.18550       -1.87750       -0.08170
O         -4.29810       -1.60950       -0.47590
O         -2.78270       -3.13560        0.21010
C         -3.72900       -4.19080       -0.01820
C         -3.75420       -4.61820       -1.47570
H          1.71890        0.60180       -0.41720
H          0.29320       -0.71390        2.68310
H          1.52320       -0.71600        4.83260
H          3.91560       -0.00490        4.92530
H          5.06030        0.71340        2.82190
H          3.83230        0.71850        0.66810
H         -0.23860       -2.18580        0.15500
H         -1.55780        3.03060       -1.48820
H         -0.69650        5.36280       -1.49340
H          0.93400        6.09840        0.24640
H          1.68020        4.48460        2.00020
H          0.80930        2.17490        2.01380
H         -5.54580        2.53710        0.87790
H         -6.01860        1.24310        2.02270
H         -6.13120        1.07570       -1.05790
H         -7.53690        1.21050        0.03480
H         -6.51970       -0.26900        0.04070
H         -4.72430       -3.85440        0.30780
H         -3.39580       -5.01050        0.63440
H         -4.11560       -3.79760       -2.11210
H         -4.43100       -5.47780       -1.60500
H         -2.74950       -4.91540       -1.81440
