rmsd142.gzmat
 OpenBabel08211713403D

 50 52  0  0  0  0  0  0  0  0999 V2000
    0.0000    0.0000    0.0000 N   0  0  0  0  0  0  0  0  0  0  0  0
    1.3949    0.0000    0.0000 N   0  0  0  0  0  0  0  0  0  0  0  0
    1.9945    0.0000    1.3089 C   0  0  0  0  0  0  0  0  0  0  0  0
    1.3770   -0.6053    2.4088 C   0  0  0  0  0  0  0  0  0  0  0  0
    2.0586   -0.6698    3.6203 C   0  0  0  0  0  0  0  0  0  0  0  0
    3.3453   -0.1473    3.7364 C   0  0  0  0  0  0  0  0  0  0  0  0
    3.9578    0.4469    2.6336 C   0  0  0  0  0  0  0  0  0  0  0  0
    3.2867    0.5332    1.4181 C   0  0  0  0  0  0  0  0  0  0  0  0
   -0.7177   -1.1639   -0.2071 C   0  0  0  0  0  0  0  0  0  0  0  0
   -2.0711   -0.8140   -0.1809 C   0  0  0  0  0  0  0  0  0  0  0  0
   -2.1581    0.5890    0.0553 C   0  0  0  0  0  0  0  0  0  0  0  0
   -0.8622    1.0919    0.1765 C   0  0  0  0  0  0  0  0  0  0  0  0
   -0.4129    2.4520    0.4083 C   0  0  0  0  0  0  0  0  0  0  0  0
   -0.8142    3.4598   -0.4741 C   0  0  0  0  0  0  0  0  0  0  0  0
   -0.3876    4.7692   -0.2676 C   0  0  0  0  0  0  0  0  0  0  0  0
    0.4314    5.0746    0.8179 C   0  0  0  0  0  0  0  0  0  0  0  0
    0.8115    4.0735    1.7117 C   0  0  0  0  0  0  0  0  0  0  0  0
    0.3837    2.7646    1.5136 C   0  0  0  0  0  0  0  0  0  0  0  0
   -3.3850    1.3818    0.1473 C   0  0  0  0  0  0  0  0  0  0  0  0
   -3.6849    2.3276   -0.5375 O   0  0  0  0  0  0  0  0  0  0  0  0
   -4.1408    0.9272    1.1733 O   0  0  0  0  0  0  0  0  0  0  0  0
   -5.4486    1.4909    1.3143 C   0  0  0  0  0  0  0  0  0  0  0  0
   -6.3768    0.8742    0.2828 C   0  0  0  0  0  0  0  0  0  0  0  0
   -3.1911   -1.7167   -0.3825 C   0  0  0  0  0  0  0  0  0  0  0  0
   -4.3130   -1.4529   -0.7335 O   0  0  0  0  0  0  0  0  0  0  0  0
   -2.7887   -2.9974   -0.1400 O   0  0  0  0  0  0  0  0  0  0  0  0
   -3.7845   -4.0152   -0.2355 C   0  0  0  0  0  0  0  0  0  0  0  0
   -4.6581   -3.9958    1.0088 C   0  0  0  0  0  0  0  0  0  0  0  0
    1.7311    0.7803   -0.5945 H   0  0  0  0  0  0  0  0  0  0  0  0
    0.3735   -1.0246    2.3267 H   0  0  0  0  0  0  0  0  0  0  0  0
    1.5799   -1.1331    4.4833 H   0  0  0  0  0  0  0  0  0  0  0  0
    3.8710   -0.2026    4.6869 H   0  0  0  0  0  0  0  0  0  0  0  0
    4.9657    0.8507    2.7239 H   0  0  0  0  0  0  0  0  0  0  0  0
    3.7668    1.0060    0.5643 H   0  0  0  0  0  0  0  0  0  0  0  0
   -0.2520   -2.1226   -0.3657 H   0  0  0  0  0  0  0  0  0  0  0  0
   -1.4777    3.2194   -1.3107 H   0  0  0  0  0  0  0  0  0  0  0  0
   -0.7026    5.5548   -0.9530 H   0  0  0  0  0  0  0  0  0  0  0  0
    0.7682    6.0979    0.9746 H   0  0  0  0  0  0  0  0  0  0  0  0
    1.4374    4.3151    2.5684 H   0  0  0  0  0  0  0  0  0  0  0  0
    0.6571    1.9891    2.2292 H   0  0  0  0  0  0  0  0  0  0  0  0
   -5.3917    2.5909    1.2338 H   0  0  0  0  0  0  0  0  0  0  0  0
   -5.6989    1.1952    2.3499 H   0  0  0  0  0  0  0  0  0  0  0  0
   -6.1916    1.2891   -0.7185 H   0  0  0  0  0  0  0  0  0  0  0  0
   -7.4288    1.0354    0.5299 H   0  0  0  0  0  0  0  0  0  0  0  0
   -6.2059   -0.2112    0.1992 H   0  0  0  0  0  0  0  0  0  0  0  0
   -3.1615   -4.9255   -0.3085 H   0  0  0  0  0  0  0  0  0  0  0  0
   -4.3699   -3.8797   -1.1628 H   0  0  0  0  0  0  0  0  0  0  0  0
   -4.0497   -3.9941    1.9219 H   0  0  0  0  0  0  0  0  0  0  0  0
   -5.3251   -4.8625    1.0467 H   0  0  0  0  0  0  0  0  0  0  0  0
   -5.2836   -3.0908    1.0364 H   0  0  0  0  0  0  0  0  0  0  0  0
  1  2  1  0  0  0  0
  1 12  1  0  0  0  0
  2  3  1  0  0  0  0
  3  8  2  0  0  0  0
  3  4  1  0  0  0  0
  4  5  2  0  0  0  0
  5  6  1  0  0  0  0
  5 31  1  0  0  0  0
  6 32  1  0  0  0  0
  7 33  1  0  0  0  0
  7  6  2  0  0  0  0
  8  7  1  0  0  0  0
  9 10  2  0  0  0  0
  9  1  1  0  0  0  0
 10 11  1  0  0  0  0
 11 19  1  0  0  0  0
 11 12  2  0  0  0  0
 12 13  1  0  0  0  0
 13 18  2  0  0  0  0
 14 15  2  0  0  0  0
 14 13  1  0  0  0  0
 15 16  1  0  0  0  0
 16 38  1  0  0  0  0
 16 17  2  0  0  0  0
 17 39  1  0  0  0  0
 18 17  1  0  0  0  0
 18 40  1  0  0  0  0
 19 21  1  0  0  0  0
 20 19  2  0  0  0  0
 21 22  1  0  0  0  0
 22 42  1  0  0  0  0
 23 44  1  0  0  0  0
 23 22  1  0  0  0  0
 24 10  1  0  0  0  0
 24 26  1  0  0  0  0
 25 24  2  0  0  0  0
 27 26  1  0  0  0  0
 27 28  1  0  0  0  0
 28 50  1  0  0  0  0
 28 49  1  0  0  0  0
 28 48  1  0  0  0  0
 29  2  1  0  0  0  0
 30  4  1  0  0  0  0
 34  8  1  0  0  0  0
 35  9  1  0  0  0  0
 36 14  1  0  0  0  0
 37 15  1  0  0  0  0
 41 22  1  0  0  0  0
 43 23  1  0  0  0  0
 45 23  1  0  0  0  0
 46 27  1  0  0  0  0
 47 27  1  0  0  0  0
M  END
$$$$
