
     RDKit          3D

 50 52  0  0  0  0  0  0  0  0999 V2000
   -0.0276    0.1476    0.1903 N   0  0  0  0  0  0  0  0  0  0  0  0
    1.3495    0.1701    0.1752 N   0  0  0  0  0  0  0  0  0  0  0  0
    2.0552   -0.0452    1.3724 C   0  0  0  0  0  0  0  0  0  0  0  0
    3.4059    0.3334    1.4355 C   0  0  0  0  0  0  0  0  0  0  0  0
    4.1415    0.1081    2.5977 C   0  0  0  0  0  0  0  0  0  0  0  0
    3.5471   -0.4945    3.7113 C   0  0  0  0  0  0  0  0  0  0  0  0
    2.2032   -0.8694    3.6438 C   0  0  0  0  0  0  0  0  0  0  0  0
    1.4538   -0.6513    2.4854 C   0  0  0  0  0  0  0  0  0  0  0  0
   -0.7519   -0.9856   -0.0588 C   0  0  0  0  0  0  0  0  0  0  0  0
   -2.0920   -0.6525   -0.0105 C   0  0  0  0  0  0  0  0  0  0  0  0
   -2.1708    0.7592    0.2549 C   0  0  0  0  0  0  0  0  0  0  0  0
   -0.8725    1.2428    0.3825 C   0  0  0  0  0  0  0  0  0  0  0  0
   -0.3573    2.5976    0.6463 C   0  0  0  0  0  0  0  0  0  0  0  0
   -0.8182    3.6842   -0.1209 C   0  0  0  0  0  0  0  0  0  0  0  0
   -0.3284    4.9703    0.1107 C   0  0  0  0  0  0  0  0  0  0  0  0
    0.6306    5.1940    1.1022 C   0  0  0  0  0  0  0  0  0  0  0  0
    1.0889    4.1230    1.8747 C   0  0  0  0  0  0  0  0  0  0  0  0
    0.5966    2.8364    1.6546 C   0  0  0  0  0  0  0  0  0  0  0  0
   -3.4047    1.5579    0.4562 C   0  0  0  0  0  0  0  0  0  0  0  0
   -3.6573    2.6048   -0.0986 O   0  0  0  0  0  0  0  0  0  0  0  0
   -4.2120    0.9841    1.3620 O   0  0  0  0  0  0  0  0  0  0  0  0
   -5.4929    1.5956    1.5766 C   0  0  0  0  0  0  0  0  0  0  0  0
   -5.4091    2.7381    2.5736 C   0  0  0  0  0  0  0  0  0  0  0  0
   -3.1577   -1.6249   -0.3085 C   0  0  0  0  0  0  0  0  0  0  0  0
   -3.0039   -2.8269   -0.3067 O   0  0  0  0  0  0  0  0  0  0  0  0
   -4.3194   -1.0213   -0.6274 O   0  0  0  0  0  0  0  0  0  0  0  0
   -5.4375   -1.8671   -0.9318 C   0  0  0  0  0  0  0  0  0  0  0  0
   -5.4261   -2.3046   -2.3861 C   0  0  0  0  0  0  0  0  0  0  0  0
    1.7180    0.8985   -0.4287 H   0  0  0  0  0  0  0  0  0  0  0  0
    3.8737    0.8112    0.5707 H   0  0  0  0  0  0  0  0  0  0  0  0
    5.1906    0.4116    2.6331 H   0  0  0  0  0  0  0  0  0  0  0  0
    4.1255   -0.6681    4.6207 H   0  0  0  0  0  0  0  0  0  0  0  0
    1.7226   -1.3394    4.5051 H   0  0  0  0  0  0  0  0  0  0  0  0
    0.4042   -0.9444    2.4467 H   0  0  0  0  0  0  0  0  0  0  0  0
   -0.2651   -1.9311   -0.2788 H   0  0  0  0  0  0  0  0  0  0  0  0
   -1.5762    3.5105   -0.8836 H   0  0  0  0  0  0  0  0  0  0  0  0
   -0.6987    5.8032   -0.4918 H   0  0  0  0  0  0  0  0  0  0  0  0
    1.0150    6.2017    1.2778 H   0  0  0  0  0  0  0  0  0  0  0  0
    1.8271    4.2889    2.6629 H   0  0  0  0  0  0  0  0  0  0  0  0
    0.9379    2.0173    2.2869 H   0  0  0  0  0  0  0  0  0  0  0  0
   -6.1301    0.7814    1.9512 H   0  0  0  0  0  0  0  0  0  0  0  0
   -5.8868    1.9456    0.6106 H   0  0  0  0  0  0  0  0  0  0  0  0
   -4.9718    2.3952    3.5241 H   0  0  0  0  0  0  0  0  0  0  0  0
   -6.4163    3.1346    2.7791 H   0  0  0  0  0  0  0  0  0  0  0  0
   -4.7911    3.5537    2.1720 H   0  0  0  0  0  0  0  0  0  0  0  0
   -6.3215   -1.2537   -0.7045 H   0  0  0  0  0  0  0  0  0  0  0  0
   -5.4205   -2.7384   -0.2606 H   0  0  0  0  0  0  0  0  0  0  0  0
   -5.3936   -1.4316   -3.0562 H   0  0  0  0  0  0  0  0  0  0  0  0
   -6.3357   -2.8830   -2.6137 H   0  0  0  0  0  0  0  0  0  0  0  0
   -4.5530   -2.9414   -2.5887 H   0  0  0  0  0  0  0  0  0  0  0  0
  1  2  1  0
  1  9  1  0
  1 12  1  0
  2  3  1  0
  2 29  1  0
  3  4  2  0
  3  8  1  0
  4  5  1  0
  4 30  1  0
  5  6  2  0
  5 31  1  0
  6  7  1  0
  6 32  1  0
  7  8  2  0
  7 33  1  0
  8 34  1  0
  9 10  2  0
  9 35  1  0
 10 11  1  0
 10 24  1  0
 11 12  2  0
 11 19  1  0
 12 13  1  0
 13 14  2  0
 13 18  1  0
 14 15  1  0
 14 36  1  0
 15 16  2  0
 15 37  1  0
 16 17  1  0
 16 38  1  0
 17 18  2  0
 17 39  1  0
 18 40  1  0
 19 20  2  0
 19 21  1  0
 21 22  1  0
 22 23  1  0
 22 41  1  0
 22 42  1  0
 23 43  1  0
 23 44  1  0
 23 45  1  0
 24 25  2  0
 24 26  1  0
 26 27  1  0
 27 28  1  0
 27 46  1  0
 27 47  1  0
 28 48  1  0
 28 49  1  0
 28 50  1  0
M  END

