
     RDKit          3D

 50 52  0  0  0  0  0  0  0  0999 V2000
   -0.0583    0.0649    0.1721 N   0  0  0  0  0  0  0  0  0  0  0  0
    1.3184    0.1094    0.1669 N   0  0  0  0  0  0  0  0  0  0  0  0
    2.0152    0.0022    1.3838 C   0  0  0  0  0  0  0  0  0  0  0  0
    1.4114   -0.5195    2.5374 C   0  0  0  0  0  0  0  0  0  0  0  0
    2.1527   -0.6328    3.7160 C   0  0  0  0  0  0  0  0  0  0  0  0
    3.4910   -0.2359    3.7637 C   0  0  0  0  0  0  0  0  0  0  0  0
    4.0879    0.2826    2.6098 C   0  0  0  0  0  0  0  0  0  0  0  0
    3.3603    0.4029    1.4272 C   0  0  0  0  0  0  0  0  0  0  0  0
   -0.7605   -1.0979    0.0102 C   0  0  0  0  0  0  0  0  0  0  0  0
   -2.1070   -0.7841    0.0190 C   0  0  0  0  0  0  0  0  0  0  0  0
   -2.2116    0.6430    0.1660 C   0  0  0  0  0  0  0  0  0  0  0  0
   -0.9232    1.1576    0.2653 C   0  0  0  0  0  0  0  0  0  0  0  0
   -0.4271    2.5368    0.4169 C   0  0  0  0  0  0  0  0  0  0  0  0
   -0.8851    3.5467   -0.4499 C   0  0  0  0  0  0  0  0  0  0  0  0
   -0.4074    4.8521   -0.3273 C   0  0  0  0  0  0  0  0  0  0  0  0
    0.5352    5.1713    0.6537 C   0  0  0  0  0  0  0  0  0  0  0  0
    0.9896    4.1775    1.5252 C   0  0  0  0  0  0  0  0  0  0  0  0
    0.5101    2.8722    1.4133 C   0  0  0  0  0  0  0  0  0  0  0  0
   -3.4663    1.4292    0.2756 C   0  0  0  0  0  0  0  0  0  0  0  0
   -3.7028    2.4490   -0.3343 O   0  0  0  0  0  0  0  0  0  0  0  0
   -4.3030    0.8792    1.1655 O   0  0  0  0  0  0  0  0  0  0  0  0
   -5.6215    1.4434    1.2676 C   0  0  0  0  0  0  0  0  0  0  0  0
   -6.5276    0.9483    0.1537 C   0  0  0  0  0  0  0  0  0  0  0  0
   -3.2041   -1.7339   -0.2273 C   0  0  0  0  0  0  0  0  0  0  0  0
   -4.3286   -1.4360   -0.5615 O   0  0  0  0  0  0  0  0  0  0  0  0
   -2.7895   -3.0116   -0.0669 O   0  0  0  0  0  0  0  0  0  0  0  0
   -3.7549   -4.0444   -0.3169 C   0  0  0  0  0  0  0  0  0  0  0  0
   -4.6255   -4.2993    0.9014 C   0  0  0  0  0  0  0  0  0  0  0  0
    1.6799    0.7967   -0.4875 H   0  0  0  0  0  0  0  0  0  0  0  0
    0.3654   -0.8268    2.5143 H   0  0  0  0  0  0  0  0  0  0  0  0
    1.6698   -1.0366    4.6091 H   0  0  0  0  0  0  0  0  0  0  0  0
    4.0630   -0.3270    4.6891 H   0  0  0  0  0  0  0  0  0  0  0  0
    5.1325    0.6024    2.6292 H   0  0  0  0  0  0  0  0  0  0  0  0
    3.8299    0.8156    0.5304 H   0  0  0  0  0  0  0  0  0  0  0  0
   -0.2491   -2.0455   -0.1265 H   0  0  0  0  0  0  0  0  0  0  0  0
   -1.6328    3.2998   -1.2024 H   0  0  0  0  0  0  0  0  0  0  0  0
   -0.7754    5.6251   -1.0061 H   0  0  0  0  0  0  0  0  0  0  0  0
    0.9094    6.1940    0.7443 H   0  0  0  0  0  0  0  0  0  0  0  0
    1.7145    4.4193    2.3062 H   0  0  0  0  0  0  0  0  0  0  0  0
    0.8481    2.1154    2.1205 H   0  0  0  0  0  0  0  0  0  0  0  0
   -5.5422    2.5409    1.2586 H   0  0  0  0  0  0  0  0  0  0  0  0
   -5.9823    1.1182    2.2539 H   0  0  0  0  0  0  0  0  0  0  0  0
   -6.1788    1.3188   -0.8206 H   0  0  0  0  0  0  0  0  0  0  0  0
   -7.5539    1.3142    0.3181 H   0  0  0  0  0  0  0  0  0  0  0  0
   -6.5342   -0.1500    0.1188 H   0  0  0  0  0  0  0  0  0  0  0  0
   -3.1575   -4.9309   -0.5745 H   0  0  0  0  0  0  0  0  0  0  0  0
   -4.3692   -3.7594   -1.1839 H   0  0  0  0  0  0  0  0  0  0  0  0
   -4.0076   -4.5433    1.7794 H   0  0  0  0  0  0  0  0  0  0  0  0
   -5.3050   -5.1451    0.7097 H   0  0  0  0  0  0  0  0  0  0  0  0
   -5.2344   -3.4133    1.1321 H   0  0  0  0  0  0  0  0  0  0  0  0
  1  2  1  0
  1  9  1  0
  1 12  1  0
  2  3  1  0
  2 29  1  0
  3  4  2  0
  3  8  1  0
  4  5  1  0
  4 30  1  0
  5  6  2  0
  5 31  1  0
  6  7  1  0
  6 32  1  0
  7  8  2  0
  7 33  1  0
  8 34  1  0
  9 10  2  0
  9 35  1  0
 10 11  1  0
 10 24  1  0
 11 12  2  0
 11 19  1  0
 12 13  1  0
 13 14  2  0
 13 18  1  0
 14 15  1  0
 14 36  1  0
 15 16  2  0
 15 37  1  0
 16 17  1  0
 16 38  1  0
 17 18  2  0
 17 39  1  0
 18 40  1  0
 19 20  2  0
 19 21  1  0
 21 22  1  0
 22 23  1  0
 22 41  1  0
 22 42  1  0
 23 43  1  0
 23 44  1  0
 23 45  1  0
 24 25  2  0
 24 26  1  0
 26 27  1  0
 27 28  1  0
 27 46  1  0
 27 47  1  0
 28 48  1  0
 28 49  1  0
 28 50  1  0
M  END

