50
rmsd244.gzmat
N          0.00000        0.00000        0.00000
N          1.39600        0.00000        0.00000
C          1.98610        0.00000        1.31430
C          1.39880       -0.69350        2.37830
C          2.06150       -0.75310        3.60020
C          3.29920       -0.13310        3.76290
C          3.88260        0.54880        2.69580
C          3.23130        0.62410        1.46850
C         -0.72200       -1.15670       -0.22630
C         -2.07620       -0.80720       -0.17320
C         -2.15750        0.59020        0.09480
C         -0.85950        1.08670        0.21680
C         -0.40830        2.43920        0.48520
C         -0.79080        3.46530       -0.38390
C         -0.36440        4.76880       -0.14300
C          0.43760        5.04930        0.96210
C          0.79740        4.02930        1.84270
C          0.36710        2.72630        1.61160
C         -3.37180        1.40140        0.20420
O         -3.66750        2.34230       -0.48950
O         -4.11150        0.98080        1.25410
C         -5.39150        1.59720        1.42930
C         -6.35590        1.08920        0.37240
C         -3.19530       -1.71250       -0.36530
O         -4.35560       -1.44820       -0.55200
O         -2.74230       -2.99990       -0.33150
C         -3.71950       -4.03510       -0.42530
C         -4.35970       -4.25020        0.93690
H          1.73020        0.78630       -0.58780
H          0.43240       -1.18410        2.25730
H          1.60710       -1.28850        4.43410
H          3.81020       -0.18230        4.72200
H          4.85130        1.03120        2.82300
H          3.69100        1.16200        0.64240
H         -0.26110       -2.11210       -0.41660
H         -1.44060        3.24270       -1.23590
H         -0.66720        5.56900       -0.81640
H          0.77580        6.06770        1.14470
H          1.40890        4.25170        2.71490
H          0.62190        1.93540        2.31700
H         -5.27680        2.69510        1.41010
H         -5.65180        1.25590        2.44840
H         -6.19970        1.59700       -0.58960
H         -7.39790        1.23000        0.66850
H         -6.19640        0.01440        0.18280
H         -3.10310       -4.89360       -0.74900
H         -4.46110       -3.78620       -1.20590
H         -3.59970       -4.34800        1.72160
H         -4.98070       -5.15100        0.95220
H         -4.99810       -3.39750        1.21040
