50
rmsd170.gzmat
N          0.00000        0.00000        0.00000
N          1.39570        0.00000        0.00000
C          1.98950        0.00000        1.31210
C          3.23990        0.61590        1.45820
C          3.89870        0.53630        2.68110
C          3.31640       -0.13890        3.75320
C          2.07350       -0.75030        3.59860
C          1.40350       -0.68730        2.38070
C         -0.72020       -1.15370       -0.24690
C         -2.07500       -0.80660       -0.19390
C         -2.15850        0.58490        0.09680
C         -0.86160        1.08210        0.22950
C         -0.42590        2.43500        0.52080
C         -0.82320        3.47060       -0.33070
C         -0.42970        4.77810       -0.05910
C          0.35320        5.05340        1.06090
C          0.73230        4.02300        1.92060
C          0.33800        2.71490        1.65640
C         -3.37040        1.39650        0.23240
O         -3.72550        2.28560       -0.49960
O         -4.02990        1.03890        1.35770
C         -5.22440        1.76230        1.66350
C         -4.86320        3.11620        2.25350
C         -3.19670       -1.70110       -0.41830
O         -4.35460       -1.42070       -0.59470
O         -2.75320       -2.99240       -0.40950
C         -3.71810       -4.01090       -0.66900
C         -4.02380       -4.06950       -2.15720
H          1.73050        0.78360       -0.59050
H          3.69830        1.15030        0.62920
H          4.87220        1.01100        2.80130
H          3.83230       -0.18920        4.70930
H          1.62030       -1.28130        4.43600
H          0.43280       -1.17070        2.26630
H         -0.25800       -2.10590       -0.44940
H         -1.45870        3.25100       -1.19400
H         -0.74100        5.58520       -0.72040
H          0.66270        6.07570        1.27030
H          1.33100        4.24090        2.80290
H          0.61060        1.91460        2.34440
H         -5.70460        1.08640        2.39580
H         -5.85210        1.84630        0.75830
H         -4.10500        3.01680        3.04020
H         -5.73750        3.61230        2.68580
H         -4.44510        3.78210        1.48470
H         -4.62260       -3.82930       -0.06080
H         -3.18960       -4.91130       -0.30450
H         -4.57360       -3.17260       -2.48090
H         -4.63650       -4.94140       -2.40680
H         -3.10420       -4.11930       -2.75250
