rmsd151.gzmat
 OpenBabel08211713403D

 50 52  0  0  0  0  0  0  0  0999 V2000
    0.0000    0.0000    0.0000 N   0  0  0  0  0  0  0  0  0  0  0  0
    1.3966    0.0000    0.0000 N   0  0  0  0  0  0  0  0  0  0  0  0
    1.9835    0.0000    1.3158 C   0  0  0  0  0  0  0  0  0  0  0  0
    1.4294   -0.7571    2.3540 C   0  0  0  0  0  0  0  0  0  0  0  0
    2.0892   -0.8182    3.5773 C   0  0  0  0  0  0  0  0  0  0  0  0
    3.2901   -0.1362    3.7664 C   0  0  0  0  0  0  0  0  0  0  0  0
    3.8415    0.6066    2.7235 C   0  0  0  0  0  0  0  0  0  0  0  0
    3.1907    0.6871    1.4961 C   0  0  0  0  0  0  0  0  0  0  0  0
   -0.7230   -1.1175   -0.3756 C   0  0  0  0  0  0  0  0  0  0  0  0
   -2.0764   -0.7777   -0.2723 C   0  0  0  0  0  0  0  0  0  0  0  0
   -2.1576    0.5663    0.1946 C   0  0  0  0  0  0  0  0  0  0  0  0
   -0.8592    1.0455    0.3647 C   0  0  0  0  0  0  0  0  0  0  0  0
   -0.4054    2.3520    0.8054 C   0  0  0  0  0  0  0  0  0  0  0  0
   -0.5934    3.4554   -0.0314 C   0  0  0  0  0  0  0  0  0  0  0  0
   -0.1753    4.7163    0.3855 C   0  0  0  0  0  0  0  0  0  0  0  0
    0.4224    4.8759    1.6349 C   0  0  0  0  0  0  0  0  0  0  0  0
    0.5931    3.7770    2.4764 C   0  0  0  0  0  0  0  0  0  0  0  0
    0.1753    2.5145    2.0660 C   0  0  0  0  0  0  0  0  0  0  0  0
   -3.3731    1.3297    0.4774 C   0  0  0  0  0  0  0  0  0  0  0  0
   -4.2232    1.1061    1.2966 O   0  0  0  0  0  0  0  0  0  0  0  0
   -3.3906    2.4259   -0.3309 O   0  0  0  0  0  0  0  0  0  0  0  0
   -4.4336    3.3754   -0.1162 C   0  0  0  0  0  0  0  0  0  0  0  0
   -4.0788    4.2550    1.0728 C   0  0  0  0  0  0  0  0  0  0  0  0
   -3.1732   -1.6615   -0.6299 C   0  0  0  0  0  0  0  0  0  0  0  0
   -3.0992   -2.8397   -0.8863 O   0  0  0  0  0  0  0  0  0  0  0  0
   -4.3384   -0.9702   -0.6566 O   0  0  0  0  0  0  0  0  0  0  0  0
   -5.5184   -1.6831   -1.0280 C   0  0  0  0  0  0  0  0  0  0  0  0
   -5.6177   -1.7255   -2.5446 C   0  0  0  0  0  0  0  0  0  0  0  0
    1.7291    0.7891   -0.5843 H   0  0  0  0  0  0  0  0  0  0  0  0
    0.4932   -1.2972    2.2080 H   0  0  0  0  0  0  0  0  0  0  0  0
    1.6636   -1.4052    4.3913 H   0  0  0  0  0  0  0  0  0  0  0  0
    3.7978   -0.1835    4.7273 H   0  0  0  0  0  0  0  0  0  0  0  0
    4.7843    1.1329    2.8695 H   0  0  0  0  0  0  0  0  0  0  0  0
    3.6224    1.2777    0.6914 H   0  0  0  0  0  0  0  0  0  0  0  0
   -0.2636   -2.0402   -0.6924 H   0  0  0  0  0  0  0  0  0  0  0  0
   -1.0843    3.3241   -0.9982 H   0  0  0  0  0  0  0  0  0  0  0  0
   -0.3194    5.5773   -0.2644 H   0  0  0  0  0  0  0  0  0  0  0  0
    0.7509    5.8624    1.9577 H   0  0  0  0  0  0  0  0  0  0  0  0
    1.0489    3.9046    3.4566 H   0  0  0  0  0  0  0  0  0  0  0  0
    0.2923    1.6558    2.7281 H   0  0  0  0  0  0  0  0  0  0  0  0
   -5.3970    2.8523    0.0186 H   0  0  0  0  0  0  0  0  0  0  0  0
   -4.4321    3.9275   -1.0737 H   0  0  0  0  0  0  0  0  0  0  0  0
   -4.1072    3.6791    2.0091 H   0  0  0  0  0  0  0  0  0  0  0  0
   -4.7728    5.0943    1.1760 H   0  0  0  0  0  0  0  0  0  0  0  0
   -3.0632    4.6602    0.9773 H   0  0  0  0  0  0  0  0  0  0  0  0
   -6.3053   -1.0601   -0.5618 H   0  0  0  0  0  0  0  0  0  0  0  0
   -5.5154   -2.6900   -0.5746 H   0  0  0  0  0  0  0  0  0  0  0  0
   -5.5054   -0.7231   -2.9771 H   0  0  0  0  0  0  0  0  0  0  0  0
   -6.5801   -2.1303   -2.8731 H   0  0  0  0  0  0  0  0  0  0  0  0
   -4.8255   -2.3557   -2.9725 H   0  0  0  0  0  0  0  0  0  0  0  0
  1 12  1  0  0  0  0
  2  1  1  0  0  0  0
  2  3  1  0  0  0  0
  3  8  2  0  0  0  0
  3  4  1  0  0  0  0
  4  5  2  0  0  0  0
  5  6  1  0  0  0  0
  5 31  1  0  0  0  0
  6 32  1  0  0  0  0
  7 33  1  0  0  0  0
  7  6  2  0  0  0  0
  8  7  1  0  0  0  0
  9 10  2  0  0  0  0
  9  1  1  0  0  0  0
 10 11  1  0  0  0  0
 11 12  2  0  0  0  0
 11 19  1  0  0  0  0
 12 13  1  0  0  0  0
 13 18  2  0  0  0  0
 14 15  2  0  0  0  0
 14 13  1  0  0  0  0
 15 16  1  0  0  0  0
 16 38  1  0  0  0  0
 16 17  2  0  0  0  0
 17 39  1  0  0  0  0
 18 17  1  0  0  0  0
 18 40  1  0  0  0  0
 19 20  2  0  0  0  0
 21 22  1  0  0  0  0
 21 19  1  0  0  0  0
 22 41  1  0  0  0  0
 22 23  1  0  0  0  0
 23 44  1  0  0  0  0
 23 43  1  0  0  0  0
 24 10  1  0  0  0  0
 25 24  2  0  0  0  0
 26 24  1  0  0  0  0
 27 26  1  0  0  0  0
 27 47  1  0  0  0  0
 27 46  1  0  0  0  0
 28 27  1  0  0  0  0
 29  2  1  0  0  0  0
 30  4  1  0  0  0  0
 34  8  1  0  0  0  0
 35  9  1  0  0  0  0
 36 14  1  0  0  0  0
 37 15  1  0  0  0  0
 42 22  1  0  0  0  0
 45 23  1  0  0  0  0
 48 28  1  0  0  0  0
 49 28  1  0  0  0  0
 50 28  1  0  0  0  0
M  END
$$$$
