50

N         -0.08750        0.01650        0.23260
N          1.28940        0.04480        0.21540
C          1.99540       -0.03020        1.42910
C          3.34720        0.34970        1.44660
C          4.08340        0.26020        2.62660
C          3.48870       -0.20670        3.80350
C          2.14390       -0.58310        3.78140
C          1.39370       -0.50000        2.60590
C         -0.80370       -1.14390        0.11500
C         -2.14630       -0.81460        0.12420
C         -2.23370        0.61690        0.22340
C         -0.94020        1.12150        0.29550
C         -0.43470        2.50150        0.39530
C         -0.91530        3.48830       -0.48640
C         -0.43480        4.79630       -0.41140
C          0.53390        5.14120        0.53500
C          1.01130        4.17070        1.42040
C          0.52870        2.86330        1.35700
C         -3.48640        1.40880        0.30530
O         -3.74430        2.37780       -0.37480
O         -4.30260        0.91930        1.24760
C         -5.62690        1.46950        1.32030
C         -5.66550        2.72640        2.17160
C         -3.26480       -1.75010       -0.07690
O         -4.39220       -1.43610       -0.38510
O         -2.86860       -3.03220        0.09610
C         -3.85940       -4.05050       -0.10930
C         -4.71700       -4.25320        1.12800
H          1.65480        0.70160       -0.46750
H          3.81530        0.72180        0.53140
H          5.13320        0.56330        2.62560
H          4.06760       -0.27390        4.72670
H          1.66270       -0.94670        4.69260
H          0.34280       -0.79090        2.60270
H         -0.30320       -2.10100        0.00710
H         -1.68180        3.22140       -1.21280
H         -0.82040        5.55080       -1.10110
H          0.91070        6.16550        0.58780
H          1.75670        4.43290        2.17500
H          0.88460        2.12660        2.07670
H         -6.23660        0.66540        1.75600
H         -5.98210        1.67240        0.29940
H         -5.26510        2.52970        3.17840
H         -6.70400        3.07950        2.27580
H         -5.07310        3.52590        1.70420
H         -3.28450       -4.95620       -0.35090
H         -4.48110       -3.77700       -0.97480
H         -4.09120       -4.48320        2.00420
H         -5.41460       -5.09130        0.97060
H         -5.30590       -3.34920        1.33960
