rmsd222.gzmat
 OpenBabel08211713393D

 48 50  0  0  1  0  0  0  0  0999 V2000
    0.0000    0.0000    0.0000 N   0  0  0  0  0  0  0  0  0  0  0  0
    1.3714    0.0000    0.0000 C   0  0  0  0  0  0  0  0  0  0  0  0
    2.0235    0.0000    1.2075 N   0  0  0  0  0  0  0  0  0  0  0  0
    1.4120   -0.1072    2.4796 C   0  0  0  0  0  0  0  0  0  0  0  0
    0.1787    0.4872    2.7807 C   0  0  0  0  0  0  0  0  0  0  0  0
   -0.3399    0.3464    4.0634 C   0  0  0  0  0  0  0  0  0  0  0  0
    0.3476   -0.3632    5.0480 C   0  0  0  0  0  0  0  0  0  0  0  0
    1.5850   -0.9289    4.7459 C   0  0  0  0  0  0  0  0  0  0  0  0
    2.1231   -0.8060    3.4703 C   0  0  0  0  0  0  0  0  0  0  0  0
   -1.6712    0.9470    4.4173 C   0  0  0  0  0  0  0  0  0  0  0  0
   -2.6275    0.0366    4.6106 F   0  0  0  0  0  0  0  0  0  0  0  0
   -1.6582    1.6567    5.5478 F   0  0  0  0  0  0  0  0  0  0  0  0
   -2.1907    1.7843    3.5216 F   0  0  0  0  0  0  0  0  0  0  0  0
    2.1088   -0.0006   -1.2233 C   0  0  2  0  0  0  0  0  0  0  0  0
    1.3904    0.0156   -2.4267 C   0  0  0  0  0  0  0  0  0  0  0  0
    0.0059    0.0218   -2.4122 C   0  0  0  0  0  0  0  0  0  0  0  0
   -0.6485    0.0098   -1.1650 C   0  0  0  0  0  0  0  0  0  0  0  0
    3.5647   -0.0246   -1.2250 C   0  0  0  0  0  0  0  0  0  0  0  0
    4.2885   -0.0547   -0.2473 O   0  0  0  0  0  0  0  0  0  0  0  0
    4.0702   -0.0202   -2.4786 O   0  0  0  0  0  0  0  0  0  0  0  0
    5.4946   -0.0119   -2.6106 C   0  0  0  0  0  0  0  0  0  0  0  0
    6.0904   -1.3883   -2.2867 C   0  0  0  0  0  0  0  0  0  0  0  0
    6.0469   -2.2239   -3.5098 N   0  0  0  0  0  0  0  0  0  0  0  0
    4.6944   -2.7981   -3.7159 C   0  0  0  0  0  0  0  0  0  0  0  0
    4.7052   -3.5991   -5.0300 C   0  0  0  0  0  0  0  0  0  0  0  0
    5.6940   -4.6118   -4.9851 O   0  0  0  0  0  0  0  0  0  0  0  0
    6.9905   -4.0818   -4.7842 C   0  0  0  0  0  0  0  0  0  0  0  0
    7.0504   -3.3153   -3.4489 C   0  0  0  0  0  0  0  0  0  0  0  0
    3.0556   -0.0575    1.1744 H   0  0  0  0  0  0  0  0  0  0  0  0
   -0.3582    1.0440    2.0054 H   0  0  0  0  0  0  0  0  0  0  0  0
   -0.0689   -0.4818    6.0487 H   0  0  0  0  0  0  0  0  0  0  0  0
    2.1309   -1.4775    5.5136 H   0  0  0  0  0  0  0  0  0  0  0  0
    3.0870   -1.2588    3.2391 H   0  0  0  0  0  0  0  0  0  0  0  0
    1.9324    0.0223   -3.3791 H   0  0  0  0  0  0  0  0  0  0  0  0
   -0.5692    0.0364   -3.3309 H   0  0  0  0  0  0  0  0  0  0  0  0
   -1.7467    0.0091   -1.0915 H   0  0  0  0  0  0  0  0  0  0  0  0
    5.9156    0.7788   -1.9659 H   0  0  0  0  0  0  0  0  0  0  0  0
    5.6082    0.2520   -3.6822 H   0  0  0  0  0  0  0  0  0  0  0  0
    5.5653   -1.8427   -1.4178 H   0  0  0  0  0  0  0  0  0  0  0  0
    7.1501   -1.2534   -1.9728 H   0  0  0  0  0  0  0  0  0  0  0  0
    3.9643   -1.9630   -3.7887 H   0  0  0  0  0  0  0  0  0  0  0  0
    4.3721   -3.4503   -2.8767 H   0  0  0  0  0  0  0  0  0  0  0  0
    3.7724   -4.1724   -5.1715 H   0  0  0  0  0  0  0  0  0  0  0  0
    4.8841   -2.9456   -5.9015 H   0  0  0  0  0  0  0  0  0  0  0  0
    7.6294   -4.9818   -4.7750 H   0  0  0  0  0  0  0  0  0  0  0  0
    7.2621   -3.4324   -5.6349 H   0  0  0  0  0  0  0  0  0  0  0  0
    6.8780   -4.0143   -2.6038 H   0  0  0  0  0  0  0  0  0  0  0  0
    8.0574   -2.8676   -3.3169 H   0  0  0  0  0  0  0  0  0  0  0  0
  2  1  2  0  0  0  0
  2  3  1  0  0  0  0
  3  4  1  0  0  0  0
  4  5  2  0  0  0  0
  4  9  1  0  0  0  0
  5  6  1  0  0  0  0
  6 10  1  0  0  0  0
  6  7  2  0  0  0  0
  7 31  1  0  0  0  0
  8  7  1  0  0  0  0
  8 32  1  0  0  0  0
  9  8  2  0  0  0  0
 10 11  1  0  0  0  0
 10 12  1  0  0  0  0
 13 10  1  0  0  0  0
 14 18  1  6  0  0  0
 14  2  1  0  0  0  0
 15 16  2  0  0  0  0
 15 14  1  0  0  0  0
 16 17  1  0  0  0  0
 17 36  1  0  0  0  0
 17  1  2  0  0  0  0
 18 19  2  0  0  0  0
 20 18  1  0  0  0  0
 21 20  1  0  0  0  0
 21 22  1  0  0  0  0
 21 37  1  0  0  0  0
 22 40  1  0  0  0  0
 22 39  1  0  0  0  0
 23 28  1  0  0  0  0
 23 22  1  0  0  0  0
 24 23  1  0  0  0  0
 24 42  1  0  0  0  0
 25 26  1  0  0  0  0
 25 24  1  0  0  0  0
 26 27  1  0  0  0  0
 27 45  1  0  0  0  0
 27 28  1  0  0  0  0
 28 48  1  0  0  0  0
 28 47  1  0  0  0  0
 29  3  1  0  0  0  0
 30  5  1  0  0  0  0
 33  9  1  0  0  0  0
 34 15  1  0  0  0  0
 35 16  1  0  0  0  0
 38 21  1  0  0  0  0
 41 24  1  0  0  0  0
 43 25  1  0  0  0  0
 44 25  1  0  0  0  0
 46 27  1  0  0  0  0
M  RAD  1  14   2
M  END
$$$$
