
     RDKit          3D

 48 50  0  0  0  0  0  0  0  0999 V2000
    0.1741    0.2060   -0.2968 N   0  0  0  0  0  0  0  0  0  0  0  0
    1.5138    0.2019   -0.2224 C   0  0  0  0  0  0  0  0  0  0  0  0
    2.1194    0.0754    0.9940 N   0  0  0  0  0  0  0  0  0  0  0  0
    1.5958   -0.0678    2.2809 C   0  0  0  0  0  0  0  0  0  0  0  0
    0.2259   -0.1053    2.5917 C   0  0  0  0  0  0  0  0  0  0  0  0
   -0.1756   -0.2509    3.9220 C   0  0  0  0  0  0  0  0  0  0  0  0
    0.7526   -0.3566    4.9609 C   0  0  0  0  0  0  0  0  0  0  0  0
    2.1139   -0.3181    4.6489 C   0  0  0  0  0  0  0  0  0  0  0  0
    2.5327   -0.1770    3.3299 C   0  0  0  0  0  0  0  0  0  0  0  0
   -1.6495   -0.3516    4.2215 C   0  0  0  0  0  0  0  0  0  0  0  0
   -2.0889   -1.6223    4.1179 F   0  0  0  0  0  0  0  0  0  0  0  0
   -1.9387    0.0589    5.4701 F   0  0  0  0  0  0  0  0  0  0  0  0
   -2.3896    0.3849    3.3743 F   0  0  0  0  0  0  0  0  0  0  0  0
    2.3223    0.3269   -1.4061 C   0  0  0  0  0  0  0  0  0  0  0  0
    1.6620    0.4551   -2.6346 C   0  0  0  0  0  0  0  0  0  0  0  0
    0.2719    0.4577   -2.6890 C   0  0  0  0  0  0  0  0  0  0  0  0
   -0.4174    0.3285   -1.4795 C   0  0  0  0  0  0  0  0  0  0  0  0
    3.7967    0.3082   -1.3429 C   0  0  0  0  0  0  0  0  0  0  0  0
    4.4538    0.1939   -0.3167 O   0  0  0  0  0  0  0  0  0  0  0  0
    4.3732    0.4168   -2.5476 O   0  0  0  0  0  0  0  0  0  0  0  0
    5.8037    0.3029   -2.6173 C   0  0  0  0  0  0  0  0  0  0  0  0
    6.2772   -1.1529   -2.5383 C   0  0  0  0  0  0  0  0  0  0  0  0
    5.7779   -2.0713   -3.5376 N   0  0  0  0  0  0  0  0  0  0  0  0
    6.0608   -1.7310   -4.9203 C   0  0  0  0  0  0  0  0  0  0  0  0
    5.7725   -2.9377   -5.8104 C   0  0  0  0  0  0  0  0  0  0  0  0
    4.4475   -3.3941   -5.6417 O   0  0  0  0  0  0  0  0  0  0  0  0
    4.1888   -3.7460   -4.2969 C   0  0  0  0  0  0  0  0  0  0  0  0
    4.4149   -2.5566   -3.3700 C   0  0  0  0  0  0  0  0  0  0  0  0
    3.1398    0.0853    0.9252 H   0  0  0  0  0  0  0  0  0  0  0  0
   -0.5028   -0.0132    1.7928 H   0  0  0  0  0  0  0  0  0  0  0  0
    0.4160   -0.4606    5.9926 H   0  0  0  0  0  0  0  0  0  0  0  0
    2.8585   -0.3960    5.4441 H   0  0  0  0  0  0  0  0  0  0  0  0
    3.6003   -0.1461    3.0963 H   0  0  0  0  0  0  0  0  0  0  0  0
    2.2608    0.5531   -3.5401 H   0  0  0  0  0  0  0  0  0  0  0  0
   -0.2645    0.5556   -3.6333 H   0  0  0  0  0  0  0  0  0  0  0  0
   -1.5139    0.3242   -1.4682 H   0  0  0  0  0  0  0  0  0  0  0  0
    6.2594    0.8859   -1.8032 H   0  0  0  0  0  0  0  0  0  0  0  0
    6.0671    0.7599   -3.5804 H   0  0  0  0  0  0  0  0  0  0  0  0
    6.0276   -1.5494   -1.5424 H   0  0  0  0  0  0  0  0  0  0  0  0
    7.3812   -1.1238   -2.5994 H   0  0  0  0  0  0  0  0  0  0  0  0
    7.1223   -1.4462   -5.0182 H   0  0  0  0  0  0  0  0  0  0  0  0
    5.4485   -0.8735   -5.2816 H   0  0  0  0  0  0  0  0  0  0  0  0
    5.8903   -2.6741   -6.8724 H   0  0  0  0  0  0  0  0  0  0  0  0
    6.4916   -3.7455   -5.5638 H   0  0  0  0  0  0  0  0  0  0  0  0
    3.1426   -4.0833   -4.2482 H   0  0  0  0  0  0  0  0  0  0  0  0
    4.8473   -4.5824   -3.9858 H   0  0  0  0  0  0  0  0  0  0  0  0
    3.6554   -1.7817   -3.6037 H   0  0  0  0  0  0  0  0  0  0  0  0
    4.2650   -2.8635   -2.3218 H   0  0  0  0  0  0  0  0  0  0  0  0
  1  2  2  0
  1 17  1  0
  2  3  1  0
  2 14  1  0
  3  4  1  0
  3 29  1  0
  4  5  2  0
  4  9  1  0
  5  6  1  0
  5 30  1  0
  6  7  2  0
  6 10  1  0
  7  8  1  0
  7 31  1  0
  8  9  2  0
  8 32  1  0
  9 33  1  0
 10 11  1  0
 10 12  1  0
 10 13  1  0
 14 15  2  0
 14 18  1  0
 15 16  1  0
 15 34  1  0
 16 17  2  0
 16 35  1  0
 17 36  1  0
 18 19  2  0
 18 20  1  0
 20 21  1  0
 21 22  1  0
 21 37  1  0
 21 38  1  0
 22 23  1  0
 22 39  1  0
 22 40  1  0
 23 24  1  0
 23 28  1  0
 24 25  1  0
 24 41  1  0
 24 42  1  0
 25 26  1  0
 25 43  1  0
 25 44  1  0
 26 27  1  0
 27 28  1  0
 27 45  1  0
 27 46  1  0
 28 47  1  0
 28 48  1  0
M  END

