rmsd207.gzmat
 OpenBabel08211713393D

 48 50  0  0  1  0  0  0  0  0999 V2000
    0.0000    0.0000    0.0000 N   0  0  0  0  0  0  0  0  0  0  0  0
    1.3685    0.0000    0.0000 C   0  0  0  0  0  0  0  0  0  0  0  0
    2.0411    0.0000    1.1980 N   0  0  0  0  0  0  0  0  0  0  0  0
    1.5205   -0.0182    2.5099 C   0  0  0  0  0  0  0  0  0  0  0  0
    0.1662    0.1201    2.8414 C   0  0  0  0  0  0  0  0  0  0  0  0
   -0.2086    0.0949    4.1812 C   0  0  0  0  0  0  0  0  0  0  0  0
    0.7315   -0.0610    5.1976 C   0  0  0  0  0  0  0  0  0  0  0  0
    2.0788   -0.1915    4.8631 C   0  0  0  0  0  0  0  0  0  0  0  0
    2.4784   -0.1718    3.5343 C   0  0  0  0  0  0  0  0  0  0  0  0
   -1.6538    0.2247    4.5759 C   0  0  0  0  0  0  0  0  0  0  0  0
   -2.1435   -0.8778    5.1470 F   0  0  0  0  0  0  0  0  0  0  0  0
   -1.8793    1.1886    5.4714 F   0  0  0  0  0  0  0  0  0  0  0  0
   -2.5121    0.4924    3.5940 F   0  0  0  0  0  0  0  0  0  0  0  0
    2.1011    0.0009   -1.2299 C   0  0  2  0  0  0  0  0  0  0  0  0
    1.3785    0.0127   -2.4303 C   0  0  0  0  0  0  0  0  0  0  0  0
   -0.0062    0.0157   -2.4117 C   0  0  0  0  0  0  0  0  0  0  0  0
   -0.6543    0.0073   -1.1631 C   0  0  0  0  0  0  0  0  0  0  0  0
    3.5572   -0.0109   -1.2447 C   0  0  0  0  0  0  0  0  0  0  0  0
    4.2909   -0.0523   -0.2752 O   0  0  0  0  0  0  0  0  0  0  0  0
    4.0562    0.0301   -2.5023 O   0  0  0  0  0  0  0  0  0  0  0  0
    5.4813    0.0168   -2.6317 C   0  0  0  0  0  0  0  0  0  0  0  0
    6.0037   -1.4233   -2.5292 C   0  0  0  0  0  0  0  0  0  0  0  0
    5.8650   -2.2681   -3.7272 N   0  0  0  0  0  0  0  0  0  0  0  0
    6.7023   -1.7909   -4.8533 C   0  0  0  0  0  0  0  0  0  0  0  0
    6.5779   -2.8178   -5.9957 C   0  0  0  0  0  0  0  0  0  0  0  0
    5.2249   -2.9439   -6.3918 O   0  0  0  0  0  0  0  0  0  0  0  0
    4.4013   -3.3941   -5.3308 C   0  0  0  0  0  0  0  0  0  0  0  0
    4.4525   -2.3991   -4.1567 C   0  0  0  0  0  0  0  0  0  0  0  0
    3.0771   -0.0282    1.1236 H   0  0  0  0  0  0  0  0  0  0  0  0
   -0.5848    0.2440    2.0527 H   0  0  0  0  0  0  0  0  0  0  0  0
    0.4306   -0.0838    6.2449 H   0  0  0  0  0  0  0  0  0  0  0  0
    2.8226   -0.3107    5.6514 H   0  0  0  0  0  0  0  0  0  0  0  0
    3.5351   -0.2773    3.2868 H   0  0  0  0  0  0  0  0  0  0  0  0
    1.9156    0.0191   -3.3854 H   0  0  0  0  0  0  0  0  0  0  0  0
   -0.5828    0.0256   -3.3295 H   0  0  0  0  0  0  0  0  0  0  0  0
   -1.7521    0.0059   -1.0836 H   0  0  0  0  0  0  0  0  0  0  0  0
    5.9357    0.6739   -1.8680 H   0  0  0  0  0  0  0  0  0  0  0  0
    5.6133    0.4598   -3.6357 H   0  0  0  0  0  0  0  0  0  0  0  0
    5.4825   -1.9470   -1.6901 H   0  0  0  0  0  0  0  0  0  0  0  0
    7.0808   -1.4109   -2.2435 H   0  0  0  0  0  0  0  0  0  0  0  0
    7.7568   -1.7289   -4.5129 H   0  0  0  0  0  0  0  0  0  0  0  0
    6.4072   -0.7865   -5.2221 H   0  0  0  0  0  0  0  0  0  0  0  0
    7.0776   -2.4751   -6.9177 H   0  0  0  0  0  0  0  0  0  0  0  0
    6.9710   -3.8056   -5.6963 H   0  0  0  0  0  0  0  0  0  0  0  0
    3.4011   -3.4353   -5.7952 H   0  0  0  0  0  0  0  0  0  0  0  0
    4.7171   -4.4060   -5.0224 H   0  0  0  0  0  0  0  0  0  0  0  0
    4.0032   -1.4297   -4.4628 H   0  0  0  0  0  0  0  0  0  0  0  0
    3.8568   -2.7840   -3.3023 H   0  0  0  0  0  0  0  0  0  0  0  0
  1  2  2  0  0  0  0
  2  3  1  0  0  0  0
  3  4  1  0  0  0  0
  4  5  2  0  0  0  0
  4  9  1  0  0  0  0
  5  6  1  0  0  0  0
  6 10  1  0  0  0  0
  6  7  2  0  0  0  0
  7 31  1  0  0  0  0
  8  7  1  0  0  0  0
  8 32  1  0  0  0  0
  9  8  2  0  0  0  0
 10 11  1  0  0  0  0
 10 12  1  0  0  0  0
 13 10  1  0  0  0  0
 14 18  1  6  0  0  0
 14  2  1  0  0  0  0
 15 16  2  0  0  0  0
 15 14  1  0  0  0  0
 16 17  1  0  0  0  0
 17 36  1  0  0  0  0
 17  1  2  0  0  0  0
 18 19  2  0  0  0  0
 20 18  1  0  0  0  0
 21 22  1  0  0  0  0
 21 20  1  0  0  0  0
 21 37  1  0  0  0  0
 22 40  1  0  0  0  0
 22 39  1  0  0  0  0
 23 22  1  0  0  0  0
 24 41  1  0  0  0  0
 24 23  1  0  0  0  0
 25 44  1  0  0  0  0
 25 24  1  0  0  0  0
 26 25  1  0  0  0  0
 26 27  1  0  0  0  0
 27 46  1  0  0  0  0
 27 28  1  0  0  0  0
 28 23  1  0  0  0  0
 28 48  1  0  0  0  0
 29  3  1  0  0  0  0
 30  5  1  0  0  0  0
 33  9  1  0  0  0  0
 34 15  1  0  0  0  0
 35 16  1  0  0  0  0
 38 21  1  0  0  0  0
 42 24  1  0  0  0  0
 43 25  1  0  0  0  0
 45 27  1  0  0  0  0
 47 28  1  0  0  0  0
M  RAD  1  14   2
M  END
$$$$
