rmsd244.gzmat
 OpenBabel08211713393D

 48 50  0  0  1  0  0  0  0  0999 V2000
    0.0000    0.0000    0.0000 N   0  0  0  0  0  0  0  0  0  0  0  0
    1.3715    0.0000    0.0000 C   0  0  0  0  0  0  0  0  0  0  0  0
    2.0262    0.0000    1.2054 N   0  0  0  0  0  0  0  0  0  0  0  0
    1.4185   -0.0056    2.4840 C   0  0  0  0  0  0  0  0  0  0  0  0
    2.1055   -0.6833    3.5072 C   0  0  0  0  0  0  0  0  0  0  0  0
    1.5780   -0.6747    4.7929 C   0  0  0  0  0  0  0  0  0  0  0  0
    0.3868   -0.0069    5.0792 C   0  0  0  0  0  0  0  0  0  0  0  0
   -0.2839    0.6634    4.0583 C   0  0  0  0  0  0  0  0  0  0  0  0
    0.2241    0.6723    2.7632 C   0  0  0  0  0  0  0  0  0  0  0  0
    2.2757   -1.3851    5.9191 C   0  0  0  0  0  0  0  0  0  0  0  0
    2.7003   -0.5639    6.8815 F   0  0  0  0  0  0  0  0  0  0  0  0
    1.5013   -2.2681    6.5528 F   0  0  0  0  0  0  0  0  0  0  0  0
    3.3587   -2.0850    5.5855 F   0  0  0  0  0  0  0  0  0  0  0  0
    2.1077   -0.0047   -1.2243 C   0  0  2  0  0  0  0  0  0  0  0  0
    1.3904   -0.0182   -2.4276 C   0  0  0  0  0  0  0  0  0  0  0  0
    0.0056   -0.0278   -2.4131 C   0  0  0  0  0  0  0  0  0  0  0  0
   -0.6474   -0.0175   -1.1664 C   0  0  0  0  0  0  0  0  0  0  0  0
    3.5640   -0.0015   -1.2291 C   0  0  0  0  0  0  0  0  0  0  0  0
    4.2947   -0.1136   -0.2650 O   0  0  0  0  0  0  0  0  0  0  0  0
    4.0595    0.1519   -2.4812 O   0  0  0  0  0  0  0  0  0  0  0  0
    5.4813    0.1434   -2.6164 C   0  0  0  0  0  0  0  0  0  0  0  0
    5.9683   -1.3174   -2.5890 C   0  0  0  0  0  0  0  0  0  0  0  0
    7.2312   -1.5836   -3.2927 N   0  0  0  0  0  0  0  0  0  0  0  0
    8.3574   -0.7873   -2.7517 C   0  0  0  0  0  0  0  0  0  0  0  0
    9.6437   -1.2574   -3.4586 C   0  0  0  0  0  0  0  0  0  0  0  0
    9.5210   -1.0892   -4.8591 O   0  0  0  0  0  0  0  0  0  0  0  0
    8.4469   -1.8408   -5.3930 C   0  0  0  0  0  0  0  0  0  0  0  0
    7.1174   -1.3907   -4.7573 C   0  0  0  0  0  0  0  0  0  0  0  0
    3.0561   -0.0966    1.1726 H   0  0  0  0  0  0  0  0  0  0  0  0
    3.0339   -1.2081    3.2749 H   0  0  0  0  0  0  0  0  0  0  0  0
   -0.0245   -0.0029    6.0889 H   0  0  0  0  0  0  0  0  0  0  0  0
   -1.2152    1.1874    4.2741 H   0  0  0  0  0  0  0  0  0  0  0  0
   -0.3113    1.2012    1.9715 H   0  0  0  0  0  0  0  0  0  0  0  0
    1.9331   -0.0245   -3.3798 H   0  0  0  0  0  0  0  0  0  0  0  0
   -0.5685   -0.0431   -3.3322 H   0  0  0  0  0  0  0  0  0  0  0  0
   -1.7450   -0.0241   -1.0941 H   0  0  0  0  0  0  0  0  0  0  0  0
    5.9444    0.7602   -1.8274 H   0  0  0  0  0  0  0  0  0  0  0  0
    5.6134    0.6270   -3.6010 H   0  0  0  0  0  0  0  0  0  0  0  0
    5.1832   -1.9791   -3.0242 H   0  0  0  0  0  0  0  0  0  0  0  0
    6.0897   -1.6533   -1.5312 H   0  0  0  0  0  0  0  0  0  0  0  0
    8.4328   -0.9750   -1.6593 H   0  0  0  0  0  0  0  0  0  0  0  0
    8.2273    0.3053   -2.8949 H   0  0  0  0  0  0  0  0  0  0  0  0
   10.5122   -0.6241   -3.2090 H   0  0  0  0  0  0  0  0  0  0  0  0
    9.8667   -2.3141   -3.2290 H   0  0  0  0  0  0  0  0  0  0  0  0
    8.4910   -1.6076   -6.4705 H   0  0  0  0  0  0  0  0  0  0  0  0
    8.6290   -2.9177   -5.2302 H   0  0  0  0  0  0  0  0  0  0  0  0
    6.9016   -0.3410   -5.0460 H   0  0  0  0  0  0  0  0  0  0  0  0
    6.2843   -2.0195   -5.1360 H   0  0  0  0  0  0  0  0  0  0  0  0
  1  2  2  0  0  0  0
  2  3  1  0  0  0  0
  3  4  1  0  0  0  0
  4  9  2  0  0  0  0
  4  5  1  0  0  0  0
  5  6  2  0  0  0  0
  6  7  1  0  0  0  0
  6 10  1  0  0  0  0
  7 31  1  0  0  0  0
  8 32  1  0  0  0  0
  8  7  2  0  0  0  0
  9  8  1  0  0  0  0
 10 12  1  0  0  0  0
 10 11  1  0  0  0  0
 13 10  1  0  0  0  0
 14 18  1  1  0  0  0
 14  2  1  0  0  0  0
 15 16  2  0  0  0  0
 15 14  1  0  0  0  0
 16 17  1  0  0  0  0
 17 36  1  0  0  0  0
 17  1  2  0  0  0  0
 18 19  2  0  0  0  0
 20 18  1  0  0  0  0
 21 22  1  0  0  0  0
 21 20  1  0  0  0  0
 21 37  1  0  0  0  0
 22 40  1  0  0  0  0
 23 24  1  0  0  0  0
 23 22  1  0  0  0  0
 24 41  1  0  0  0  0
 25 44  1  0  0  0  0
 25 43  1  0  0  0  0
 25 24  1  0  0  0  0
 26 25  1  0  0  0  0
 27 46  1  0  0  0  0
 27 26  1  0  0  0  0
 27 28  1  0  0  0  0
 28 23  1  0  0  0  0
 29  3  1  0  0  0  0
 30  5  1  0  0  0  0
 33  9  1  0  0  0  0
 34 15  1  0  0  0  0
 35 16  1  0  0  0  0
 38 21  1  0  0  0  0
 39 22  1  0  0  0  0
 42 24  1  0  0  0  0
 45 27  1  0  0  0  0
 47 28  1  0  0  0  0
 48 28  1  0  0  0  0
M  RAD  1  14   2
M  END
$$$$
