48
rmsd125.gzmat
N          0.00000        0.00000        0.00000
C          1.37130        0.00000        0.00000
N          2.02380        0.00000        1.20670
C          1.41360       -0.05970        2.48240
C          0.19200        0.56510        2.76910
C         -0.32340        0.47680        4.05800
C          0.35490       -0.21330        5.06230
C          1.58080       -0.81090        4.77370
C          2.11700       -0.73810        3.49360
C         -1.64640        1.10910        4.38790
F         -2.64340        0.22750        4.48220
F         -1.66470        1.75440        5.55640
F         -2.08820        2.01610        3.51810
C          2.10750       -0.00240       -1.22470
C          1.38800        0.01370       -2.42750
C          0.00360        0.01760       -2.41160
C         -0.64920        0.00570       -1.16440
C          3.56270       -0.02590       -1.22600
O          4.28140       -0.08130       -0.24610
O          4.06980        0.02470       -2.47860
C          5.49240       -0.00400       -2.62160
C          5.92410       -1.45600       -2.89270
N          6.95750       -2.02190       -2.01060
C          6.50340       -2.14980       -0.60600
C          7.60370       -2.89060        0.17510
O          8.82390       -2.17490        0.09770
C          9.27190       -2.02670       -1.23590
C          8.22730       -1.26080       -2.07180
H          3.05500       -0.07510        1.17370
H         -0.33960        1.10460        1.97810
H         -0.05970       -0.29290        6.06760
H          2.12020       -1.34360        5.55730
H          3.07430       -1.21080        3.27540
H          1.92910        0.02170       -3.38020
H         -0.57160        0.02990       -3.33020
H         -1.74740        0.00150       -1.08970
H          5.98820        0.43750       -1.73880
H          5.63950        0.65620       -3.49580
H          6.29500       -1.55340       -3.93850
H          5.02960       -2.12280       -2.83660
H          5.55860       -2.73130       -0.58520
H          6.29390       -1.16810       -0.12440
H          7.39810       -2.91090        1.25930
H          7.75270       -3.91700       -0.20310
H         10.20890       -1.45480       -1.12050
H          9.48380       -3.02000       -1.66890
H          8.13240       -0.22270       -1.68950
H          8.55900       -1.20160       -3.12910
