48
rmsd222.gzmat
N          0.00000        0.00000        0.00000
C          1.37140        0.00000        0.00000
N          2.02350        0.00000        1.20750
C          1.41200       -0.10720        2.47960
C          0.17870        0.48720        2.78070
C         -0.33990        0.34640        4.06340
C          0.34760       -0.36320        5.04800
C          1.58500       -0.92890        4.74590
C          2.12310       -0.80600        3.47030
C         -1.67120        0.94700        4.41730
F         -2.62750        0.03660        4.61060
F         -1.65820        1.65670        5.54780
F         -2.19070        1.78430        3.52160
C          2.10880       -0.00060       -1.22330
C          1.39040        0.01560       -2.42670
C          0.00590        0.02180       -2.41220
C         -0.64850        0.00980       -1.16500
C          3.56470       -0.02460       -1.22500
O          4.28850       -0.05470       -0.24730
O          4.07020       -0.02020       -2.47860
C          5.49460       -0.01190       -2.61060
C          6.09040       -1.38830       -2.28670
N          6.04690       -2.22390       -3.50980
C          4.69440       -2.79810       -3.71590
C          4.70520       -3.59910       -5.03000
O          5.69400       -4.61180       -4.98510
C          6.99050       -4.08180       -4.78420
C          7.05040       -3.31530       -3.44890
H          3.05560       -0.05750        1.17440
H         -0.35820        1.04400        2.00540
H         -0.06890       -0.48180        6.04870
H          2.13090       -1.47750        5.51360
H          3.08700       -1.25880        3.23910
H          1.93240        0.02230       -3.37910
H         -0.56920        0.03640       -3.33090
H         -1.74670        0.00910       -1.09150
H          5.91560        0.77880       -1.96590
H          5.60820        0.25200       -3.68220
H          5.56530       -1.84270       -1.41780
H          7.15010       -1.25340       -1.97280
H          3.96430       -1.96300       -3.78870
H          4.37210       -3.45030       -2.87670
H          3.77240       -4.17240       -5.17150
H          4.88410       -2.94560       -5.90150
H          7.62940       -4.98180       -4.77500
H          7.26210       -3.43240       -5.63490
H          6.87800       -4.01430       -2.60380
H          8.05740       -2.86760       -3.31690
