48
rmsd244.gzmat
N          0.00000        0.00000        0.00000
C          1.37150        0.00000        0.00000
N          2.02620        0.00000        1.20540
C          1.41850       -0.00560        2.48400
C          2.10550       -0.68330        3.50720
C          1.57800       -0.67470        4.79290
C          0.38680       -0.00690        5.07920
C         -0.28390        0.66340        4.05830
C          0.22410        0.67230        2.76320
C          2.27570       -1.38510        5.91910
F          2.70030       -0.56390        6.88150
F          1.50130       -2.26810        6.55280
F          3.35870       -2.08500        5.58550
C          2.10770       -0.00470       -1.22430
C          1.39040       -0.01820       -2.42760
C          0.00560       -0.02780       -2.41310
C         -0.64740       -0.01750       -1.16640
C          3.56400       -0.00150       -1.22910
O          4.29470       -0.11360       -0.26500
O          4.05950        0.15190       -2.48120
C          5.48130        0.14340       -2.61640
C          5.96830       -1.31740       -2.58900
N          7.23120       -1.58360       -3.29270
C          8.35740       -0.78730       -2.75170
C          9.64370       -1.25740       -3.45860
O          9.52100       -1.08920       -4.85910
C          8.44690       -1.84080       -5.39300
C          7.11740       -1.39070       -4.75730
H          3.05610       -0.09660        1.17260
H          3.03390       -1.20810        3.27490
H         -0.02450       -0.00290        6.08890
H         -1.21520        1.18740        4.27410
H         -0.31130        1.20120        1.97150
H          1.93310       -0.02450       -3.37980
H         -0.56850       -0.04310       -3.33220
H         -1.74500       -0.02410       -1.09410
H          5.94440        0.76020       -1.82740
H          5.61340        0.62700       -3.60100
H          5.18320       -1.97910       -3.02420
H          6.08970       -1.65330       -1.53120
H          8.43280       -0.97500       -1.65930
H          8.22730        0.30530       -2.89490
H         10.51220       -0.62410       -3.20900
H          9.86670       -2.31410       -3.22900
H          8.49100       -1.60760       -6.47050
H          8.62900       -2.91770       -5.23020
H          6.90160       -0.34100       -5.04600
H          6.28430       -2.01950       -5.13600
