
     RDKit          3D

 48 50  0  0  0  0  0  0  0  0999 V2000
   -0.2319    0.2035   -0.1138 N   0  0  0  0  0  0  0  0  0  0  0  0
    1.1059    0.1132   -0.1766 C   0  0  0  0  0  0  0  0  0  0  0  0
    1.8235   -0.0681    0.9691 N   0  0  0  0  0  0  0  0  0  0  0  0
    1.4307   -0.1953    2.3037 C   0  0  0  0  0  0  0  0  0  0  0  0
    2.4689   -0.3893    3.2365 C   0  0  0  0  0  0  0  0  0  0  0  0
    2.1874   -0.5308    4.5923 C   0  0  0  0  0  0  0  0  0  0  0  0
    0.8666   -0.4864    5.0552 C   0  0  0  0  0  0  0  0  0  0  0  0
   -0.1593   -0.2934    4.1314 C   0  0  0  0  0  0  0  0  0  0  0  0
    0.1030   -0.1471    2.7676 C   0  0  0  0  0  0  0  0  0  0  0  0
    3.3146   -0.6824    5.5801 C   0  0  0  0  0  0  0  0  0  0  0  0
    3.6170    0.4911    6.1701 F   0  0  0  0  0  0  0  0  0  0  0  0
    2.9998   -1.5414    6.5666 F   0  0  0  0  0  0  0  0  0  0  0  0
    4.4429   -1.1305    5.0003 F   0  0  0  0  0  0  0  0  0  0  0  0
    1.7964    0.2047   -1.4362 C   0  0  0  0  0  0  0  0  0  0  0  0
    1.0253    0.3915   -2.5894 C   0  0  0  0  0  0  0  0  0  0  0  0
   -0.3603    0.4830   -2.5020 C   0  0  0  0  0  0  0  0  0  0  0  0
   -0.9300    0.3805   -1.2296 C   0  0  0  0  0  0  0  0  0  0  0  0
    3.2673    0.1042   -1.5225 C   0  0  0  0  0  0  0  0  0  0  0  0
    4.0143   -0.0584   -0.5674 O   0  0  0  0  0  0  0  0  0  0  0  0
    3.7295    0.2135   -2.7769 O   0  0  0  0  0  0  0  0  0  0  0  0
    5.1489    0.1108   -2.9705 C   0  0  0  0  0  0  0  0  0  0  0  0
    5.5728   -1.3636   -3.0584 C   0  0  0  0  0  0  0  0  0  0  0  0
    6.9789   -1.5913   -3.3059 N   0  0  0  0  0  0  0  0  0  0  0  0
    7.8844   -1.1930   -2.2384 C   0  0  0  0  0  0  0  0  0  0  0  0
    9.2731   -1.7600   -2.5154 C   0  0  0  0  0  0  0  0  0  0  0  0
    9.7465   -1.3509   -3.7825 O   0  0  0  0  0  0  0  0  0  0  0  0
    8.8770   -1.7611   -4.8164 C   0  0  0  0  0  0  0  0  0  0  0  0
    7.4742   -1.1948   -4.6140 C   0  0  0  0  0  0  0  0  0  0  0  0
    2.8302   -0.1202    0.7938 H   0  0  0  0  0  0  0  0  0  0  0  0
    3.5037   -0.4356    2.8918 H   0  0  0  0  0  0  0  0  0  0  0  0
    0.6516   -0.6074    6.1177 H   0  0  0  0  0  0  0  0  0  0  0  0
   -1.1957   -0.2581    4.4754 H   0  0  0  0  0  0  0  0  0  0  0  0
   -0.6990    0.0010    2.0510 H   0  0  0  0  0  0  0  0  0  0  0  0
    1.5353    0.4619   -3.5503 H   0  0  0  0  0  0  0  0  0  0  0  0
   -0.9824    0.6284   -3.3858 H   0  0  0  0  0  0  0  0  0  0  0  0
   -2.0180    0.4458   -1.1079 H   0  0  0  0  0  0  0  0  0  0  0  0
    5.6645    0.6204   -2.1453 H   0  0  0  0  0  0  0  0  0  0  0  0
    5.3463    0.6441   -3.9099 H   0  0  0  0  0  0  0  0  0  0  0  0
    4.9857   -1.8461   -3.8584 H   0  0  0  0  0  0  0  0  0  0  0  0
    5.2987   -1.8550   -2.1111 H   0  0  0  0  0  0  0  0  0  0  0  0
    7.5056   -1.5788   -1.2779 H   0  0  0  0  0  0  0  0  0  0  0  0
    7.9715   -0.0873   -2.1423 H   0  0  0  0  0  0  0  0  0  0  0  0
    9.9965   -1.3989   -1.7692 H   0  0  0  0  0  0  0  0  0  0  0  0
    9.2294   -2.8668   -2.4611 H   0  0  0  0  0  0  0  0  0  0  0  0
    9.3085   -1.4017   -5.7628 H   0  0  0  0  0  0  0  0  0  0  0  0
    8.8163   -2.8680   -4.8515 H   0  0  0  0  0  0  0  0  0  0  0  0
    7.5230   -0.0890   -4.7386 H   0  0  0  0  0  0  0  0  0  0  0  0
    6.7994   -1.5876   -5.3929 H   0  0  0  0  0  0  0  0  0  0  0  0
  1  2  2  0
  1 17  1  0
  2  3  1  0
  2 14  1  0
  3  4  1  0
  3 29  1  0
  4  5  2  0
  4  9  1  0
  5  6  1  0
  5 30  1  0
  6  7  2  0
  6 10  1  0
  7  8  1  0
  7 31  1  0
  8  9  2  0
  8 32  1  0
  9 33  1  0
 10 11  1  0
 10 12  1  0
 10 13  1  0
 14 15  2  0
 14 18  1  0
 15 16  1  0
 15 34  1  0
 16 17  2  0
 16 35  1  0
 17 36  1  0
 18 19  2  0
 18 20  1  0
 20 21  1  0
 21 22  1  0
 21 37  1  0
 21 38  1  0
 22 23  1  0
 22 39  1  0
 22 40  1  0
 23 24  1  0
 23 28  1  0
 24 25  1  0
 24 41  1  0
 24 42  1  0
 25 26  1  0
 25 43  1  0
 25 44  1  0
 26 27  1  0
 27 28  1  0
 27 45  1  0
 27 46  1  0
 28 47  1  0
 28 48  1  0
M  END

