
     RDKit          3D

 48 50  0  0  0  0  0  0  0  0999 V2000
    0.0595    0.2302   -0.2048 N   0  0  0  0  0  0  0  0  0  0  0  0
    1.3958    0.1608   -0.1021 C   0  0  0  0  0  0  0  0  0  0  0  0
    1.9713    0.0740    1.1318 N   0  0  0  0  0  0  0  0  0  0  0  0
    1.4172    0.0276    2.4133 C   0  0  0  0  0  0  0  0  0  0  0  0
    0.0418    0.0754    2.6965 C   0  0  0  0  0  0  0  0  0  0  0  0
   -0.3910    0.0231    4.0240 C   0  0  0  0  0  0  0  0  0  0  0  0
    0.5114   -0.0713    5.0864 C   0  0  0  0  0  0  0  0  0  0  0  0
    1.8784   -0.1176    4.8016 C   0  0  0  0  0  0  0  0  0  0  0  0
    2.3280   -0.0702    3.4861 C   0  0  0  0  0  0  0  0  0  0  0  0
   -1.8734    0.0124    4.2972 C   0  0  0  0  0  0  0  0  0  0  0  0
   -2.3750   -1.2385    4.2524 F   0  0  0  0  0  0  0  0  0  0  0  0
   -2.1642    0.5043    5.5157 F   0  0  0  0  0  0  0  0  0  0  0  0
   -2.5593    0.7379    3.3964 F   0  0  0  0  0  0  0  0  0  0  0  0
    2.2308    0.1752   -1.2740 C   0  0  0  0  0  0  0  0  0  0  0  0
    1.6003    0.2760   -2.5204 C   0  0  0  0  0  0  0  0  0  0  0  0
    0.2137    0.3509   -2.6040 C   0  0  0  0  0  0  0  0  0  0  0  0
   -0.5033    0.3205   -1.4040 C   0  0  0  0  0  0  0  0  0  0  0  0
    3.7013    0.0838   -1.1783 C   0  0  0  0  0  0  0  0  0  0  0  0
    4.3332    0.0216   -0.1330 O   0  0  0  0  0  0  0  0  0  0  0  0
    4.3032    0.0655   -2.3771 O   0  0  0  0  0  0  0  0  0  0  0  0
    5.7355   -0.0716   -2.4046 C   0  0  0  0  0  0  0  0  0  0  0  0
    6.2116   -1.5118   -2.2609 C   0  0  0  0  0  0  0  0  0  0  0  0
    5.9549   -2.3463   -3.4212 N   0  0  0  0  0  0  0  0  0  0  0  0
    4.5686   -2.7918   -3.5381 C   0  0  0  0  0  0  0  0  0  0  0  0
    4.3806   -3.5903   -4.8220 C   0  0  0  0  0  0  0  0  0  0  0  0
    5.2674   -4.6865   -4.8879 O   0  0  0  0  0  0  0  0  0  0  0  0
    6.6094   -4.2612   -4.7941 C   0  0  0  0  0  0  0  0  0  0  0  0
    6.8589   -3.4877   -3.5045 C   0  0  0  0  0  0  0  0  0  0  0  0
    2.9923    0.0348    1.0850 H   0  0  0  0  0  0  0  0  0  0  0  0
   -0.6666    0.1597    1.8787 H   0  0  0  0  0  0  0  0  0  0  0  0
    0.1511   -0.1018    6.1149 H   0  0  0  0  0  0  0  0  0  0  0  0
    2.6034   -0.1887    5.6155 H   0  0  0  0  0  0  0  0  0  0  0  0
    3.3998   -0.1058    3.2737 H   0  0  0  0  0  0  0  0  0  0  0  0
    2.2195    0.2976   -3.4174 H   0  0  0  0  0  0  0  0  0  0  0  0
   -0.2996    0.4307   -3.5628 H   0  0  0  0  0  0  0  0  0  0  0  0
   -1.5985    0.3739   -1.4153 H   0  0  0  0  0  0  0  0  0  0  0  0
    6.1626    0.5418   -1.5989 H   0  0  0  0  0  0  0  0  0  0  0  0
    6.0358    0.3229   -3.3841 H   0  0  0  0  0  0  0  0  0  0  0  0
    5.8002   -1.9436   -1.3227 H   0  0  0  0  0  0  0  0  0  0  0  0
    7.3037   -1.4557   -2.1204 H   0  0  0  0  0  0  0  0  0  0  0  0
    3.8994   -1.9214   -3.5494 H   0  0  0  0  0  0  0  0  0  0  0  0
    4.2774   -3.4259   -2.6686 H   0  0  0  0  0  0  0  0  0  0  0  0
    3.3595   -3.9966   -4.8742 H   0  0  0  0  0  0  0  0  0  0  0  0
    4.5363   -2.9183   -5.6912 H   0  0  0  0  0  0  0  0  0  0  0  0
    7.2391   -5.1627   -4.8306 H   0  0  0  0  0  0  0  0  0  0  0  0
    6.8693   -3.6146   -5.6575 H   0  0  0  0  0  0  0  0  0  0  0  0
    6.7298   -4.1788   -2.6398 H   0  0  0  0  0  0  0  0  0  0  0  0
    7.9012   -3.1286   -3.4894 H   0  0  0  0  0  0  0  0  0  0  0  0
  1  2  2  0
  1 17  1  0
  2  3  1  0
  2 14  1  0
  3  4  1  0
  3 29  1  0
  4  5  2  0
  4  9  1  0
  5  6  1  0
  5 30  1  0
  6  7  2  0
  6 10  1  0
  7  8  1  0
  7 31  1  0
  8  9  2  0
  8 32  1  0
  9 33  1  0
 10 11  1  0
 10 12  1  0
 10 13  1  0
 14 15  2  0
 14 18  1  0
 15 16  1  0
 15 34  1  0
 16 17  2  0
 16 35  1  0
 17 36  1  0
 18 19  2  0
 18 20  1  0
 20 21  1  0
 21 22  1  0
 21 37  1  0
 21 38  1  0
 22 23  1  0
 22 39  1  0
 22 40  1  0
 23 24  1  0
 23 28  1  0
 24 25  1  0
 24 41  1  0
 24 42  1  0
 25 26  1  0
 25 43  1  0
 25 44  1  0
 26 27  1  0
 27 28  1  0
 27 45  1  0
 27 46  1  0
 28 47  1  0
 28 48  1  0
M  END

