48

N         -0.23190        0.20350       -0.11380
C          1.10590        0.11320       -0.17660
N          1.82350       -0.06810        0.96910
C          1.43070       -0.19530        2.30370
C          2.46890       -0.38930        3.23650
C          2.18740       -0.53080        4.59230
C          0.86660       -0.48640        5.05520
C         -0.15930       -0.29340        4.13140
C          0.10300       -0.14710        2.76760
C          3.31460       -0.68240        5.58010
F          3.61700        0.49110        6.17010
F          2.99980       -1.54140        6.56660
F          4.44290       -1.13050        5.00030
C          1.79640        0.20470       -1.43620
C          1.02530        0.39150       -2.58940
C         -0.36030        0.48300       -2.50200
C         -0.93000        0.38050       -1.22960
C          3.26730        0.10420       -1.52250
O          4.01430       -0.05840       -0.56740
O          3.72950        0.21350       -2.77690
C          5.14890        0.11080       -2.97050
C          5.57280       -1.36360       -3.05840
N          6.97890       -1.59130       -3.30590
C          7.88440       -1.19300       -2.23840
C          9.27310       -1.76000       -2.51540
O          9.74650       -1.35090       -3.78250
C          8.87700       -1.76110       -4.81640
C          7.47420       -1.19480       -4.61400
H          2.83020       -0.12020        0.79380
H          3.50370       -0.43560        2.89180
H          0.65160       -0.60740        6.11770
H         -1.19570       -0.25810        4.47540
H         -0.69900        0.00100        2.05100
H          1.53530        0.46190       -3.55030
H         -0.98240        0.62840       -3.38580
H         -2.01800        0.44580       -1.10790
H          5.66450        0.62040       -2.14530
H          5.34630        0.64410       -3.90990
H          4.98570       -1.84610       -3.85840
H          5.29870       -1.85500       -2.11110
H          7.50560       -1.57880       -1.27790
H          7.97150       -0.08730       -2.14230
H          9.99650       -1.39890       -1.76920
H          9.22940       -2.86680       -2.46110
H          9.30850       -1.40170       -5.76280
H          8.81630       -2.86800       -4.85150
H          7.52300       -0.08900       -4.73860
H          6.79940       -1.58760       -5.39290
