48
rmsd156.gzmat
N          0.00000        0.00000        0.00000
C          1.37120        0.00000        0.00000
N          2.02060        0.00000        1.20860
C          1.39850       -0.03350        2.47970
C          0.21030        0.65860        2.75380
C         -0.31720        0.60350        4.03890
C          0.31900       -0.11470        5.05180
C          1.50880       -0.78440        4.77330
C          2.05460       -0.74960        3.49510
C         -1.59460        1.31980        4.37540
F         -2.56970        0.50450        4.78180
F         -1.46400        2.20000        5.37080
F         -2.14840        2.02580        3.39180
C          2.11000       -0.00280       -1.22230
C          1.39220       -0.00940       -2.42590
C          0.00750       -0.01160       -2.41210
C         -0.64780       -0.00650       -1.16580
C          3.56590        0.01160       -1.21780
O          4.28380       -0.05270       -0.23770
O          4.07910        0.11320       -2.46540
C          5.49710        0.25750       -2.57410
C          6.17400       -1.11090       -2.37590
N          7.62030       -0.88800       -2.60060
C          8.27310       -2.07480       -3.20430
C          9.74420       -1.70820       -3.48340
O         10.39330       -1.32840       -2.28460
C          9.77780       -0.20720       -1.67710
C          8.31030       -0.52670       -1.33720
H          3.05060       -0.08200        1.18330
H         -0.28180        1.22280        1.95540
H         -0.10230       -0.15740        6.05650
H          2.01350       -1.34270        5.56170
H          2.98130       -1.28160        3.28160
H          1.93500       -0.01380       -3.37750
H         -0.56590       -0.01600       -3.33190
H         -1.74610       -0.00750       -1.09190
H          5.85590        1.01340       -1.85500
H          5.60720        0.63320       -3.60860
H          5.76570       -1.83670       -3.10990
H          5.93640       -1.51660       -1.36840
H          7.75970       -2.31940       -4.15760
H          8.22380       -2.97310       -2.55370
H         10.33290       -2.57960       -3.81810
H          9.82250       -0.89190       -4.22300
H         10.38770       -0.05060       -0.77060
H          9.85940        0.66800       -2.34530
H          8.26520       -1.33450       -0.57580
H          7.81480        0.36500       -0.89910
