48

N          0.05950        0.23020       -0.20480
C          1.39580        0.16080       -0.10210
N          1.97130        0.07400        1.13180
C          1.41720        0.02760        2.41330
C          0.04180        0.07540        2.69650
C         -0.39100        0.02310        4.02400
C          0.51140       -0.07130        5.08640
C          1.87840       -0.11760        4.80160
C          2.32800       -0.07020        3.48610
C         -1.87340        0.01240        4.29720
F         -2.37500       -1.23850        4.25240
F         -2.16420        0.50430        5.51570
F         -2.55930        0.73790        3.39640
C          2.23080        0.17520       -1.27400
C          1.60030        0.27600       -2.52040
C          0.21370        0.35090       -2.60400
C         -0.50330        0.32050       -1.40400
C          3.70130        0.08380       -1.17830
O          4.33320        0.02160       -0.13300
O          4.30320        0.06550       -2.37710
C          5.73550       -0.07160       -2.40460
C          6.21160       -1.51180       -2.26090
N          5.95490       -2.34630       -3.42120
C          4.56860       -2.79180       -3.53810
C          4.38060       -3.59030       -4.82200
O          5.26740       -4.68650       -4.88790
C          6.60940       -4.26120       -4.79410
C          6.85890       -3.48770       -3.50450
H          2.99230        0.03480        1.08500
H         -0.66660        0.15970        1.87870
H          0.15110       -0.10180        6.11490
H          2.60340       -0.18870        5.61550
H          3.39980       -0.10580        3.27370
H          2.21950        0.29760       -3.41740
H         -0.29960        0.43070       -3.56280
H         -1.59850        0.37390       -1.41530
H          6.16260        0.54180       -1.59890
H          6.03580        0.32290       -3.38410
H          5.80020       -1.94360       -1.32270
H          7.30370       -1.45570       -2.12040
H          3.89940       -1.92140       -3.54940
H          4.27740       -3.42590       -2.66860
H          3.35950       -3.99660       -4.87420
H          4.53630       -2.91830       -5.69120
H          7.23910       -5.16270       -4.83060
H          6.86930       -3.61460       -5.65750
H          6.72980       -4.17880       -2.63980
H          7.90120       -3.12860       -3.48940
