rmsd218.gzmat
 OpenBabel08211713393D

 48 50  0  0  1  0  0  0  0  0999 V2000
    0.0000    0.0000    0.0000 N   0  0  0  0  0  0  0  0  0  0  0  0
    1.3714    0.0000    0.0000 C   0  0  0  0  0  0  0  0  0  0  0  0
    2.0273    0.0000    1.2045 N   0  0  0  0  0  0  0  0  0  0  0  0
    1.4250    0.0706    2.4834 C   0  0  0  0  0  0  0  0  0  0  0  0
    2.1479    0.7474    3.4827 C   0  0  0  0  0  0  0  0  0  0  0  0
    1.6242    0.8104    4.7683 C   0  0  0  0  0  0  0  0  0  0  0  0
    0.4014    0.2144    5.0781 C   0  0  0  0  0  0  0  0  0  0  0  0
   -0.3031   -0.4587    4.0822 C   0  0  0  0  0  0  0  0  0  0  0  0
    0.2013   -0.5407    2.7883 C   0  0  0  0  0  0  0  0  0  0  0  0
    2.3616    1.5212    5.8686 C   0  0  0  0  0  0  0  0  0  0  0  0
    1.6300    2.4457    6.4931 F   0  0  0  0  0  0  0  0  0  0  0  0
    2.7699    0.7070    6.8437 F   0  0  0  0  0  0  0  0  0  0  0  0
    3.4643    2.1733    5.5042 F   0  0  0  0  0  0  0  0  0  0  0  0
    2.1075    0.0028   -1.2251 C   0  0  1  0  0  0  0  0  0  0  0  0
    1.3899   -0.0050   -2.4280 C   0  0  0  0  0  0  0  0  0  0  0  0
    0.0052   -0.0081   -2.4135 C   0  0  0  0  0  0  0  0  0  0  0  0
   -0.6475   -0.0010   -1.1663 C   0  0  0  0  0  0  0  0  0  0  0  0
    3.5638    0.0293   -1.2290 C   0  0  0  0  0  0  0  0  0  0  0  0
    4.2884    0.0761   -0.2532 O   0  0  0  0  0  0  0  0  0  0  0  0
    4.0687   -0.0037   -2.4829 O   0  0  0  0  0  0  0  0  0  0  0  0
    5.4943    0.0035   -2.6107 C   0  0  0  0  0  0  0  0  0  0  0  0
    6.0760   -1.3720   -2.2602 C   0  0  0  0  0  0  0  0  0  0  0  0
    6.0783   -2.2190   -3.4763 N   0  0  0  0  0  0  0  0  0  0  0  0
    4.7169   -2.7214   -3.7867 C   0  0  0  0  0  0  0  0  0  0  0  0
    4.7946   -3.5268   -5.0959 C   0  0  0  0  0  0  0  0  0  0  0  0
    5.7104   -4.5980   -4.9630 O   0  0  0  0  0  0  0  0  0  0  0  0
    7.0149   -4.1493   -4.6478 C   0  0  0  0  0  0  0  0  0  0  0  0
    7.0069   -3.3666   -3.3209 C   0  0  0  0  0  0  0  0  0  0  0  0
    3.0606    0.0681    1.1665 H   0  0  0  0  0  0  0  0  0  0  0  0
    3.1014    1.2153    3.2321 H   0  0  0  0  0  0  0  0  0  0  0  0
   -0.0081    0.2672    6.0870 H   0  0  0  0  0  0  0  0  0  0  0  0
   -1.2584   -0.9283    4.3177 H   0  0  0  0  0  0  0  0  0  0  0  0
   -0.3592   -1.0762    2.0178 H   0  0  0  0  0  0  0  0  0  0  0  0
    1.9319   -0.0041   -3.3805 H   0  0  0  0  0  0  0  0  0  0  0  0
   -0.5688   -0.0127   -3.3328 H   0  0  0  0  0  0  0  0  0  0  0  0
   -1.7451    0.0030   -1.0934 H   0  0  0  0  0  0  0  0  0  0  0  0
    5.9160    0.8026   -1.9767 H   0  0  0  0  0  0  0  0  0  0  0  0
    5.6143    0.2522   -3.6845 H   0  0  0  0  0  0  0  0  0  0  0  0
    5.5202   -1.8193   -1.4068 H   0  0  0  0  0  0  0  0  0  0  0  0
    7.1255   -1.2409   -1.9121 H   0  0  0  0  0  0  0  0  0  0  0  0
    4.0365   -1.8525   -3.9161 H   0  0  0  0  0  0  0  0  0  0  0  0
    4.2966   -3.3528   -2.9759 H   0  0  0  0  0  0  0  0  0  0  0  0
    3.8452   -4.0415   -5.3239 H   0  0  0  0  0  0  0  0  0  0  0  0
    5.0925   -2.8889   -5.9460 H   0  0  0  0  0  0  0  0  0  0  0  0
    7.5887   -5.0891   -4.5710 H   0  0  0  0  0  0  0  0  0  0  0  0
    7.4059   -3.5337   -5.4768 H   0  0  0  0  0  0  0  0  0  0  0  0
    6.7235   -4.0408   -2.4854 H   0  0  0  0  0  0  0  0  0  0  0  0
    8.0246   -2.9773   -3.1089 H   0  0  0  0  0  0  0  0  0  0  0  0
  2  1  2  0  0  0  0
  2  3  1  0  0  0  0
  3  4  1  0  0  0  0
  4  9  2  0  0  0  0
  4  5  1  0  0  0  0
  5  6  2  0  0  0  0
  6  7  1  0  0  0  0
  6 10  1  0  0  0  0
  7 31  1  0  0  0  0
  8 32  1  0  0  0  0
  8  7  2  0  0  0  0
  9  8  1  0  0  0  0
 10 11  1  0  0  0  0
 10 12  1  0  0  0  0
 13 10  1  0  0  0  0
 14 18  1  6  0  0  0
 14  2  1  0  0  0  0
 15 16  2  0  0  0  0
 15 14  1  0  0  0  0
 16 17  1  0  0  0  0
 17 36  1  0  0  0  0
 17  1  2  0  0  0  0
 18 19  2  0  0  0  0
 20 18  1  0  0  0  0
 21 20  1  0  0  0  0
 21 22  1  0  0  0  0
 21 37  1  0  0  0  0
 22 40  1  0  0  0  0
 22 39  1  0  0  0  0
 23 28  1  0  0  0  0
 23 22  1  0  0  0  0
 24 23  1  0  0  0  0
 24 42  1  0  0  0  0
 25 26  1  0  0  0  0
 25 24  1  0  0  0  0
 26 27  1  0  0  0  0
 27 45  1  0  0  0  0
 27 28  1  0  0  0  0
 28 48  1  0  0  0  0
 28 47  1  0  0  0  0
 29  3  1  0  0  0  0
 30  5  1  0  0  0  0
 33  9  1  0  0  0  0
 34 15  1  0  0  0  0
 35 16  1  0  0  0  0
 38 21  1  0  0  0  0
 41 24  1  0  0  0  0
 43 25  1  0  0  0  0
 44 25  1  0  0  0  0
 46 27  1  0  0  0  0
M  RAD  1  14   2
M  END
$$$$
