48

N         -0.15520       -0.11540       -0.24800
C          1.17640        0.04470       -0.18910
N          1.78150        0.21600        1.02100
C          1.27010        0.25580        2.32070
C          2.21290        0.45820        3.34820
C          1.80990        0.51680        4.67930
C          0.45940        0.37900        5.02250
C         -0.47190        0.17790        4.00500
C         -0.08700        0.11390        2.66410
C          2.83820        0.67880        5.76810
F          2.39590        1.47910        6.75510
F          3.14660       -0.50360        6.33720
F          3.98850        1.20350        5.30860
C          1.97710        0.03680       -1.38520
C          1.31770       -0.13160       -2.60880
C         -0.06390       -0.29200       -2.64760
C         -0.74480       -0.27690       -1.42680
C          3.44450        0.19630       -1.33580
O          4.09540        0.37500       -0.31630
O          4.02040        0.11690       -2.54470
C          5.45560        0.20860       -2.60840
C          6.16300       -1.10490       -2.29900
N          6.03500       -2.11340       -3.33590
C          4.73680       -2.78250       -3.35800
C          4.67110       -3.76150       -4.52370
O          5.72040       -4.70400       -4.47210
C          6.97840       -4.06450       -4.46890
C          7.10880       -3.09960       -3.29610
H          2.79430        0.33450        0.93700
H          3.26890        0.57630        3.09780
H          0.14850        0.43520        6.06650
H         -1.53000        0.07030        4.25530
H         -0.81570       -0.04060        1.87430
H          1.90960       -0.13040       -3.52430
H         -0.59980       -0.42420       -3.58810
H         -1.83410       -0.40210       -1.40380
H          5.78920        0.98360       -1.90430
H          5.67130        0.51280       -3.64090
H          5.83780       -1.47170       -1.30130
H          7.23250       -0.85580       -2.20100
H          3.93750       -2.03720       -3.46320
H          4.55500       -3.33530       -2.40710
H          3.72730       -4.32650       -4.49650
H          4.71290       -3.19270       -5.47550
H          7.74320       -4.85300       -4.40600
H          7.12710       -3.50380       -5.41470
H          7.09640       -3.68310       -2.34680
H          8.08060       -2.58220       -3.35470
