48

N         -0.03320        0.25000       -0.14850
C          1.30800        0.28080       -0.11370
N          1.94870        0.30370        1.09090
C          1.46330        0.29640        2.40050
C          0.10340        0.27410        2.75370
C         -0.25850        0.27190        4.10320
C          0.69980        0.29600        5.11960
C          2.05100        0.31900        4.76540
C          2.43060        0.31810        3.42710
C         -1.72170        0.18410        4.45480
F         -2.14310       -1.09610        4.49970
F         -1.98300        0.72170        5.66060
F         -2.49690        0.81620        3.55610
C          2.08080        0.29020       -1.32740
C          1.38500        0.26670       -2.54220
C         -0.00580        0.23560       -2.55560
C         -0.65900        0.22850       -1.31950
C          3.55670        0.32040       -1.30630
O          4.24170        0.34070       -0.29280
O          4.10080        0.32770       -2.53290
C          5.53340        0.33280       -2.61810
C          6.09560       -1.08460       -2.52950
N          7.54550       -1.05150       -2.54710
C          8.17250       -2.19880       -3.18830
C          9.67980       -1.98080       -3.27080
O         10.23780       -1.74620       -1.99560
C          9.64240       -0.62940       -1.36910
C          8.13550       -0.81090       -1.23490
H          2.96640        0.32640        0.99140
H         -0.64850        0.26570        1.97120
H          0.39360        0.30260        6.16600
H          2.81860        0.34070        5.54210
H          3.49060        0.33750        3.16020
H          1.95760        0.27270       -3.46970
H         -0.57000        0.21700       -3.48870
H         -1.75440        0.20370       -1.27550
H          5.94060        0.96660       -1.81930
H          5.77350        0.77760       -3.59220
H          5.73500       -1.65880       -3.39730
H          5.69610       -1.58430       -1.62230
H          7.76300       -2.31820       -4.20460
H          7.97410       -3.14320       -2.63130
H         10.17730       -2.87160       -3.68250
H          9.88170       -1.12140       -3.94270
H         10.10950       -0.52810       -0.37820
H          9.84630        0.29270       -1.95120
H          7.93170       -1.65960       -0.54290
H          7.69160        0.08960       -0.78280
