rmsd226.gzmat
 OpenBabel08211713393D

 48 50  0  0  1  0  0  0  0  0999 V2000
    0.0000    0.0000    0.0000 N   0  0  0  0  0  0  0  0  0  0  0  0
    1.3705    0.0000    0.0000 C   0  0  0  0  0  0  0  0  0  0  0  0
    2.0289    0.0000    1.2041 N   0  0  0  0  0  0  0  0  0  0  0  0
    1.4473    0.0412    2.4926 C   0  0  0  0  0  0  0  0  0  0  0  0
    2.2176   -0.4986    3.5407 C   0  0  0  0  0  0  0  0  0  0  0  0
    1.7336   -0.4284    4.8409 C   0  0  0  0  0  0  0  0  0  0  0  0
    0.5021    0.1637    5.1204 C   0  0  0  0  0  0  0  0  0  0  0  0
   -0.2570    0.6863    4.0759 C   0  0  0  0  0  0  0  0  0  0  0  0
    0.2080    0.6357    2.7659 C   0  0  0  0  0  0  0  0  0  0  0  0
    2.5293   -0.9744    5.9939 C   0  0  0  0  0  0  0  0  0  0  0  0
    3.0018   -0.0247    6.8036 F   0  0  0  0  0  0  0  0  0  0  0  0
    1.8298   -1.7783    6.7969 F   0  0  0  0  0  0  0  0  0  0  0  0
    3.6025   -1.6947    5.6724 F   0  0  0  0  0  0  0  0  0  0  0  0
    2.1050   -0.0017   -1.2268 C   0  0  1  0  0  0  0  0  0  0  0  0
    1.3852    0.0022   -2.4286 C   0  0  0  0  0  0  0  0  0  0  0  0
    0.0001    0.0015   -2.4122 C   0  0  0  0  0  0  0  0  0  0  0  0
   -0.6501   -0.0022   -1.1651 C   0  0  0  0  0  0  0  0  0  0  0  0
    3.5615   -0.0035   -1.2334 C   0  0  0  0  0  0  0  0  0  0  0  0
    4.2899   -0.1006   -0.2654 O   0  0  0  0  0  0  0  0  0  0  0  0
    4.0614    0.1252   -2.4863 O   0  0  0  0  0  0  0  0  0  0  0  0
    5.4838    0.1683   -2.6107 C   0  0  0  0  0  0  0  0  0  0  0  0
    5.9861    1.5459   -2.1378 C   0  0  0  0  0  0  0  0  0  0  0  0
    7.3574    1.8958   -2.5326 N   0  0  0  0  0  0  0  0  0  0  0  0
    7.5129    2.0353   -3.9988 C   0  0  0  0  0  0  0  0  0  0  0  0
    8.9387    2.5556   -4.2676 C   0  0  0  0  0  0  0  0  0  0  0  0
    9.8947    1.6594   -3.7330 O   0  0  0  0  0  0  0  0  0  0  0  0
    9.7572    1.5037   -2.3323 C   0  0  0  0  0  0  0  0  0  0  0  0
    8.3603    0.9482   -1.9932 C   0  0  0  0  0  0  0  0  0  0  0  0
    3.0601   -0.0939    1.1608 H   0  0  0  0  0  0  0  0  0  0  0  0
    3.1795   -0.9630    3.3171 H   0  0  0  0  0  0  0  0  0  0  0  0
    0.1297    0.2257    6.1429 H   0  0  0  0  0  0  0  0  0  0  0  0
   -1.2240    1.1439    4.2858 H   0  0  0  0  0  0  0  0  0  0  0  0
   -0.3977    1.0603    1.9613 H   0  0  0  0  0  0  0  0  0  0  0  0
    1.9249    0.0057   -3.3825 H   0  0  0  0  0  0  0  0  0  0  0  0
   -0.5765    0.0040   -3.3300 H   0  0  0  0  0  0  0  0  0  0  0  0
   -1.7474   -0.0063   -1.0899 H   0  0  0  0  0  0  0  0  0  0  0  0
    5.6143    0.0100   -3.6963 H   0  0  0  0  0  0  0  0  0  0  0  0
    5.9378   -0.6644   -2.0472 H   0  0  0  0  0  0  0  0  0  0  0  0
    5.9293    1.6012   -1.0229 H   0  0  0  0  0  0  0  0  0  0  0  0
    5.3031    2.3414   -2.5151 H   0  0  0  0  0  0  0  0  0  0  0  0
    6.7656    2.7682   -4.3691 H   0  0  0  0  0  0  0  0  0  0  0  0
    7.3511    1.0854   -4.5496 H   0  0  0  0  0  0  0  0  0  0  0  0
    9.1804    2.5638   -5.3442 H   0  0  0  0  0  0  0  0  0  0  0  0
    9.0906    3.5614   -3.8376 H   0  0  0  0  0  0  0  0  0  0  0  0
   10.5602    0.7884   -2.0840 H   0  0  0  0  0  0  0  0  0  0  0  0
    9.9421    2.4697   -1.8303 H   0  0  0  0  0  0  0  0  0  0  0  0
    8.2550   -0.0781   -2.4014 H   0  0  0  0  0  0  0  0  0  0  0  0
    8.2323    0.8839   -0.8912 H   0  0  0  0  0  0  0  0  0  0  0  0
  1  2  2  0  0  0  0
  2  3  1  0  0  0  0
  3  4  1  0  0  0  0
  4  9  2  0  0  0  0
  4  5  1  0  0  0  0
  5  6  2  0  0  0  0
  6  7  1  0  0  0  0
  6 10  1  0  0  0  0
  7 31  1  0  0  0  0
  8 32  1  0  0  0  0
  8  7  2  0  0  0  0
  9  8  1  0  0  0  0
 10 12  1  0  0  0  0
 10 11  1  0  0  0  0
 13 10  1  0  0  0  0
 14 18  1  1  0  0  0
 14  2  1  0  0  0  0
 15 16  2  0  0  0  0
 15 14  1  0  0  0  0
 16 17  1  0  0  0  0
 17 36  1  0  0  0  0
 17  1  2  0  0  0  0
 18 19  2  0  0  0  0
 20 18  1  0  0  0  0
 21 20  1  0  0  0  0
 21 22  1  0  0  0  0
 21 38  1  0  0  0  0
 22 39  1  0  0  0  0
 23 22  1  0  0  0  0
 23 28  1  0  0  0  0
 24 23  1  0  0  0  0
 25 24  1  0  0  0  0
 25 44  1  0  0  0  0
 25 26  1  0  0  0  0
 26 27  1  0  0  0  0
 27 45  1  0  0  0  0
 27 28  1  0  0  0  0
 27 46  1  0  0  0  0
 28 48  1  0  0  0  0
 29  3  1  0  0  0  0
 30  5  1  0  0  0  0
 33  9  1  0  0  0  0
 34 15  1  0  0  0  0
 35 16  1  0  0  0  0
 37 21  1  0  0  0  0
 40 22  1  0  0  0  0
 41 24  1  0  0  0  0
 42 24  1  0  0  0  0
 43 25  1  0  0  0  0
 47 28  1  0  0  0  0
M  RAD  1  14   2
M  END
$$$$
