rmsd200.gzmat
 OpenBabel08211713413D

 43 45  0  0  0  0  0  0  0  0999 V2000
    0.0000    0.0000    0.0000 C   0  0  0  0  0  0  0  0  0  0  0  0
    1.3798    0.0000    0.0000 C   0  0  0  0  0  0  0  0  0  0  0  0
    2.1066    0.0000    1.2095 C   0  0  0  0  0  0  0  0  0  0  0  0
    1.4357    0.0054    2.4050 C   0  0  0  0  0  0  0  0  0  0  0  0
    0.0150   -0.0261    2.4381 C   0  0  0  0  0  0  0  0  0  0  0  0
   -0.6817   -0.0432    3.6883 C   0  0  0  0  0  0  0  0  0  0  0  0
   -2.0573   -0.0686    3.7271 C   0  0  0  0  0  0  0  0  0  0  0  0
   -2.7866   -0.0892    2.5185 C   0  0  0  0  0  0  0  0  0  0  0  0
   -2.1440   -0.0777    1.3069 C   0  0  0  0  0  0  0  0  0  0  0  0
   -0.7240   -0.0358    1.2280 C   0  0  0  0  0  0  0  0  0  0  0  0
    0.1457   -0.0334    4.8729 N   0  0  0  0  0  0  0  0  0  0  0  0
   -0.1923    1.0946    5.7668 C   0  0  0  0  0  0  0  0  0  0  0  0
    0.0712   -1.3330    5.5766 C   0  0  0  0  0  0  0  0  0  0  0  0
   -0.7695    0.1177   -1.5580 S   0  0  0  0  0  0  0  0  0  0  0  0
    0.1925   -0.1902   -2.5806 O   0  0  0  0  0  0  0  0  0  0  0  0
   -2.0966   -0.4430   -1.6076 O   0  0  0  0  0  0  0  0  0  0  0  0
   -1.1152    1.8525   -1.6726 N   0  0  0  0  0  0  0  0  0  0  0  0
   -0.1914    2.8427   -1.4884 C   0  0  0  0  0  0  0  0  0  0  0  0
    0.9832    2.4823   -0.8334 O   0  0  0  0  0  0  0  0  0  0  0  0
    1.7611    3.6229   -0.7055 N   0  0  0  0  0  0  0  0  0  0  0  0
    1.1051    4.6481   -1.2423 C   0  0  0  0  0  0  0  0  0  0  0  0
   -0.1680    4.1992   -1.7673 C   0  0  0  0  0  0  0  0  0  0  0  0
   -1.1851    5.0258   -2.4291 C   0  0  0  0  0  0  0  0  0  0  0  0
    1.6398    6.0232   -1.2868 C   0  0  0  0  0  0  0  0  0  0  0  0
    1.9600    0.0147   -0.9367 H   0  0  0  0  0  0  0  0  0  0  0  0
    3.1942    0.0209    1.1761 H   0  0  0  0  0  0  0  0  0  0  0  0
    1.9788    0.0377    3.3561 H   0  0  0  0  0  0  0  0  0  0  0  0
   -2.5928   -0.0797    4.6728 H   0  0  0  0  0  0  0  0  0  0  0  0
   -3.8759   -0.1211    2.5650 H   0  0  0  0  0  0  0  0  0  0  0  0
   -2.7516   -0.1199    0.3959 H   0  0  0  0  0  0  0  0  0  0  0  0
    0.5782    1.1550    6.5549 H   0  0  0  0  0  0  0  0  0  0  0  0
   -1.1804    1.0217    6.2446 H   0  0  0  0  0  0  0  0  0  0  0  0
   -0.1513    2.0368    5.1920 H   0  0  0  0  0  0  0  0  0  0  0  0
    0.3196   -2.1431    4.8699 H   0  0  0  0  0  0  0  0  0  0  0  0
   -0.9111   -1.5532    6.0210 H   0  0  0  0  0  0  0  0  0  0  0  0
    0.8325   -1.3419    6.3752 H   0  0  0  0  0  0  0  0  0  0  0  0
   -1.9936    2.1392   -2.1069 H   0  0  0  0  0  0  0  0  0  0  0  0
   -0.7295    5.8387   -3.0158 H   0  0  0  0  0  0  0  0  0  0  0  0
   -1.8607    5.4984   -1.6973 H   0  0  0  0  0  0  0  0  0  0  0  0
   -1.8079    4.4455   -3.1252 H   0  0  0  0  0  0  0  0  0  0  0  0
    1.7960    6.3521   -2.3274 H   0  0  0  0  0  0  0  0  0  0  0  0
    2.6076    6.1106   -0.7657 H   0  0  0  0  0  0  0  0  0  0  0  0
    0.9452    6.7365   -0.8149 H   0  0  0  0  0  0  0  0  0  0  0  0
  1  2  2  0  0  0  0
  1 10  1  0  0  0  0
  2  3  1  0  0  0  0
  3  4  2  0  0  0  0
  4  5  1  0  0  0  0
  4 27  1  0  0  0  0
  5  6  2  0  0  0  0
  6  7  1  0  0  0  0
  6 11  1  0  0  0  0
  7 28  1  0  0  0  0
  8 29  1  0  0  0  0
  8  7  2  0  0  0  0
  9  8  1  0  0  0  0
 10  9  2  0  0  0  0
 10  5  1  0  0  0  0
 11 13  1  0  0  0  0
 11 12  1  0  0  0  0
 12 32  1  0  0  0  0
 12 31  1  0  0  0  0
 13 35  1  0  0  0  0
 13 36  1  0  0  0  0
 14  1  1  0  0  0  0
 15 14  2  0  0  0  0
 16 14  2  0  0  0  0
 17 14  1  0  0  0  0
 17 18  1  0  0  0  0
 18 19  1  0  0  0  0
 19 20  1  0  0  0  0
 21 20  2  0  0  0  0
 22 18  2  0  0  0  0
 22 21  1  0  0  0  0
 23 22  1  0  0  0  0
 23 39  1  0  0  0  0
 24 21  1  0  0  0  0
 24 43  1  0  0  0  0
 24 42  1  0  0  0  0
 25  2  1  0  0  0  0
 26  3  1  0  0  0  0
 30  9  1  0  0  0  0
 33 12  1  0  0  0  0
 34 13  1  0  0  0  0
 37 17  1  0  0  0  0
 38 23  1  0  0  0  0
 40 23  1  0  0  0  0
 41 24  1  0  0  0  0
M  END
$$$$
