rmsd3.gzmat
 OpenBabel08211713413D

 43 45  0  0  0  0  0  0  0  0999 V2000
    0.0000    0.0000    0.0000 C   0  0  0  0  0  0  0  0  0  0  0  0
    1.3775    0.0000    0.0000 C   0  0  0  0  0  0  0  0  0  0  0  0
    2.1024    0.0000    1.2102 C   0  0  0  0  0  0  0  0  0  0  0  0
    1.4299    0.0397    2.4048 C   0  0  0  0  0  0  0  0  0  0  0  0
    0.0122    0.1043    2.4368 C   0  0  0  0  0  0  0  0  0  0  0  0
   -0.6865    0.1985    3.6877 C   0  0  0  0  0  0  0  0  0  0  0  0
   -2.0631    0.1828    3.7177 C   0  0  0  0  0  0  0  0  0  0  0  0
   -2.7895    0.1108    2.5092 C   0  0  0  0  0  0  0  0  0  0  0  0
   -2.1460    0.0692    1.2992 C   0  0  0  0  0  0  0  0  0  0  0  0
   -0.7243    0.0573    1.2259 C   0  0  0  0  0  0  0  0  0  0  0  0
    0.1328    0.2739    4.8648 N   0  0  0  0  0  0  0  0  0  0  0  0
    0.5141    1.6746    5.1599 C   0  0  0  0  0  0  0  0  0  0  0  0
   -0.4533   -0.3839    6.0491 C   0  0  0  0  0  0  0  0  0  0  0  0
   -0.7831   -0.0661   -1.5637 S   0  0  0  0  0  0  0  0  0  0  0  0
   -1.9310    0.8035   -1.6157 O   0  0  0  0  0  0  0  0  0  0  0  0
    0.2374   -0.0478   -2.5780 O   0  0  0  0  0  0  0  0  0  0  0  0
   -1.5548   -1.6575   -1.6011 N   0  0  0  0  0  0  0  0  0  0  0  0
   -0.9816   -2.7614   -2.1879 C   0  0  0  0  0  0  0  0  0  0  0  0
   -1.9071   -3.5988   -2.8194 O   0  0  0  0  0  0  0  0  0  0  0  0
   -1.2253   -4.6959   -3.3045 N   0  0  0  0  0  0  0  0  0  0  0  0
    0.0643   -4.5580   -3.0105 C   0  0  0  0  0  0  0  0  0  0  0  0
    0.2758   -3.3240   -2.2733 C   0  0  0  0  0  0  0  0  0  0  0  0
    1.5665   -2.8352   -1.7725 C   0  0  0  0  0  0  0  0  0  0  0  0
    1.0944   -5.5425   -3.3963 C   0  0  0  0  0  0  0  0  0  0  0  0
    1.9568   -0.0047   -0.9361 H   0  0  0  0  0  0  0  0  0  0  0  0
    3.1888   -0.0400    1.1818 H   0  0  0  0  0  0  0  0  0  0  0  0
    1.9754    0.0108    3.3538 H   0  0  0  0  0  0  0  0  0  0  0  0
   -2.6083    0.2436    4.6559 H   0  0  0  0  0  0  0  0  0  0  0  0
   -3.8802    0.1062    2.5566 H   0  0  0  0  0  0  0  0  0  0  0  0
   -2.7481    0.0662    0.3870 H   0  0  0  0  0  0  0  0  0  0  0  0
    1.2885    1.6699    5.9462 H   0  0  0  0  0  0  0  0  0  0  0  0
   -0.3266    2.3024    5.4947 H   0  0  0  0  0  0  0  0  0  0  0  0
    0.9528    2.1397    4.2614 H   0  0  0  0  0  0  0  0  0  0  0  0
   -0.7866   -1.4005    5.7790 H   0  0  0  0  0  0  0  0  0  0  0  0
   -1.2973    0.1552    6.5047 H   0  0  0  0  0  0  0  0  0  0  0  0
    0.3433   -0.4906    6.8074 H   0  0  0  0  0  0  0  0  0  0  0  0
   -2.5827   -1.6414   -1.6364 H   0  0  0  0  0  0  0  0  0  0  0  0
    2.3738   -3.5649   -1.9334 H   0  0  0  0  0  0  0  0  0  0  0  0
    1.5389   -2.6268   -0.6915 H   0  0  0  0  0  0  0  0  0  0  0  0
    1.8704   -1.9079   -2.2954 H   0  0  0  0  0  0  0  0  0  0  0  0
    1.8640   -5.0800   -4.0359 H   0  0  0  0  0  0  0  0  0  0  0  0
    0.6675   -6.3906   -3.9585 H   0  0  0  0  0  0  0  0  0  0  0  0
    1.6033   -5.9561   -2.5115 H   0  0  0  0  0  0  0  0  0  0  0  0
  1 10  1  0  0  0  0
  2  1  2  0  0  0  0
  2  3  1  0  0  0  0
  3  4  2  0  0  0  0
  4  5  1  0  0  0  0
  4 27  1  0  0  0  0
  5  6  2  0  0  0  0
  6  7  1  0  0  0  0
  6 11  1  0  0  0  0
  7 28  1  0  0  0  0
  8 29  1  0  0  0  0
  8  7  2  0  0  0  0
  9  8  1  0  0  0  0
 10  9  2  0  0  0  0
 10  5  1  0  0  0  0
 11 12  1  0  0  0  0
 11 13  1  0  0  0  0
 12 32  1  0  0  0  0
 12 31  1  0  0  0  0
 13 35  1  0  0  0  0
 13 36  1  0  0  0  0
 14  1  1  0  0  0  0
 15 14  2  0  0  0  0
 16 14  2  0  0  0  0
 17 14  1  0  0  0  0
 18 17  1  0  0  0  0
 19 18  1  0  0  0  0
 20 21  2  0  0  0  0
 20 19  1  0  0  0  0
 21 22  1  0  0  0  0
 22 18  2  0  0  0  0
 22 23  1  0  0  0  0
 23 39  1  0  0  0  0
 24 21  1  0  0  0  0
 24 43  1  0  0  0  0
 25  2  1  0  0  0  0
 26  3  1  0  0  0  0
 30  9  1  0  0  0  0
 33 12  1  0  0  0  0
 34 13  1  0  0  0  0
 37 17  1  0  0  0  0
 38 23  1  0  0  0  0
 40 23  1  0  0  0  0
 41 24  1  0  0  0  0
 42 24  1  0  0  0  0
M  END
$$$$
