
     RDKit          3D

 43 45  0  0  0  0  0  0  0  0999 V2000
   -0.2036    0.3732    0.1222 C   0  0  0  0  0  0  0  0  0  0  0  0
    1.1662    0.2726   -0.0177 C   0  0  0  0  0  0  0  0  0  0  0  0
    1.9688    0.0471    1.1197 C   0  0  0  0  0  0  0  0  0  0  0  0
    1.3807   -0.1021    2.3573 C   0  0  0  0  0  0  0  0  0  0  0  0
   -0.0291   -0.0534    2.5212 C   0  0  0  0  0  0  0  0  0  0  0  0
   -0.6316   -0.2342    3.8176 C   0  0  0  0  0  0  0  0  0  0  0  0
   -1.9939   -0.0195    3.9582 C   0  0  0  0  0  0  0  0  0  0  0  0
   -2.7958    0.2986    2.8400 C   0  0  0  0  0  0  0  0  0  0  0  0
   -2.2611    0.3939    1.5747 C   0  0  0  0  0  0  0  0  0  0  0  0
   -0.8617    0.2339    1.3857 C   0  0  0  0  0  0  0  0  0  0  0  0
    0.1950   -0.6017    4.9036 N   0  0  0  0  0  0  0  0  0  0  0  0
   -0.2410   -0.2062    6.2272 C   0  0  0  0  0  0  0  0  0  0  0  0
    0.7029   -1.9690    4.8763 C   0  0  0  0  0  0  0  0  0  0  0  0
   -1.1091    0.7583   -1.3704 S   0  0  0  0  0  0  0  0  0  0  0  0
   -0.1502    0.7936   -2.4779 O   0  0  0  0  0  0  0  0  0  0  0  0
   -2.3432   -0.0183   -1.4903 O   0  0  0  0  0  0  0  0  0  0  0  0
   -1.6607    2.3467   -1.0357 N   0  0  0  0  0  0  0  0  0  0  0  0
   -0.7607    3.4037   -1.0677 C   0  0  0  0  0  0  0  0  0  0  0  0
   -0.3306    3.8678    0.1301 O   0  0  0  0  0  0  0  0  0  0  0  0
    0.5747    4.8794   -0.0775 N   0  0  0  0  0  0  0  0  0  0  0  0
    0.6863    5.0222   -1.3816 C   0  0  0  0  0  0  0  0  0  0  0  0
   -0.1474    4.0887   -2.0824 C   0  0  0  0  0  0  0  0  0  0  0  0
   -0.2844    3.8940   -3.5553 C   0  0  0  0  0  0  0  0  0  0  0  0
    1.6026    6.0443   -1.9686 C   0  0  0  0  0  0  0  0  0  0  0  0
    1.6095    0.3973   -1.0056 H   0  0  0  0  0  0  0  0  0  0  0  0
    3.0551    0.0155    1.0154 H   0  0  0  0  0  0  0  0  0  0  0  0
    1.9953   -0.2302    3.2481 H   0  0  0  0  0  0  0  0  0  0  0  0
   -2.4664   -0.1305    4.9342 H   0  0  0  0  0  0  0  0  0  0  0  0
   -3.8700    0.4400    2.9819 H   0  0  0  0  0  0  0  0  0  0  0  0
   -2.9033    0.5886    0.7201 H   0  0  0  0  0  0  0  0  0  0  0  0
    0.5993   -0.3164    6.9309 H   0  0  0  0  0  0  0  0  0  0  0  0
   -1.0816   -0.8181    6.6203 H   0  0  0  0  0  0  0  0  0  0  0  0
   -0.5522    0.8479    6.2243 H   0  0  0  0  0  0  0  0  0  0  0  0
    1.0292   -2.2448    3.8658 H   0  0  0  0  0  0  0  0  0  0  0  0
   -0.0677   -2.7025    5.1952 H   0  0  0  0  0  0  0  0  0  0  0  0
    1.5654   -2.0633    5.5557 H   0  0  0  0  0  0  0  0  0  0  0  0
   -2.5861    2.4801   -1.4410 H   0  0  0  0  0  0  0  0  0  0  0  0
    0.6989    3.7155   -4.0190 H   0  0  0  0  0  0  0  0  0  0  0  0
   -0.7231    4.7803   -4.0435 H   0  0  0  0  0  0  0  0  0  0  0  0
   -0.9081    3.0177   -3.7751 H   0  0  0  0  0  0  0  0  0  0  0  0
    2.3570    5.5693   -2.6166 H   0  0  0  0  0  0  0  0  0  0  0  0
    2.1183    6.5917   -1.1681 H   0  0  0  0  0  0  0  0  0  0  0  0
    1.0449    6.7648   -2.5886 H   0  0  0  0  0  0  0  0  0  0  0  0
  1  2  2  0
  1 10  1  0
  1 14  1  0
  2  3  1  0
  2 25  1  0
  3  4  2  0
  3 26  1  0
  4  5  1  0
  4 27  1  0
  5  6  1  0
  5 10  2  0
  6  7  2  0
  6 11  1  0
  7  8  1  0
  7 28  1  0
  8  9  2  0
  8 29  1  0
  9 10  1  0
  9 30  1  0
 11 12  1  0
 11 13  1  0
 12 31  1  0
 12 32  1  0
 12 33  1  0
 13 34  1  0
 13 35  1  0
 13 36  1  0
 14 15  2  0
 14 16  2  0
 14 17  1  0
 17 18  1  0
 17 37  1  0
 18 19  1  0
 18 22  2  0
 19 20  1  0
 20 21  2  0
 21 22  1  0
 21 24  1  0
 22 23  1  0
 23 38  1  0
 23 39  1  0
 23 40  1  0
 24 41  1  0
 24 42  1  0
 24 43  1  0
M  END

