
     RDKit          3D

 43 45  0  0  0  0  0  0  0  0999 V2000
   -0.2010    0.2364   -0.3875 C   0  0  0  0  0  0  0  0  0  0  0  0
    1.1665    0.3208   -0.5560 C   0  0  0  0  0  0  0  0  0  0  0  0
    2.0154    0.2151    0.5656 C   0  0  0  0  0  0  0  0  0  0  0  0
    1.4753    0.0595    1.8249 C   0  0  0  0  0  0  0  0  0  0  0  0
    0.0706    0.0224    2.0315 C   0  0  0  0  0  0  0  0  0  0  0  0
   -0.4811   -0.1270    3.3548 C   0  0  0  0  0  0  0  0  0  0  0  0
   -1.8457   -0.3330    3.4902 C   0  0  0  0  0  0  0  0  0  0  0  0
   -2.6960   -0.3188    2.3624 C   0  0  0  0  0  0  0  0  0  0  0  0
   -2.2083   -0.0884    1.0952 C   0  0  0  0  0  0  0  0  0  0  0  0
   -0.8099    0.0731    0.8968 C   0  0  0  0  0  0  0  0  0  0  0  0
    0.3942   -0.0840    4.4624 N   0  0  0  0  0  0  0  0  0  0  0  0
    0.9691    1.2233    4.7651 C   0  0  0  0  0  0  0  0  0  0  0  0
   -0.0203   -0.7880    5.6590 C   0  0  0  0  0  0  0  0  0  0  0  0
   -1.1676    0.2788   -1.8944 S   0  0  0  0  0  0  0  0  0  0  0  0
   -2.3662    1.1049   -1.7506 O   0  0  0  0  0  0  0  0  0  0  0  0
   -0.2443    0.4904   -3.0076 O   0  0  0  0  0  0  0  0  0  0  0  0
   -1.7926   -1.3381   -1.9343 N   0  0  0  0  0  0  0  0  0  0  0  0
   -0.9350   -2.3610   -2.3180 C   0  0  0  0  0  0  0  0  0  0  0  0
   -0.8568   -2.6886   -3.6259 O   0  0  0  0  0  0  0  0  0  0  0  0
    0.0581   -3.7098   -3.7815 N   0  0  0  0  0  0  0  0  0  0  0  0
    0.5324   -3.9668   -2.5817 C   0  0  0  0  0  0  0  0  0  0  0  0
   -0.0786   -3.1363   -1.5823 C   0  0  0  0  0  0  0  0  0  0  0  0
    0.1391   -3.1517   -0.1056 C   0  0  0  0  0  0  0  0  0  0  0  0
    1.5619   -5.0288   -2.3769 C   0  0  0  0  0  0  0  0  0  0  0  0
    1.5703    0.4360   -1.5619 H   0  0  0  0  0  0  0  0  0  0  0  0
    3.0981    0.2357    0.4263 H   0  0  0  0  0  0  0  0  0  0  0  0
    2.1243   -0.0703    2.6908 H   0  0  0  0  0  0  0  0  0  0  0  0
   -2.2817   -0.4705    4.4796 H   0  0  0  0  0  0  0  0  0  0  0  0
   -3.7697   -0.4600    2.5076 H   0  0  0  0  0  0  0  0  0  0  0  0
   -2.8840   -0.0297    0.2463 H   0  0  0  0  0  0  0  0  0  0  0  0
    1.8590    1.1037    5.4038 H   0  0  0  0  0  0  0  0  0  0  0  0
    0.2474    1.8766    5.2992 H   0  0  0  0  0  0  0  0  0  0  0  0
    1.2716    1.7403    3.8462 H   0  0  0  0  0  0  0  0  0  0  0  0
   -0.3799   -1.7944    5.4020 H   0  0  0  0  0  0  0  0  0  0  0  0
   -0.8197   -0.2658    6.2274 H   0  0  0  0  0  0  0  0  0  0  0  0
    0.8446   -0.8919    6.3329 H   0  0  0  0  0  0  0  0  0  0  0  0
   -2.6829   -1.3015   -2.4342 H   0  0  0  0  0  0  0  0  0  0  0  0
    0.2344   -4.1839    0.2662 H   0  0  0  0  0  0  0  0  0  0  0  0
   -0.7003   -2.6715    0.4152 H   0  0  0  0  0  0  0  0  0  0  0  0
    1.0564   -2.6114    0.1806 H   0  0  0  0  0  0  0  0  0  0  0  0
    2.4830   -4.6055   -1.9446 H   0  0  0  0  0  0  0  0  0  0  0  0
    1.8075   -5.5042   -3.3359 H   0  0  0  0  0  0  0  0  0  0  0  0
    1.1978   -5.8021   -1.6812 H   0  0  0  0  0  0  0  0  0  0  0  0
  1  2  2  0
  1 10  1  0
  1 14  1  0
  2  3  1  0
  2 25  1  0
  3  4  2  0
  3 26  1  0
  4  5  1  0
  4 27  1  0
  5  6  1  0
  5 10  2  0
  6  7  2  0
  6 11  1  0
  7  8  1  0
  7 28  1  0
  8  9  2  0
  8 29  1  0
  9 10  1  0
  9 30  1  0
 11 12  1  0
 11 13  1  0
 12 31  1  0
 12 32  1  0
 12 33  1  0
 13 34  1  0
 13 35  1  0
 13 36  1  0
 14 15  2  0
 14 16  2  0
 14 17  1  0
 17 18  1  0
 17 37  1  0
 18 19  1  0
 18 22  2  0
 19 20  1  0
 20 21  2  0
 21 22  1  0
 21 24  1  0
 22 23  1  0
 23 38  1  0
 23 39  1  0
 23 40  1  0
 24 41  1  0
 24 42  1  0
 24 43  1  0
M  END

