rmsd157.gzmat
 OpenBabel08211713413D

 43 45  0  0  0  0  0  0  0  0999 V2000
    0.0000    0.0000    0.0000 C   0  0  0  0  0  0  0  0  0  0  0  0
    1.3771    0.0000    0.0000 C   0  0  0  0  0  0  0  0  0  0  0  0
    2.1027    0.0000    1.2109 C   0  0  0  0  0  0  0  0  0  0  0  0
    1.4310    0.0096    2.4061 C   0  0  0  0  0  0  0  0  0  0  0  0
    0.0106   -0.0006    2.4375 C   0  0  0  0  0  0  0  0  0  0  0  0
   -0.6908    0.0094    3.6854 C   0  0  0  0  0  0  0  0  0  0  0  0
   -2.0661   -0.0246    3.7184 C   0  0  0  0  0  0  0  0  0  0  0  0
   -2.7918   -0.0869    2.5088 C   0  0  0  0  0  0  0  0  0  0  0  0
   -2.1449   -0.0957    1.2997 C   0  0  0  0  0  0  0  0  0  0  0  0
   -0.7251   -0.0308    1.2262 C   0  0  0  0  0  0  0  0  0  0  0  0
    0.1330    0.0499    4.8714 N   0  0  0  0  0  0  0  0  0  0  0  0
   -0.0163    1.3434    5.5737 C   0  0  0  0  0  0  0  0  0  0  0  0
   -0.1405   -1.0982    5.7616 C   0  0  0  0  0  0  0  0  0  0  0  0
   -0.7903    0.0455   -1.5597 S   0  0  0  0  0  0  0  0  0  0  0  0
    0.2236    0.1590   -2.5740 O   0  0  0  0  0  0  0  0  0  0  0  0
   -1.8506   -0.9270   -1.6389 O   0  0  0  0  0  0  0  0  0  0  0  0
   -1.7145    1.5530   -1.5397 N   0  0  0  0  0  0  0  0  0  0  0  0
   -1.2298    2.7462   -2.0189 C   0  0  0  0  0  0  0  0  0  0  0  0
   -2.2112    3.5510   -2.6058 O   0  0  0  0  0  0  0  0  0  0  0  0
   -1.6158    4.7373   -2.9836 N   0  0  0  0  0  0  0  0  0  0  0  0
   -0.3251    4.6846   -2.6664 C   0  0  0  0  0  0  0  0  0  0  0  0
   -0.0231    3.4171   -2.0240 C   0  0  0  0  0  0  0  0  0  0  0  0
    1.2900    2.9923   -1.5231 C   0  0  0  0  0  0  0  0  0  0  0  0
    0.6193    5.7845   -2.9449 C   0  0  0  0  0  0  0  0  0  0  0  0
    1.9552    0.0024   -0.9367 H   0  0  0  0  0  0  0  0  0  0  0  0
    3.1901   -0.0036    1.1806 H   0  0  0  0  0  0  0  0  0  0  0  0
    1.9725    0.0184    3.3585 H   0  0  0  0  0  0  0  0  0  0  0  0
   -2.6060   -0.0083    4.6617 H   0  0  0  0  0  0  0  0  0  0  0  0
   -3.8811   -0.1323    2.5543 H   0  0  0  0  0  0  0  0  0  0  0  0
   -2.7422   -0.1803    0.3884 H   0  0  0  0  0  0  0  0  0  0  0  0
    0.7020    1.3766    6.4101 H   0  0  0  0  0  0  0  0  0  0  0  0
   -1.0255    1.5342    5.9672 H   0  0  0  0  0  0  0  0  0  0  0  0
    0.2453    2.1601    4.8787 H   0  0  0  0  0  0  0  0  0  0  0  0
   -0.0000   -2.0339    5.1930 H   0  0  0  0  0  0  0  0  0  0  0  0
   -1.1481   -1.1086    6.2021 H   0  0  0  0  0  0  0  0  0  0  0  0
    0.6021   -1.0934    6.5777 H   0  0  0  0  0  0  0  0  0  0  0  0
   -2.7341    1.4433   -1.6127 H   0  0  0  0  0  0  0  0  0  0  0  0
    1.6970    2.1603   -2.1291 H   0  0  0  0  0  0  0  0  0  0  0  0
    1.2446    2.6590   -0.4744 H   0  0  0  0  0  0  0  0  0  0  0  0
    2.0304    3.8042   -1.5624 H   0  0  0  0  0  0  0  0  0  0  0  0
    0.9584    6.2631   -2.0122 H   0  0  0  0  0  0  0  0  0  0  0  0
    0.1636    6.5720   -3.5697 H   0  0  0  0  0  0  0  0  0  0  0  0
    1.5116    5.4184   -3.4774 H   0  0  0  0  0  0  0  0  0  0  0  0
  1 10  1  0  0  0  0
  2  1  2  0  0  0  0
  2  3  1  0  0  0  0
  3  4  2  0  0  0  0
  4  5  1  0  0  0  0
  4 27  1  0  0  0  0
  5  6  2  0  0  0  0
  6  7  1  0  0  0  0
  6 11  1  0  0  0  0
  7 28  1  0  0  0  0
  8 29  1  0  0  0  0
  8  7  2  0  0  0  0
  9  8  1  0  0  0  0
 10  9  2  0  0  0  0
 10  5  1  0  0  0  0
 11 12  1  0  0  0  0
 11 13  1  0  0  0  0
 12 32  1  0  0  0  0
 12 31  1  0  0  0  0
 13 35  1  0  0  0  0
 13 36  1  0  0  0  0
 14 17  1  0  0  0  0
 14  1  1  0  0  0  0
 15 14  2  0  0  0  0
 16 14  2  0  0  0  0
 18 17  1  0  0  0  0
 19 18  1  0  0  0  0
 20 21  2  0  0  0  0
 20 19  1  0  0  0  0
 21 22  1  0  0  0  0
 22 18  2  0  0  0  0
 22 23  1  0  0  0  0
 23 39  1  0  0  0  0
 24 21  1  0  0  0  0
 24 41  1  0  0  0  0
 25  2  1  0  0  0  0
 26  3  1  0  0  0  0
 30  9  1  0  0  0  0
 33 12  1  0  0  0  0
 34 13  1  0  0  0  0
 37 17  1  0  0  0  0
 38 23  1  0  0  0  0
 40 23  1  0  0  0  0
 42 24  1  0  0  0  0
 43 24  1  0  0  0  0
M  END
$$$$
