rmsd199.gzmat
 OpenBabel08211713413D

 43 45  0  0  0  0  0  0  0  0999 V2000
    0.0000    0.0000    0.0000 C   0  0  0  0  0  0  0  0  0  0  0  0
    1.3799    0.0000    0.0000 C   0  0  0  0  0  0  0  0  0  0  0  0
    2.1044    0.0000    1.2100 C   0  0  0  0  0  0  0  0  0  0  0  0
    1.4314   -0.0291    2.4047 C   0  0  0  0  0  0  0  0  0  0  0  0
    0.0121   -0.0665    2.4384 C   0  0  0  0  0  0  0  0  0  0  0  0
   -0.6874   -0.1258    3.6906 C   0  0  0  0  0  0  0  0  0  0  0  0
   -2.0624   -0.0528    3.7241 C   0  0  0  0  0  0  0  0  0  0  0  0
   -2.7865    0.0419    2.5160 C   0  0  0  0  0  0  0  0  0  0  0  0
   -2.1442    0.0420    1.3048 C   0  0  0  0  0  0  0  0  0  0  0  0
   -0.7247   -0.0125    1.2280 C   0  0  0  0  0  0  0  0  0  0  0  0
    0.1292   -0.2311    4.8680 N   0  0  0  0  0  0  0  0  0  0  0  0
   -0.4326    0.4484    6.0520 C   0  0  0  0  0  0  0  0  0  0  0  0
    0.4547   -1.6466    5.1579 C   0  0  0  0  0  0  0  0  0  0  0  0
   -0.7695    0.0469   -1.5624 S   0  0  0  0  0  0  0  0  0  0  0  0
    0.1917   -0.3193   -2.5665 O   0  0  0  0  0  0  0  0  0  0  0  0
   -2.0983   -0.5110   -1.5792 O   0  0  0  0  0  0  0  0  0  0  0  0
   -1.1122    1.7721   -1.7775 N   0  0  0  0  0  0  0  0  0  0  0  0
   -0.1872    2.7711   -1.6618 C   0  0  0  0  0  0  0  0  0  0  0  0
    1.0072    2.4470   -1.0257 O   0  0  0  0  0  0  0  0  0  0  0  0
    1.7750    3.6000   -0.9604 N   0  0  0  0  0  0  0  0  0  0  0  0
    1.0941    4.5979   -1.5179 C   0  0  0  0  0  0  0  0  0  0  0  0
   -0.1846    4.1159   -1.9960 C   0  0  0  0  0  0  0  0  0  0  0  0
   -1.2316    4.8870   -2.6784 C   0  0  0  0  0  0  0  0  0  0  0  0
    1.6106    5.9781   -1.6067 C   0  0  0  0  0  0  0  0  0  0  0  0
    1.9609    0.0123   -0.9363 H   0  0  0  0  0  0  0  0  0  0  0  0
    3.1917    0.0428    1.1791 H   0  0  0  0  0  0  0  0  0  0  0  0
    1.9776   -0.0047    3.3534 H   0  0  0  0  0  0  0  0  0  0  0  0
   -2.6085   -0.0831    4.6628 H   0  0  0  0  0  0  0  0  0  0  0  0
   -3.8751    0.0987    2.5632 H   0  0  0  0  0  0  0  0  0  0  0  0
   -2.7512    0.0748    0.3943 H   0  0  0  0  0  0  0  0  0  0  0  0
    0.3657    0.5253    6.8117 H   0  0  0  0  0  0  0  0  0  0  0  0
   -1.2975   -0.0564    6.5066 H   0  0  0  0  0  0  0  0  0  0  0  0
   -0.7253    1.4773    5.7805 H   0  0  0  0  0  0  0  0  0  0  0  0
    0.9384   -2.1003    4.2766 H   0  0  0  0  0  0  0  0  0  0  0  0
   -0.4215   -2.2598    5.4211 H   0  0  0  0  0  0  0  0  0  0  0  0
    1.1773   -1.6826    5.9904 H   0  0  0  0  0  0  0  0  0  0  0  0
   -1.9924    2.0324   -2.2256 H   0  0  0  0  0  0  0  0  0  0  0  0
   -0.8646    5.8667   -3.0207 H   0  0  0  0  0  0  0  0  0  0  0  0
   -2.0902    5.0834   -2.0162 H   0  0  0  0  0  0  0  0  0  0  0  0
   -1.6122    4.3659   -3.5705 H   0  0  0  0  0  0  0  0  0  0  0  0
    1.5771    6.3531   -2.6418 H   0  0  0  0  0  0  0  0  0  0  0  0
    2.6559    6.0531   -1.2629 H   0  0  0  0  0  0  0  0  0  0  0  0
    1.0124    6.6639   -0.9849 H   0  0  0  0  0  0  0  0  0  0  0  0
  1  2  2  0  0  0  0
  1 10  1  0  0  0  0
  2  3  1  0  0  0  0
  3  4  2  0  0  0  0
  4  5  1  0  0  0  0
  4 27  1  0  0  0  0
  5  6  2  0  0  0  0
  6  7  1  0  0  0  0
  6 11  1  0  0  0  0
  7 28  1  0  0  0  0
  8 29  1  0  0  0  0
  8  7  2  0  0  0  0
  9  8  1  0  0  0  0
 10  9  2  0  0  0  0
 10  5  1  0  0  0  0
 11 13  1  0  0  0  0
 11 12  1  0  0  0  0
 12 32  1  0  0  0  0
 12 31  1  0  0  0  0
 13 35  1  0  0  0  0
 13 36  1  0  0  0  0
 14  1  1  0  0  0  0
 15 14  2  0  0  0  0
 16 14  2  0  0  0  0
 17 18  1  0  0  0  0
 17 14  1  0  0  0  0
 18 19  1  0  0  0  0
 19 20  1  0  0  0  0
 21 20  2  0  0  0  0
 22 18  2  0  0  0  0
 22 21  1  0  0  0  0
 23 39  1  0  0  0  0
 23 22  1  0  0  0  0
 24 21  1  0  0  0  0
 24 42  1  0  0  0  0
 24 43  1  0  0  0  0
 25  2  1  0  0  0  0
 26  3  1  0  0  0  0
 30  9  1  0  0  0  0
 33 12  1  0  0  0  0
 34 13  1  0  0  0  0
 37 17  1  0  0  0  0
 38 23  1  0  0  0  0
 40 23  1  0  0  0  0
 41 24  1  0  0  0  0
M  END
$$$$
