rmsd214.gzmat
 OpenBabel08211713413D

 43 45  0  0  0  0  0  0  0  0999 V2000
    0.0000    0.0000    0.0000 C   0  0  0  0  0  0  0  0  0  0  0  0
    1.3797    0.0000    0.0000 C   0  0  0  0  0  0  0  0  0  0  0  0
    2.1065    0.0000    1.2095 C   0  0  0  0  0  0  0  0  0  0  0  0
    1.4358    0.0019    2.4052 C   0  0  0  0  0  0  0  0  0  0  0  0
    0.0155   -0.0246    2.4388 C   0  0  0  0  0  0  0  0  0  0  0  0
   -0.6802   -0.0507    3.6909 C   0  0  0  0  0  0  0  0  0  0  0  0
   -2.0533   -0.1381    3.7286 C   0  0  0  0  0  0  0  0  0  0  0  0
   -2.7811   -0.1827    2.5201 C   0  0  0  0  0  0  0  0  0  0  0  0
   -2.1413   -0.1297    1.3087 C   0  0  0  0  0  0  0  0  0  0  0  0
   -0.7231   -0.0460    1.2282 C   0  0  0  0  0  0  0  0  0  0  0  0
    0.1452    0.0059    4.8733 N   0  0  0  0  0  0  0  0  0  0  0  0
    0.1297    1.3700    5.4479 C   0  0  0  0  0  0  0  0  0  0  0  0
   -0.2278   -1.0122    5.8768 C   0  0  0  0  0  0  0  0  0  0  0  0
   -0.7631    0.1028   -1.5640 S   0  0  0  0  0  0  0  0  0  0  0  0
    0.1606   -0.3560   -2.5644 O   0  0  0  0  0  0  0  0  0  0  0  0
   -2.1401   -0.3248   -1.5783 O   0  0  0  0  0  0  0  0  0  0  0  0
   -0.9459    1.8521   -1.7956 N   0  0  0  0  0  0  0  0  0  0  0  0
    0.1036    2.7194   -1.9355 C   0  0  0  0  0  0  0  0  0  0  0  0
    1.2945    2.3433   -1.3185 O   0  0  0  0  0  0  0  0  0  0  0  0
    2.2178    3.3538   -1.5319 N   0  0  0  0  0  0  0  0  0  0  0  0
    1.6343    4.3224   -2.2321 C   0  0  0  0  0  0  0  0  0  0  0  0
    0.2594    3.9647   -2.5184 C   0  0  0  0  0  0  0  0  0  0  0  0
   -0.7056    4.7707   -3.2767 C   0  0  0  0  0  0  0  0  0  0  0  0
    2.3280    5.5536   -2.6571 C   0  0  0  0  0  0  0  0  0  0  0  0
    1.9612    0.0041   -0.9368 H   0  0  0  0  0  0  0  0  0  0  0  0
    3.1948    0.0147    1.1769 H   0  0  0  0  0  0  0  0  0  0  0  0
    1.9802    0.0126    3.3558 H   0  0  0  0  0  0  0  0  0  0  0  0
   -2.5918   -0.1704    4.6719 H   0  0  0  0  0  0  0  0  0  0  0  0
   -3.8684   -0.2575    2.5663 H   0  0  0  0  0  0  0  0  0  0  0  0
   -2.7519   -0.1740    0.3986 H   0  0  0  0  0  0  0  0  0  0  0  0
    0.8452    1.4106    6.2859 H   0  0  0  0  0  0  0  0  0  0  0  0
   -0.8584    1.6933    5.8088 H   0  0  0  0  0  0  0  0  0  0  0  0
    0.4710    2.0875    4.6818 H   0  0  0  0  0  0  0  0  0  0  0  0
   -0.2853   -2.0010    5.3909 H   0  0  0  0  0  0  0  0  0  0  0  0
   -1.1783   -0.8217    6.3956 H   0  0  0  0  0  0  0  0  0  0  0  0
    0.5787   -1.0618    6.6295 H   0  0  0  0  0  0  0  0  0  0  0  0
   -1.8421    2.1827   -2.1609 H   0  0  0  0  0  0  0  0  0  0  0  0
   -0.7518    5.8058   -2.9012 H   0  0  0  0  0  0  0  0  0  0  0  0
   -1.7266    4.3680   -3.2258 H   0  0  0  0  0  0  0  0  0  0  0  0
   -0.4330    4.8279   -4.3437 H   0  0  0  0  0  0  0  0  0  0  0  0
    2.4383    5.5833   -3.7543 H   0  0  0  0  0  0  0  0  0  0  0  0
    3.3393    5.6328   -2.2245 H   0  0  0  0  0  0  0  0  0  0  0  0
    1.7677    6.4533   -2.3582 H   0  0  0  0  0  0  0  0  0  0  0  0
  1  2  2  0  0  0  0
  1 10  1  0  0  0  0
  2  3  1  0  0  0  0
  3  4  2  0  0  0  0
  4  5  1  0  0  0  0
  4 27  1  0  0  0  0
  5  6  2  0  0  0  0
  6  7  1  0  0  0  0
  6 11  1  0  0  0  0
  7 28  1  0  0  0  0
  8 29  1  0  0  0  0
  8  7  2  0  0  0  0
  9  8  1  0  0  0  0
 10  9  2  0  0  0  0
 10  5  1  0  0  0  0
 11 12  1  0  0  0  0
 11 13  1  0  0  0  0
 12 32  1  0  0  0  0
 12 31  1  0  0  0  0
 13 35  1  0  0  0  0
 13 36  1  0  0  0  0
 14  1  1  0  0  0  0
 15 14  2  0  0  0  0
 16 14  2  0  0  0  0
 17 14  1  0  0  0  0
 18 17  1  0  0  0  0
 18 19  1  0  0  0  0
 20 19  1  0  0  0  0
 21 20  2  0  0  0  0
 22 21  1  0  0  0  0
 22 18  2  0  0  0  0
 23 39  1  0  0  0  0
 23 38  1  0  0  0  0
 23 22  1  0  0  0  0
 24 43  1  0  0  0  0
 24 21  1  0  0  0  0
 24 42  1  0  0  0  0
 25  2  1  0  0  0  0
 26  3  1  0  0  0  0
 30  9  1  0  0  0  0
 33 12  1  0  0  0  0
 34 13  1  0  0  0  0
 37 17  1  0  0  0  0
 40 23  1  0  0  0  0
 41 24  1  0  0  0  0
M  END
$$$$
