43
rmsd4.gzmat
C          0.00000        0.00000        0.00000
C          1.37730        0.00000        0.00000
C          2.10150        0.00000        1.21060
C          1.42820        0.02370        2.40540
C          0.01050        0.09380        2.43820
C         -0.69090        0.16740        3.68900
C         -2.06770        0.19810        3.71360
C         -2.79150        0.18040        2.50190
C         -2.14530        0.13300        1.29380
C         -0.72450        0.07460        1.22560
N          0.12050        0.16460        4.87340
C          0.55540        1.53410        5.23140
C         -0.50150       -0.52050        6.02400
S         -0.78750       -0.12150       -1.55760
O         -1.92920        0.75340       -1.64640
O          0.22670       -0.15470       -2.57730
N         -1.57550       -1.70170       -1.51030
C         -1.00750       -2.88340       -1.91680
O         -1.95980       -3.84590       -2.27050
N         -1.28970       -5.01060       -2.58720
C          0.01600       -4.79840       -2.45210
C          0.25560       -3.43420       -2.01420
C          1.57360       -2.83660       -1.76690
C          1.03380       -5.83480       -2.71630
H          1.95540       -0.00930       -0.93630
H          3.18850       -0.03180        1.18240
H          1.97310       -0.02060        3.35400
H         -2.61430        0.25320        4.65110
H         -3.88130        0.22050        2.54530
H         -2.74430        0.16730        0.37990
H          1.35200        1.45990        5.99170
H         -0.25350        2.16800        5.62670
H          0.98170        2.03660        4.34740
H         -0.90300       -1.49710        5.70340
H         -1.30550        0.04560        6.51680
H          0.29110       -0.72040        6.76720
H         -2.60300       -1.68250       -1.54730
H          2.39230       -3.53770       -1.98250
H          1.69430       -2.52170       -0.71930
H          1.74220       -1.95440       -2.41470
H          1.56230       -6.11750       -1.79210
H          1.78830       -5.47940       -3.43580
H          0.58860       -6.75440       -3.13290
