43

C         -0.20100        0.23640       -0.38750
C          1.16650        0.32080       -0.55600
C          2.01540        0.21510        0.56560
C          1.47530        0.05950        1.82490
C          0.07060        0.02240        2.03150
C         -0.48110       -0.12700        3.35480
C         -1.84570       -0.33300        3.49020
C         -2.69600       -0.31880        2.36240
C         -2.20830       -0.08840        1.09520
C         -0.80990        0.07310        0.89680
N          0.39420       -0.08400        4.46240
C          0.96910        1.22330        4.76510
C         -0.02030       -0.78800        5.65900
S         -1.16760        0.27880       -1.89440
O         -2.36620        1.10490       -1.75060
O         -0.24430        0.49040       -3.00760
N         -1.79260       -1.33810       -1.93430
C         -0.93500       -2.36100       -2.31800
O         -0.85680       -2.68860       -3.62590
N          0.05810       -3.70980       -3.78150
C          0.53240       -3.96680       -2.58170
C         -0.07860       -3.13630       -1.58230
C          0.13910       -3.15170       -0.10560
C          1.56190       -5.02880       -2.37690
H          1.57030        0.43600       -1.56190
H          3.09810        0.23570        0.42630
H          2.12430       -0.07030        2.69080
H         -2.28170       -0.47050        4.47960
H         -3.76970       -0.46000        2.50760
H         -2.88400       -0.02970        0.24630
H          1.85900        1.10370        5.40380
H          0.24740        1.87660        5.29920
H          1.27160        1.74030        3.84620
H         -0.37990       -1.79440        5.40200
H         -0.81970       -0.26580        6.22740
H          0.84460       -0.89190        6.33290
H         -2.68290       -1.30150       -2.43420
H          0.23440       -4.18390        0.26620
H         -0.70030       -2.67150        0.41520
H          1.05640       -2.61140        0.18060
H          2.48300       -4.60550       -1.94460
H          1.80750       -5.50420       -3.33590
H          1.19780       -5.80210       -1.68120
