rmsd158.gzmat
 OpenBabel08211713413D

 43 45  0  0  0  0  0  0  0  0999 V2000
    0.0000    0.0000    0.0000 C   0  0  0  0  0  0  0  0  0  0  0  0
    1.3773    0.0000    0.0000 C   0  0  0  0  0  0  0  0  0  0  0  0
    2.1003    0.0000    1.2114 C   0  0  0  0  0  0  0  0  0  0  0  0
    1.4264    0.0328    2.4060 C   0  0  0  0  0  0  0  0  0  0  0  0
    0.0073    0.0448    2.4394 C   0  0  0  0  0  0  0  0  0  0  0  0
   -0.6995    0.0910    3.6895 C   0  0  0  0  0  0  0  0  0  0  0  0
   -2.0736   -0.0058    3.7139 C   0  0  0  0  0  0  0  0  0  0  0  0
   -2.7894   -0.1418    2.5050 C   0  0  0  0  0  0  0  0  0  0  0  0
   -2.1412   -0.1447    1.2971 C   0  0  0  0  0  0  0  0  0  0  0  0
   -0.7247   -0.0281    1.2274 C   0  0  0  0  0  0  0  0  0  0  0  0
    0.1067    0.1881    4.8715 N   0  0  0  0  0  0  0  0  0  0  0  0
    0.4750    1.5930    5.1607 C   0  0  0  0  0  0  0  0  0  0  0  0
   -0.4762   -0.4703    6.0573 C   0  0  0  0  0  0  0  0  0  0  0  0
   -0.7929    0.0495   -1.5573 S   0  0  0  0  0  0  0  0  0  0  0  0
    0.2174    0.1291   -2.5779 O   0  0  0  0  0  0  0  0  0  0  0  0
   -1.8775   -0.8966   -1.6363 O   0  0  0  0  0  0  0  0  0  0  0  0
   -1.6878    1.5693   -1.5374 N   0  0  0  0  0  0  0  0  0  0  0  0
   -1.1773    2.8198   -1.7641 C   0  0  0  0  0  0  0  0  0  0  0  0
   -2.1807    3.7894   -1.8756 O   0  0  0  0  0  0  0  0  0  0  0  0
   -1.5695    5.0162   -2.0442 N   0  0  0  0  0  0  0  0  0  0  0  0
   -0.2522    4.8368   -2.0413 C   0  0  0  0  0  0  0  0  0  0  0  0
    0.0592    3.4293   -1.8642 C   0  0  0  0  0  0  0  0  0  0  0  0
    1.4121    2.8599   -1.8360 C   0  0  0  0  0  0  0  0  0  0  0  0
    0.7126    5.9423   -2.2060 C   0  0  0  0  0  0  0  0  0  0  0  0
    1.9557   -0.0028   -0.9362 H   0  0  0  0  0  0  0  0  0  0  0  0
    3.1874   -0.0243    1.1839 H   0  0  0  0  0  0  0  0  0  0  0  0
    1.9733    0.0294    3.3547 H   0  0  0  0  0  0  0  0  0  0  0  0
   -2.6262    0.0266    4.6491 H   0  0  0  0  0  0  0  0  0  0  0  0
   -3.8756   -0.2399    2.5501 H   0  0  0  0  0  0  0  0  0  0  0  0
   -2.7325   -0.2726    0.3867 H   0  0  0  0  0  0  0  0  0  0  0  0
    1.2593    1.5972    5.9369 H   0  0  0  0  0  0  0  0  0  0  0  0
   -0.3692    2.2104    5.5068 H   0  0  0  0  0  0  0  0  0  0  0  0
    0.8943    2.0655    4.2567 H   0  0  0  0  0  0  0  0  0  0  0  0
   -0.8139   -1.4863    5.7901 H   0  0  0  0  0  0  0  0  0  0  0  0
   -1.3159    0.0718    6.5175 H   0  0  0  0  0  0  0  0  0  0  0  0
    0.3233   -0.5801    6.8118 H   0  0  0  0  0  0  0  0  0  0  0  0
   -2.7081    1.4886   -1.6243 H   0  0  0  0  0  0  0  0  0  0  0  0
    1.5147    2.0119   -2.5412 H   0  0  0  0  0  0  0  0  0  0  0  0
    1.6906    2.5050   -0.8327 H   0  0  0  0  0  0  0  0  0  0  0  0
    2.1730    3.5951   -2.1355 H   0  0  0  0  0  0  0  0  0  0  0  0
    1.4121    5.9912   -1.3572 H   0  0  0  0  0  0  0  0  0  0  0  0
    0.2105    6.9224   -2.2771 H   0  0  0  0  0  0  0  0  0  0  0  0
    1.3094    5.8139   -3.1237 H   0  0  0  0  0  0  0  0  0  0  0  0
  1  2  2  0  0  0  0
  1 10  1  0  0  0  0
  2  3  1  0  0  0  0
  3  4  2  0  0  0  0
  4  5  1  0  0  0  0
  4 27  1  0  0  0  0
  5  6  2  0  0  0  0
  6  7  1  0  0  0  0
  6 11  1  0  0  0  0
  7 28  1  0  0  0  0
  8 29  1  0  0  0  0
  8  7  2  0  0  0  0
  9  8  1  0  0  0  0
 10  9  2  0  0  0  0
 10  5  1  0  0  0  0
 11 12  1  0  0  0  0
 11 13  1  0  0  0  0
 12 32  1  0  0  0  0
 12 31  1  0  0  0  0
 13 35  1  0  0  0  0
 13 36  1  0  0  0  0
 14 17  1  0  0  0  0
 14  1  1  0  0  0  0
 15 14  2  0  0  0  0
 16 14  2  0  0  0  0
 18 17  1  0  0  0  0
 19 18  1  0  0  0  0
 20 21  2  0  0  0  0
 20 19  1  0  0  0  0
 21 22  1  0  0  0  0
 22 23  1  0  0  0  0
 22 18  2  0  0  0  0
 23 39  1  0  0  0  0
 24 21  1  0  0  0  0
 24 41  1  0  0  0  0
 25  2  1  0  0  0  0
 26  3  1  0  0  0  0
 30  9  1  0  0  0  0
 33 12  1  0  0  0  0
 34 13  1  0  0  0  0
 37 17  1  0  0  0  0
 38 23  1  0  0  0  0
 40 23  1  0  0  0  0
 42 24  1  0  0  0  0
 43 24  1  0  0  0  0
M  END
$$$$
