rmsd124.gzmat
 OpenBabel08211713413D

 43 45  0  0  0  0  0  0  0  0999 V2000
    0.0000    0.0000    0.0000 C   0  0  0  0  0  0  0  0  0  0  0  0
    1.3798    0.0000    0.0000 C   0  0  0  0  0  0  0  0  0  0  0  0
    2.1024    0.0000    1.2108 C   0  0  0  0  0  0  0  0  0  0  0  0
    1.4282    0.0532    2.4046 C   0  0  0  0  0  0  0  0  0  0  0  0
    0.0086    0.0668    2.4382 C   0  0  0  0  0  0  0  0  0  0  0  0
   -0.6981    0.1440    3.6863 C   0  0  0  0  0  0  0  0  0  0  0  0
   -2.0724    0.0467    3.7140 C   0  0  0  0  0  0  0  0  0  0  0  0
   -2.7881   -0.1128    2.5081 C   0  0  0  0  0  0  0  0  0  0  0  0
   -2.1407   -0.1353    1.3003 C   0  0  0  0  0  0  0  0  0  0  0  0
   -0.7244   -0.0221    1.2281 C   0  0  0  0  0  0  0  0  0  0  0  0
    0.1080    0.2790    4.8649 N   0  0  0  0  0  0  0  0  0  0  0  0
    0.4790    1.6935    5.1010 C   0  0  0  0  0  0  0  0  0  0  0  0
   -0.4790   -0.3340    6.0726 C   0  0  0  0  0  0  0  0  0  0  0  0
   -0.7805    0.1193   -1.5507 S   0  0  0  0  0  0  0  0  0  0  0  0
    0.2081   -0.0058   -2.5879 O   0  0  0  0  0  0  0  0  0  0  0  0
   -2.0266   -0.5977   -1.6460 O   0  0  0  0  0  0  0  0  0  0  0  0
   -1.3284    1.8055   -1.5639 N   0  0  0  0  0  0  0  0  0  0  0  0
   -0.6083    2.8678   -1.0962 C   0  0  0  0  0  0  0  0  0  0  0  0
    0.4654    2.5770   -0.2585 O   0  0  0  0  0  0  0  0  0  0  0  0
    1.0259    3.7812    0.1391 N   0  0  0  0  0  0  0  0  0  0  0  0
    0.3346    4.7760   -0.4115 C   0  0  0  0  0  0  0  0  0  0  0  0
   -0.7355    4.2413   -1.2270 C   0  0  0  0  0  0  0  0  0  0  0  0
   -1.7227    5.0028   -2.0027 C   0  0  0  0  0  0  0  0  0  0  0  0
    0.6594    6.2014   -0.2057 C   0  0  0  0  0  0  0  0  0  0  0  0
    1.9585    0.0090   -0.9366 H   0  0  0  0  0  0  0  0  0  0  0  0
    3.1900   -0.0185    1.1822 H   0  0  0  0  0  0  0  0  0  0  0  0
    1.9768    0.0720    3.3518 H   0  0  0  0  0  0  0  0  0  0  0  0
   -2.6248    0.0999    4.6478 H   0  0  0  0  0  0  0  0  0  0  0  0
   -3.8738   -0.2101    2.5532 H   0  0  0  0  0  0  0  0  0  0  0  0
   -2.7359   -0.2683    0.3908 H   0  0  0  0  0  0  0  0  0  0  0  0
    1.2674    1.7263    5.8714 H   0  0  0  0  0  0  0  0  0  0  0  0
   -0.3634    2.3237    5.4259 H   0  0  0  0  0  0  0  0  0  0  0  0
    0.8941    2.1323    4.1759 H   0  0  0  0  0  0  0  0  0  0  0  0
   -0.8088   -1.3619    5.8431 H   0  0  0  0  0  0  0  0  0  0  0  0
   -1.3261    0.2198    6.5044 H   0  0  0  0  0  0  0  0  0  0  0  0
    0.3147   -0.4080    6.8371 H   0  0  0  0  0  0  0  0  0  0  0  0
   -2.1580    2.0387   -2.1106 H   0  0  0  0  0  0  0  0  0  0  0  0
   -2.6297    5.2107   -1.4120 H   0  0  0  0  0  0  0  0  0  0  0  0
   -2.0372    4.4709   -2.9130 H   0  0  0  0  0  0  0  0  0  0  0  0
   -1.3221    5.9749   -2.3291 H   0  0  0  0  0  0  0  0  0  0  0  0
    1.0461    6.6549   -1.1338 H   0  0  0  0  0  0  0  0  0  0  0  0
    1.4287    6.3445    0.5716 H   0  0  0  0  0  0  0  0  0  0  0  0
   -0.2303    6.7751    0.0981 H   0  0  0  0  0  0  0  0  0  0  0  0
  1  2  2  0  0  0  0
  1 10  1  0  0  0  0
  2  3  1  0  0  0  0
  3  4  2  0  0  0  0
  4  5  1  0  0  0  0
  4 27  1  0  0  0  0
  5  6  2  0  0  0  0
  6  7  1  0  0  0  0
  6 11  1  0  0  0  0
  7 28  1  0  0  0  0
  8 29  1  0  0  0  0
  8  7  2  0  0  0  0
  9  8  1  0  0  0  0
 10  9  2  0  0  0  0
 10  5  1  0  0  0  0
 11 12  1  0  0  0  0
 11 13  1  0  0  0  0
 12 32  1  0  0  0  0
 12 31  1  0  0  0  0
 13 35  1  0  0  0  0
 13 36  1  0  0  0  0
 14  1  1  0  0  0  0
 15 14  2  0  0  0  0
 16 14  2  0  0  0  0
 17 14  1  0  0  0  0
 17 18  1  0  0  0  0
 18 19  1  0  0  0  0
 19 20  1  0  0  0  0
 21 24  1  0  0  0  0
 21 20  2  0  0  0  0
 22 18  2  0  0  0  0
 22 21  1  0  0  0  0
 23 38  1  0  0  0  0
 23 22  1  0  0  0  0
 24 43  1  0  0  0  0
 24 42  1  0  0  0  0
 25  2  1  0  0  0  0
 26  3  1  0  0  0  0
 30  9  1  0  0  0  0
 33 12  1  0  0  0  0
 34 13  1  0  0  0  0
 37 17  1  0  0  0  0
 39 23  1  0  0  0  0
 40 23  1  0  0  0  0
 41 24  1  0  0  0  0
M  END
$$$$
