43

C         -0.25410        0.49790        0.19500
C          1.11880        0.55680        0.06440
C          1.93680        0.29880        1.18420
C          1.36180        0.05290        2.41270
C         -0.04800        0.03890        2.58450
C         -0.63690       -0.18750        3.88000
C         -2.00900       -0.36760        3.96850
C         -2.82760       -0.26970        2.82190
C         -2.30160        0.03350        1.58570
C         -0.89850        0.20180        1.43860
N          0.21090       -0.23860        5.00830
C          0.80820        1.03200        5.40840
C         -0.24820       -1.00900        6.14570
S         -1.19360        0.87760       -1.27760
O         -0.24080        1.18000       -2.34930
O         -2.28410       -0.06920       -1.51420
N         -1.99610        2.30910       -0.79330
C         -1.27120        3.47990       -0.62040
O         -0.99750        3.83820        0.65800
N         -0.24340        4.98560        0.65290
C         -0.06570        5.31310       -0.61000
C         -0.70050        4.37260       -1.48780
C         -0.70880        4.35890       -2.97970
C          0.72400        6.52230       -0.98840
H          1.54990        0.79390       -0.90820
H          3.02260        0.29550        1.07030
H          1.98510       -0.16590        3.27960
H         -2.47350       -0.55840        4.93590
H         -3.90540       -0.41540        2.92670
H         -2.94840        0.11290        0.71580
H          1.68320        0.84980        6.05310
H          0.09050        1.66420        5.97240
H          1.13770        1.60300        4.53180
H         -0.62460       -1.98720        5.81450
H         -1.04900       -0.50570        6.72950
H          0.59750       -1.17820        6.83090
H         -2.92480        2.35300       -1.20960
H         -1.23540        5.23650       -3.39040
H         -1.18490        3.44440       -3.35660
H          0.31880        4.37600       -3.37670
H          1.58330        6.24740       -1.62150
H          1.09600        7.02680       -0.08660
H          0.10750        7.23220       -1.56330
