
     RDKit          3D

 43 45  0  0  0  0  0  0  0  0999 V2000
   -0.1067   -0.1940   -0.3706 C   0  0  0  0  0  0  0  0  0  0  0  0
    1.2674   -0.1465   -0.4893 C   0  0  0  0  0  0  0  0  0  0  0  0
    2.0667   -0.1021    0.6728 C   0  0  0  0  0  0  0  0  0  0  0  0
    1.4709   -0.0422    1.9147 C   0  0  0  0  0  0  0  0  0  0  0  0
    0.0578   -0.0357    2.0609 C   0  0  0  0  0  0  0  0  0  0  0  0
   -0.5550    0.0746    3.3601 C   0  0  0  0  0  0  0  0  0  0  0  0
   -1.9284   -0.0851    3.4673 C   0  0  0  0  0  0  0  0  0  0  0  0
   -2.7255   -0.2931    2.3200 C   0  0  0  0  0  0  0  0  0  0  0  0
   -2.1765   -0.3182    1.0568 C   0  0  0  0  0  0  0  0  0  0  0  0
   -0.7710   -0.1833    0.8969 C   0  0  0  0  0  0  0  0  0  0  0  0
    0.2710    0.3241    4.4784 N   0  0  0  0  0  0  0  0  0  0  0  0
    0.8480    1.6625    4.5501 C   0  0  0  0  0  0  0  0  0  0  0  0
   -0.2049   -0.1361    5.7674 C   0  0  0  0  0  0  0  0  0  0  0  0
   -1.0161   -0.2148   -1.9125 S   0  0  0  0  0  0  0  0  0  0  0  0
   -0.0428   -0.1872   -3.0026 O   0  0  0  0  0  0  0  0  0  0  0  0
   -2.0951   -1.2030   -1.9001 O   0  0  0  0  0  0  0  0  0  0  0  0
   -1.8537    1.3003   -1.8196 N   0  0  0  0  0  0  0  0  0  0  0  0
   -1.1385    2.4594   -2.0909 C   0  0  0  0  0  0  0  0  0  0  0  0
   -1.1055    2.9188   -3.3603 O   0  0  0  0  0  0  0  0  0  0  0  0
   -0.3346    4.0623   -3.4075 N   0  0  0  0  0  0  0  0  0  0  0  0
    0.1029    4.2630   -2.1832 C   0  0  0  0  0  0  0  0  0  0  0  0
   -0.3918    3.2673   -1.2747 C   0  0  0  0  0  0  0  0  0  0  0  0
   -0.1752    3.1707    0.1994 C   0  0  0  0  0  0  0  0  0  0  0  0
    0.9829    5.4273   -1.8669 C   0  0  0  0  0  0  0  0  0  0  0  0
    1.7138   -0.1507   -1.4838 H   0  0  0  0  0  0  0  0  0  0  0  0
    3.1545   -0.1180    0.5805 H   0  0  0  0  0  0  0  0  0  0  0  0
    2.0791   -0.0262    2.8190 H   0  0  0  0  0  0  0  0  0  0  0  0
   -2.4108   -0.0231    4.4428 H   0  0  0  0  0  0  0  0  0  0  0  0
   -3.8048   -0.4142    2.4395 H   0  0  0  0  0  0  0  0  0  0  0  0
   -2.8055   -0.4692    0.1833 H   0  0  0  0  0  0  0  0  0  0  0  0
    1.7054    1.6663    5.2422 H   0  0  0  0  0  0  0  0  0  0  0  0
    0.1110    2.4105    4.9117 H   0  0  0  0  0  0  0  0  0  0  0  0
    1.2008    1.9895    3.5641 H   0  0  0  0  0  0  0  0  0  0  0  0
   -0.5681   -1.1705    5.6899 H   0  0  0  0  0  0  0  0  0  0  0  0
   -1.0198    0.4903    6.1897 H   0  0  0  0  0  0  0  0  0  0  0  0
    0.6288   -0.1159    6.4869 H   0  0  0  0  0  0  0  0  0  0  0  0
   -2.7256    1.1921   -2.3410 H   0  0  0  0  0  0  0  0  0  0  0  0
    0.7909    2.6980    0.4427 H   0  0  0  0  0  0  0  0  0  0  0  0
   -0.9631    2.5662    0.6685 H   0  0  0  0  0  0  0  0  0  0  0  0
   -0.1809    4.1699    0.6624 H   0  0  0  0  0  0  0  0  0  0  0  0
    0.5215    6.0751   -1.1040 H   0  0  0  0  0  0  0  0  0  0  0  0
    1.1599    6.0213   -2.7736 H   0  0  0  0  0  0  0  0  0  0  0  0
    1.9537    5.0901   -1.4690 H   0  0  0  0  0  0  0  0  0  0  0  0
  1  2  2  0
  1 10  1  0
  1 14  1  0
  2  3  1  0
  2 25  1  0
  3  4  2  0
  3 26  1  0
  4  5  1  0
  4 27  1  0
  5  6  1  0
  5 10  2  0
  6  7  2  0
  6 11  1  0
  7  8  1  0
  7 28  1  0
  8  9  2  0
  8 29  1  0
  9 10  1  0
  9 30  1  0
 11 12  1  0
 11 13  1  0
 12 31  1  0
 12 32  1  0
 12 33  1  0
 13 34  1  0
 13 35  1  0
 13 36  1  0
 14 15  2  0
 14 16  2  0
 14 17  1  0
 17 18  1  0
 17 37  1  0
 18 19  1  0
 18 22  2  0
 19 20  1  0
 20 21  2  0
 21 22  1  0
 21 24  1  0
 22 23  1  0
 23 38  1  0
 23 39  1  0
 23 40  1  0
 24 41  1  0
 24 42  1  0
 24 43  1  0
M  END

