
     RDKit          3D

 43 45  0  0  0  0  0  0  0  0999 V2000
   -0.2541    0.4979    0.1950 C   0  0  0  0  0  0  0  0  0  0  0  0
    1.1188    0.5568    0.0644 C   0  0  0  0  0  0  0  0  0  0  0  0
    1.9368    0.2988    1.1842 C   0  0  0  0  0  0  0  0  0  0  0  0
    1.3618    0.0529    2.4127 C   0  0  0  0  0  0  0  0  0  0  0  0
   -0.0480    0.0389    2.5845 C   0  0  0  0  0  0  0  0  0  0  0  0
   -0.6369   -0.1875    3.8800 C   0  0  0  0  0  0  0  0  0  0  0  0
   -2.0090   -0.3676    3.9685 C   0  0  0  0  0  0  0  0  0  0  0  0
   -2.8276   -0.2697    2.8219 C   0  0  0  0  0  0  0  0  0  0  0  0
   -2.3016    0.0335    1.5857 C   0  0  0  0  0  0  0  0  0  0  0  0
   -0.8985    0.2018    1.4386 C   0  0  0  0  0  0  0  0  0  0  0  0
    0.2109   -0.2386    5.0083 N   0  0  0  0  0  0  0  0  0  0  0  0
    0.8082    1.0320    5.4084 C   0  0  0  0  0  0  0  0  0  0  0  0
   -0.2482   -1.0090    6.1457 C   0  0  0  0  0  0  0  0  0  0  0  0
   -1.1936    0.8776   -1.2776 S   0  0  0  0  0  0  0  0  0  0  0  0
   -0.2408    1.1800   -2.3493 O   0  0  0  0  0  0  0  0  0  0  0  0
   -2.2841   -0.0692   -1.5142 O   0  0  0  0  0  0  0  0  0  0  0  0
   -1.9961    2.3091   -0.7933 N   0  0  0  0  0  0  0  0  0  0  0  0
   -1.2712    3.4799   -0.6204 C   0  0  0  0  0  0  0  0  0  0  0  0
   -0.9975    3.8382    0.6580 O   0  0  0  0  0  0  0  0  0  0  0  0
   -0.2434    4.9856    0.6529 N   0  0  0  0  0  0  0  0  0  0  0  0
   -0.0657    5.3131   -0.6100 C   0  0  0  0  0  0  0  0  0  0  0  0
   -0.7005    4.3726   -1.4878 C   0  0  0  0  0  0  0  0  0  0  0  0
   -0.7088    4.3589   -2.9797 C   0  0  0  0  0  0  0  0  0  0  0  0
    0.7240    6.5223   -0.9884 C   0  0  0  0  0  0  0  0  0  0  0  0
    1.5499    0.7939   -0.9082 H   0  0  0  0  0  0  0  0  0  0  0  0
    3.0226    0.2955    1.0703 H   0  0  0  0  0  0  0  0  0  0  0  0
    1.9851   -0.1659    3.2796 H   0  0  0  0  0  0  0  0  0  0  0  0
   -2.4735   -0.5584    4.9359 H   0  0  0  0  0  0  0  0  0  0  0  0
   -3.9054   -0.4154    2.9267 H   0  0  0  0  0  0  0  0  0  0  0  0
   -2.9484    0.1129    0.7158 H   0  0  0  0  0  0  0  0  0  0  0  0
    1.6832    0.8498    6.0531 H   0  0  0  0  0  0  0  0  0  0  0  0
    0.0905    1.6642    5.9724 H   0  0  0  0  0  0  0  0  0  0  0  0
    1.1377    1.6030    4.5318 H   0  0  0  0  0  0  0  0  0  0  0  0
   -0.6246   -1.9872    5.8145 H   0  0  0  0  0  0  0  0  0  0  0  0
   -1.0490   -0.5057    6.7295 H   0  0  0  0  0  0  0  0  0  0  0  0
    0.5975   -1.1782    6.8309 H   0  0  0  0  0  0  0  0  0  0  0  0
   -2.9248    2.3530   -1.2096 H   0  0  0  0  0  0  0  0  0  0  0  0
   -1.2354    5.2365   -3.3904 H   0  0  0  0  0  0  0  0  0  0  0  0
   -1.1849    3.4444   -3.3566 H   0  0  0  0  0  0  0  0  0  0  0  0
    0.3188    4.3760   -3.3767 H   0  0  0  0  0  0  0  0  0  0  0  0
    1.5833    6.2474   -1.6215 H   0  0  0  0  0  0  0  0  0  0  0  0
    1.0960    7.0268   -0.0866 H   0  0  0  0  0  0  0  0  0  0  0  0
    0.1075    7.2322   -1.5633 H   0  0  0  0  0  0  0  0  0  0  0  0
  1  2  2  0
  1 10  1  0
  1 14  1  0
  2  3  1  0
  2 25  1  0
  3  4  2  0
  3 26  1  0
  4  5  1  0
  4 27  1  0
  5  6  1  0
  5 10  2  0
  6  7  2  0
  6 11  1  0
  7  8  1  0
  7 28  1  0
  8  9  2  0
  8 29  1  0
  9 10  1  0
  9 30  1  0
 11 12  1  0
 11 13  1  0
 12 31  1  0
 12 32  1  0
 12 33  1  0
 13 34  1  0
 13 35  1  0
 13 36  1  0
 14 15  2  0
 14 16  2  0
 14 17  1  0
 17 18  1  0
 17 37  1  0
 18 19  1  0
 18 22  2  0
 19 20  1  0
 20 21  2  0
 21 22  1  0
 21 24  1  0
 22 23  1  0
 23 38  1  0
 23 39  1  0
 23 40  1  0
 24 41  1  0
 24 42  1  0
 24 43  1  0
M  END

