21

O         -0.05730       -0.03570       -0.03690
C          1.15870        0.00480       -0.03660
C          1.97150        0.11590        1.25010
H          2.16770       -0.92380        1.58800
C          1.29400        0.90270        2.37360
C          2.48550        1.35650        3.22980
C          3.58310        1.67870        2.20320
N          3.23430        0.83270        1.06010
C          3.98270        0.78020       -0.06830
O          5.04930        1.35420       -0.20480
C          3.37430       -0.08210       -1.17640
N          1.92210       -0.06670       -1.16210
H          0.76380        1.76540        1.94080
H          0.55600        0.29930        2.91730
H          2.25070        2.21550        3.87400
H          2.81290        0.53190        3.88380
H          3.57460        2.73850        1.89600
H          4.60010        1.45440        2.55900
H          3.74360        0.32430       -2.12670
H          3.78230       -1.10830       -1.07970
H          1.41360       -0.18860       -2.03250
