rmsd174.gzmat
 OpenBabel08211713373D

 38 40  0  0  1  0  0  0  0  0999 V2000
    0.0000    0.0000    0.0000 S   0  0  0  0  0  0  0  0  0  0  0  0
    1.8115    0.0000    0.0000 C   0  0  0  0  0  0  0  0  0  0  0  0
    2.3344    0.0000    1.2170 N   0  0  0  0  0  0  0  0  0  0  0  0
    1.3621    0.0004    2.2189 C   0  0  0  0  0  0  0  0  0  0  0  0
    0.0552    0.0073    1.7938 C   0  0  1  0  0  0  0  0  0  0  0  0
   -1.0827    0.0290    2.6010 N   0  0  0  0  0  0  0  0  0  0  0  0
   -1.8542   -1.1530    2.6702 C   0  0  0  0  0  0  0  0  0  0  0  0
   -1.2077   -2.3990    2.5514 C   0  0  0  0  0  0  0  0  0  0  0  0
   -1.9292   -3.5723    2.7203 C   0  0  0  0  0  0  0  0  0  0  0  0
   -3.2940   -3.5317    3.0084 C   0  0  0  0  0  0  0  0  0  0  0  0
   -3.9334   -2.3011    3.1278 C   0  0  0  0  0  0  0  0  0  0  0  0
   -3.2284   -1.1128    2.9574 C   0  0  0  0  0  0  0  0  0  0  0  0
   -1.7818    1.3261    2.6042 C   0  0  0  0  0  0  0  0  0  0  0  0
    1.8271   -0.0123    3.6235 C   0  0  0  0  0  0  0  0  0  0  0  0
    2.4870    0.0081   -1.1871 N   0  0  0  0  0  0  0  0  0  0  0  0
    3.8959   -0.0510   -1.3387 C   0  0  0  0  0  0  0  0  0  0  0  0
    4.7970    0.2705   -0.3179 C   0  0  0  0  0  0  0  0  0  0  0  0
    6.1641    0.2160   -0.5736 C   0  0  0  0  0  0  0  0  0  0  0  0
    6.6395   -0.1567   -1.8292 C   0  0  0  0  0  0  0  0  0  0  0  0
    5.7378   -0.4750   -2.8439 C   0  0  0  0  0  0  0  0  0  0  0  0
    4.3688   -0.4221   -2.6116 C   0  0  0  0  0  0  0  0  0  0  0  0
   -0.1421   -2.4450    2.3369 H   0  0  0  0  0  0  0  0  0  0  0  0
   -1.4234   -4.5328    2.6257 H   0  0  0  0  0  0  0  0  0  0  0  0
   -3.8515   -4.4543    3.1371 H   0  0  0  0  0  0  0  0  0  0  0  0
   -4.9989   -2.2628    3.3537 H   0  0  0  0  0  0  0  0  0  0  0  0
   -3.7545   -0.1686    3.0472 H   0  0  0  0  0  0  0  0  0  0  0  0
   -1.0465    2.1478    2.5358 H   0  0  0  0  0  0  0  0  0  0  0  0
   -2.3155    1.4429    3.5648 H   0  0  0  0  0  0  0  0  0  0  0  0
   -2.5011    1.4350    1.7758 H   0  0  0  0  0  0  0  0  0  0  0  0
    0.9946   -0.1628    4.3294 H   0  0  0  0  0  0  0  0  0  0  0  0
    2.3247    0.9352    3.8862 H   0  0  0  0  0  0  0  0  0  0  0  0
    2.5647   -0.8150    3.7920 H   0  0  0  0  0  0  0  0  0  0  0  0
    1.9439   -0.0793   -2.0452 H   0  0  0  0  0  0  0  0  0  0  0  0
    4.4424    0.5598    0.6757 H   0  0  0  0  0  0  0  0  0  0  0  0
    6.8674    0.4688    0.2199 H   0  0  0  0  0  0  0  0  0  0  0  0
    7.7087   -0.2012   -2.0178 H   0  0  0  0  0  0  0  0  0  0  0  0
    6.1069   -0.7693   -3.8256 H   0  0  0  0  0  0  0  0  0  0  0  0
    3.6754   -0.6719   -3.4097 H   0  0  0  0  0  0  0  0  0  0  0  0
  1  5  1  0  0  0  0
  2  1  1  0  0  0  0
  2  3  2  0  0  0  0
  3  4  2  0  0  0  0
  4 14  1  0  0  0  0
  5  4  1  0  0  0  0
  5  6  1  6  0  0  0
  6 13  1  0  0  0  0
  6  7  1  0  0  0  0
  7 12  1  0  0  0  0
  8  7  2  0  0  0  0
  8  9  1  0  0  0  0
  9 10  2  0  0  0  0
 10 11  1  0  0  0  0
 10 24  1  0  0  0  0
 11 25  1  0  0  0  0
 12 26  1  0  0  0  0
 12 11  2  0  0  0  0
 13 28  1  0  0  0  0
 14 32  1  0  0  0  0
 14 31  1  0  0  0  0
 14 30  1  0  0  0  0
 15  2  1  0  0  0  0
 16 15  1  0  0  0  0
 16 17  2  0  0  0  0
 17 34  1  0  0  0  0
 18 17  1  0  0  0  0
 18 35  1  0  0  0  0
 19 18  2  0  0  0  0
 20 21  2  0  0  0  0
 20 19  1  0  0  0  0
 21 16  1  0  0  0  0
 22  8  1  0  0  0  0
 23  9  1  0  0  0  0
 27 13  1  0  0  0  0
 29 13  1  0  0  0  0
 33 15  1  0  0  0  0
 36 19  1  0  0  0  0
 37 20  1  0  0  0  0
 38 21  1  0  0  0  0
M  RAD  1   5   2
M  END
$$$$
