rmsd156.gzmat
 OpenBabel08211713373D

 38 40  0  0  1  0  0  0  0  0999 V2000
    0.0000    0.0000    0.0000 S   0  0  0  0  0  0  0  0  0  0  0  0
    1.8113    0.0000    0.0000 C   0  0  0  0  0  0  0  0  0  0  0  0
    2.3321    0.0000    1.2176 N   0  0  0  0  0  0  0  0  0  0  0  0
    1.3599   -0.0029    2.2198 C   0  0  0  0  0  0  0  0  0  0  0  0
    0.0534   -0.0022    1.7950 C   0  0  1  0  0  0  0  0  0  0  0  0
   -1.0870    0.0011    2.5992 N   0  0  0  0  0  0  0  0  0  0  0  0
   -1.8444   -1.1914    2.6549 C   0  0  0  0  0  0  0  0  0  0  0  0
   -1.1813   -2.4285    2.5344 C   0  0  0  0  0  0  0  0  0  0  0  0
   -1.8901   -3.6121    2.6852 C   0  0  0  0  0  0  0  0  0  0  0  0
   -3.2582   -3.5901    2.9577 C   0  0  0  0  0  0  0  0  0  0  0  0
   -3.9137   -2.3685    3.0788 C   0  0  0  0  0  0  0  0  0  0  0  0
   -3.2213   -1.1701    2.9292 C   0  0  0  0  0  0  0  0  0  0  0  0
   -1.8049    1.2881    2.6044 C   0  0  0  0  0  0  0  0  0  0  0  0
    1.8334   -0.0087    3.6219 C   0  0  0  0  0  0  0  0  0  0  0  0
    2.4880    0.0017   -1.1864 N   0  0  0  0  0  0  0  0  0  0  0  0
    3.8957   -0.0690   -1.3409 C   0  0  0  0  0  0  0  0  0  0  0  0
    4.8029    0.1750   -0.3045 C   0  0  0  0  0  0  0  0  0  0  0  0
    6.1688    0.0983   -0.5610 C   0  0  0  0  0  0  0  0  0  0  0  0
    6.6376   -0.2142   -1.8351 C   0  0  0  0  0  0  0  0  0  0  0  0
    5.7302   -0.4498   -2.8673 C   0  0  0  0  0  0  0  0  0  0  0  0
    4.3624   -0.3793   -2.6326 C   0  0  0  0  0  0  0  0  0  0  0  0
   -0.1126   -2.4584    2.3338 H   0  0  0  0  0  0  0  0  0  0  0  0
   -1.3722   -4.5660    2.5894 H   0  0  0  0  0  0  0  0  0  0  0  0
   -3.8067   -4.5195    3.0752 H   0  0  0  0  0  0  0  0  0  0  0  0
   -4.9821   -2.3468    3.2899 H   0  0  0  0  0  0  0  0  0  0  0  0
   -3.7582   -0.2326    3.0278 H   0  0  0  0  0  0  0  0  0  0  0  0
   -1.0818    2.1210    2.5437 H   0  0  0  0  0  0  0  0  0  0  0  0
   -2.3456    1.3920    3.5623 H   0  0  0  0  0  0  0  0  0  0  0  0
   -2.5217    1.3901    1.7731 H   0  0  0  0  0  0  0  0  0  0  0  0
    1.0021   -0.1132    4.3370 H   0  0  0  0  0  0  0  0  0  0  0  0
    2.3736    0.9219    3.8610 H   0  0  0  0  0  0  0  0  0  0  0  0
    2.5402   -0.8368    3.7997 H   0  0  0  0  0  0  0  0  0  0  0  0
    1.9436   -0.0548   -2.0463 H   0  0  0  0  0  0  0  0  0  0  0  0
    4.4562    0.4203    0.7035 H   0  0  0  0  0  0  0  0  0  0  0  0
    6.8757    0.2845    0.2473 H   0  0  0  0  0  0  0  0  0  0  0  0
    7.7058   -0.2762   -2.0239 H   0  0  0  0  0  0  0  0  0  0  0  0
    6.0945   -0.6942   -3.8644 H   0  0  0  0  0  0  0  0  0  0  0  0
    3.6653   -0.5712   -3.4435 H   0  0  0  0  0  0  0  0  0  0  0  0
  1  5  1  0  0  0  0
  2  1  1  0  0  0  0
  2  3  2  0  0  0  0
  3  4  2  0  0  0  0
  4 14  1  0  0  0  0
  5  4  1  0  0  0  0
  5  6  1  1  0  0  0
  6 13  1  0  0  0  0
  6  7  1  0  0  0  0
  7 12  1  0  0  0  0
  8  7  2  0  0  0  0
  8  9  1  0  0  0  0
  9 10  2  0  0  0  0
 10 24  1  0  0  0  0
 10 11  1  0  0  0  0
 11 25  1  0  0  0  0
 12 26  1  0  0  0  0
 12 11  2  0  0  0  0
 13 28  1  0  0  0  0
 14 32  1  0  0  0  0
 14 31  1  0  0  0  0
 14 30  1  0  0  0  0
 15  2  1  0  0  0  0
 16 15  1  0  0  0  0
 16 17  2  0  0  0  0
 17 34  1  0  0  0  0
 18 17  1  0  0  0  0
 18 35  1  0  0  0  0
 19 18  2  0  0  0  0
 20 21  2  0  0  0  0
 20 19  1  0  0  0  0
 21 16  1  0  0  0  0
 22  8  1  0  0  0  0
 23  9  1  0  0  0  0
 27 13  1  0  0  0  0
 29 13  1  0  0  0  0
 33 15  1  0  0  0  0
 36 19  1  0  0  0  0
 37 20  1  0  0  0  0
 38 21  1  0  0  0  0
M  RAD  1   5   2
M  END
$$$$
