38
rmsd173.gzmat
S          0.00000        0.00000        0.00000
C          1.81170        0.00000        0.00000
N          2.33390        0.00000        1.21720
C          1.36140       -0.00340        2.21940
C          0.05510        0.00190        1.79350
N         -1.08530        0.01620        2.59810
C         -1.86280       -1.16450        2.63610
C         -1.21350       -2.40970        2.52330
C         -1.94040       -3.58400        2.65820
C         -3.31320       -3.54450        2.90470
C         -3.95510       -2.31490        3.01840
C         -3.24430       -1.12530        2.88450
C         -1.78140        1.31540        2.60750
C          1.82680       -0.01910        3.62410
N          2.48320        0.00560       -1.18930
C          3.89100       -0.01200       -1.35360
C          4.79760        0.25160       -0.32120
C          6.16320        0.22120       -0.58870
C          6.63230       -0.05880       -1.87060
C          5.72510       -0.30840       -2.89960
C          4.35790       -0.28860       -2.65320
H         -0.14190       -2.45310        2.33970
H         -1.43270       -4.54420        2.57060
H         -3.87580       -4.46740        3.00680
H         -5.02700       -2.27900        3.21000
H         -3.77190       -0.18170        2.97320
H         -1.04190        2.13510        2.56900
H         -2.33550        1.41770        3.55770
H         -2.48150        1.44070        1.76530
H          1.00000       -0.20720        4.32820
H          2.29030        0.94210        3.89980
H          2.59300       -0.79690        3.78250
H          1.93640       -0.07830       -2.04590
H          4.45100        0.47570        0.69180
H          6.87050        0.41840        0.21690
H          7.70030       -0.08360       -2.06810
H          6.08900       -0.52390       -3.90350
H          3.66190       -0.49220       -3.46200
