38
rmsd12.gzmat
S          0.00000        0.00000        0.00000
C          1.81200        0.00000        0.00000
N          2.33310        0.00000        1.21770
C          1.36130       -0.01080        2.21990
C          0.05500       -0.01260        1.79450
N         -1.08410       -0.03170        2.60090
C         -1.85010       -1.22130        2.59410
C         -1.18610       -2.45490        2.44230
C         -1.90330       -3.64040        2.51810
C         -3.28000       -3.62370        2.74670
C         -3.93510       -2.40590        2.90460
C         -3.23460       -1.20500        2.82850
C         -1.79240        1.25900        2.65910
C          1.82920       -0.02670        3.62370
N          2.48590       -0.00290       -1.18770
C          3.89200       -0.06530       -1.35300
C          4.34950       -0.22080       -2.67620
C          5.71480       -0.28530       -2.92580
C          6.63040       -0.19640       -1.87750
C          6.17140       -0.04020       -0.57150
C          4.80790        0.02850       -0.29950
H         -0.11170       -2.48110        2.27260
H         -1.38570       -4.59150        2.39680
H         -3.83510       -4.55520        2.79920
H         -5.00990       -2.38700        3.08340
H         -3.77150       -0.27000        2.94910
H         -1.06290        2.08820        2.63250
H         -2.33200        1.32700        3.62100
H         -2.50850        1.40160        1.83310
H          0.99610       -0.16080        4.33200
H          2.34530        0.91250        3.88150
H          2.55380       -0.84130        3.79290
H          1.93680       -0.02170       -2.04700
H          3.64660       -0.29410       -3.50150
H          6.07130       -0.40780       -3.94780
H          7.69690       -0.24940       -2.07950
H          6.88330        0.02840        0.25120
H          4.47230        0.15290        0.73460
