rmsd155.gzmat
 OpenBabel08211713373D

 38 40  0  0  1  0  0  0  0  0999 V2000
    0.0000    0.0000    0.0000 S   0  0  0  0  0  0  0  0  0  0  0  0
    1.8123    0.0000    0.0000 C   0  0  0  0  0  0  0  0  0  0  0  0
    2.3323    0.0000    1.2180 N   0  0  0  0  0  0  0  0  0  0  0  0
    1.3602    0.0002    2.2198 C   0  0  0  0  0  0  0  0  0  0  0  0
    0.0537    0.0004    1.7942 C   0  0  2  0  0  0  0  0  0  0  0  0
   -1.0841   -0.0078    2.6013 N   0  0  0  0  0  0  0  0  0  0  0  0
   -1.8068   -1.2188    2.6887 C   0  0  0  0  0  0  0  0  0  0  0  0
   -1.1101   -2.4387    2.5807 C   0  0  0  0  0  0  0  0  0  0  0  0
   -1.7789   -3.6381    2.7795 C   0  0  0  0  0  0  0  0  0  0  0  0
   -3.1406   -3.6504    3.0834 C   0  0  0  0  0  0  0  0  0  0  0  0
   -3.8309   -2.4461    3.1847 C   0  0  0  0  0  0  0  0  0  0  0  0
   -3.1795   -1.2320    2.9859 C   0  0  0  0  0  0  0  0  0  0  0  0
   -1.8297    1.2622    2.5995 C   0  0  0  0  0  0  0  0  0  0  0  0
    1.8278   -0.0092    3.6237 C   0  0  0  0  0  0  0  0  0  0  0  0
    2.4868   -0.0075   -1.1874 N   0  0  0  0  0  0  0  0  0  0  0  0
    3.8935   -0.0392   -1.3554 C   0  0  0  0  0  0  0  0  0  0  0  0
    4.8057   -0.1320   -0.2991 C   0  0  0  0  0  0  0  0  0  0  0  0
    6.1698   -0.1649   -0.5744 C   0  0  0  0  0  0  0  0  0  0  0  0
    6.6333   -0.1077   -1.8866 C   0  0  0  0  0  0  0  0  0  0  0  0
    5.7214   -0.0160   -2.9375 C   0  0  0  0  0  0  0  0  0  0  0  0
    4.3556    0.0188   -2.6848 C   0  0  0  0  0  0  0  0  0  0  0  0
   -0.0468   -2.4438    2.3508 H   0  0  0  0  0  0  0  0  0  0  0  0
   -1.2330   -4.5776    2.6980 H   0  0  0  0  0  0  0  0  0  0  0  0
   -3.6568   -4.5928    3.2382 H   0  0  0  0  0  0  0  0  0  0  0  0
   -4.8948   -2.4488    3.4191 H   0  0  0  0  0  0  0  0  0  0  0  0
   -3.7459   -0.3102    3.0641 H   0  0  0  0  0  0  0  0  0  0  0  0
   -1.1225    2.1099    2.5580 H   0  0  0  0  0  0  0  0  0  0  0  0
   -2.3897    1.3522    3.5480 H   0  0  0  0  0  0  0  0  0  0  0  0
   -2.5322    1.3537    1.7548 H   0  0  0  0  0  0  0  0  0  0  0  0
    0.9916   -0.1055    4.3345 H   0  0  0  0  0  0  0  0  0  0  0  0
    2.3720    0.9178    3.8679 H   0  0  0  0  0  0  0  0  0  0  0  0
    2.5261   -0.8437    3.8039 H   0  0  0  0  0  0  0  0  0  0  0  0
    1.9388    0.0213   -2.0467 H   0  0  0  0  0  0  0  0  0  0  0  0
    4.4680   -0.1772    0.7406 H   0  0  0  0  0  0  0  0  0  0  0  0
    6.8780   -0.2356    0.2512 H   0  0  0  0  0  0  0  0  0  0  0  0
    7.6998   -0.1345   -2.0918 H   0  0  0  0  0  0  0  0  0  0  0  0
    6.0810    0.0285   -3.9647 H   0  0  0  0  0  0  0  0  0  0  0  0
    3.6568    0.0905   -3.5134 H   0  0  0  0  0  0  0  0  0  0  0  0
  1  5  1  0  0  0  0
  2  1  1  0  0  0  0
  2  3  2  0  0  0  0
  3  4  2  0  0  0  0
  4 14  1  0  0  0  0
  5  4  1  0  0  0  0
  5  6  1  1  0  0  0
  6  7  1  0  0  0  0
  7 12  1  0  0  0  0
  8  7  2  0  0  0  0
  8  9  1  0  0  0  0
  9 10  2  0  0  0  0
 10 11  1  0  0  0  0
 10 24  1  0  0  0  0
 11 25  1  0  0  0  0
 12 26  1  0  0  0  0
 12 11  2  0  0  0  0
 13  6  1  0  0  0  0
 13 28  1  0  0  0  0
 14 32  1  0  0  0  0
 14 31  1  0  0  0  0
 14 30  1  0  0  0  0
 15  2  1  0  0  0  0
 16 15  1  0  0  0  0
 16 17  2  0  0  0  0
 17 34  1  0  0  0  0
 18 17  1  0  0  0  0
 18 35  1  0  0  0  0
 19 18  2  0  0  0  0
 20 21  2  0  0  0  0
 20 19  1  0  0  0  0
 21 16  1  0  0  0  0
 22  8  1  0  0  0  0
 23  9  1  0  0  0  0
 27 13  1  0  0  0  0
 29 13  1  0  0  0  0
 33 15  1  0  0  0  0
 36 19  1  0  0  0  0
 37 20  1  0  0  0  0
 38 21  1  0  0  0  0
M  RAD  1   5   2
M  END
$$$$
