38
rmsd155.gzmat
S          0.00000        0.00000        0.00000
C          1.81230        0.00000        0.00000
N          2.33230        0.00000        1.21800
C          1.36020        0.00020        2.21980
C          0.05370        0.00040        1.79420
N         -1.08410       -0.00780        2.60130
C         -1.80680       -1.21880        2.68870
C         -1.11010       -2.43870        2.58070
C         -1.77890       -3.63810        2.77950
C         -3.14060       -3.65040        3.08340
C         -3.83090       -2.44610        3.18470
C         -3.17950       -1.23200        2.98590
C         -1.82970        1.26220        2.59950
C          1.82780       -0.00920        3.62370
N          2.48680       -0.00750       -1.18740
C          3.89350       -0.03920       -1.35540
C          4.80570       -0.13200       -0.29910
C          6.16980       -0.16490       -0.57440
C          6.63330       -0.10770       -1.88660
C          5.72140       -0.01600       -2.93750
C          4.35560        0.01880       -2.68480
H         -0.04680       -2.44380        2.35080
H         -1.23300       -4.57760        2.69800
H         -3.65680       -4.59280        3.23820
H         -4.89480       -2.44880        3.41910
H         -3.74590       -0.31020        3.06410
H         -1.12250        2.10990        2.55800
H         -2.38970        1.35220        3.54800
H         -2.53220        1.35370        1.75480
H          0.99160       -0.10550        4.33450
H          2.37200        0.91780        3.86790
H          2.52610       -0.84370        3.80390
H          1.93880        0.02130       -2.04670
H          4.46800       -0.17720        0.74060
H          6.87800       -0.23560        0.25120
H          7.69980       -0.13450       -2.09180
H          6.08100        0.02850       -3.96470
H          3.65680        0.09050       -3.51340
