38

S          0.07840       -0.09710       -0.12150
C          1.83940       -0.06140       -0.00670
N          2.31370        0.00180        1.20540
C          1.31340        0.02570        2.15130
C          0.03140       -0.01210        1.66870
N         -1.16780        0.01430        2.37450
C         -1.89330       -1.17010        2.57800
C         -1.29500       -2.42510        2.33700
C         -2.00640       -3.60180        2.55590
C         -3.32660       -3.56990        3.01810
C         -3.92440       -2.33150        3.25450
C         -3.22570       -1.14160        3.03610
C         -1.81260        1.30230        2.57810
C          1.66970        0.07880        3.60260
N          2.57100       -0.10310       -1.16250
C          3.96140       -0.09530       -1.34310
C          4.88150       -0.03380       -0.28180
C          6.25000       -0.03070       -0.56030
C          6.72600       -0.08730       -1.87230
C          5.80780       -0.14830       -2.92530
C          4.43950       -0.15230       -2.66630
H         -0.26700       -2.46720        1.97760
H         -1.51810       -4.56030        2.36210
H         -3.87910       -4.49620        3.18810
H         -4.95620       -2.28110        3.61160
H         -3.72750       -0.19360        3.22430
H         -1.06800        2.09240        2.42330
H         -2.20160        1.39010        3.60560
H         -2.65290        1.46990        1.87740
H          0.76820        0.04540        4.22830
H          2.23210        0.99910        3.82990
H          2.32010       -0.77050        3.86620
H          2.02910       -0.15310       -2.01590
H          4.50880        0.00990        0.73840
H          6.95580        0.01710        0.27290
H          7.79920       -0.08420       -2.07400
H          6.15750       -0.19340       -3.95950
H          3.72730       -0.20050       -3.49570
