rmsd143.gzmat
 OpenBabel08211713373D

 38 40  0  0  1  0  0  0  0  0999 V2000
    0.0000    0.0000    0.0000 S   0  0  0  0  0  0  0  0  0  0  0  0
    1.8121    0.0000    0.0000 C   0  0  0  0  0  0  0  0  0  0  0  0
    2.3342    0.0000    1.2170 N   0  0  0  0  0  0  0  0  0  0  0  0
    1.3611    0.0040    2.2192 C   0  0  0  0  0  0  0  0  0  0  0  0
    0.0548    0.0161    1.7935 C   0  0  1  0  0  0  0  0  0  0  0  0
   -1.0859    0.0525    2.5973 N   0  0  0  0  0  0  0  0  0  0  0  0
   -1.8721   -1.1224    2.6525 C   0  0  0  0  0  0  0  0  0  0  0  0
   -1.2223   -2.3722    2.6297 C   0  0  0  0  0  0  0  0  0  0  0  0
   -1.9578   -3.5374    2.7944 C   0  0  0  0  0  0  0  0  0  0  0  0
   -3.3398   -3.4835    2.9819 C   0  0  0  0  0  0  0  0  0  0  0  0
   -3.9826   -2.2493    3.0011 C   0  0  0  0  0  0  0  0  0  0  0  0
   -3.2634   -1.0691    2.8326 C   0  0  0  0  0  0  0  0  0  0  0  0
   -1.7729    1.3565    2.5833 C   0  0  0  0  0  0  0  0  0  0  0  0
    1.8249   -0.0136    3.6244 C   0  0  0  0  0  0  0  0  0  0  0  0
    2.4792    0.0029   -1.1916 N   0  0  0  0  0  0  0  0  0  0  0  0
    3.8841    0.0395   -1.3711 C   0  0  0  0  0  0  0  0  0  0  0  0
    4.7998    0.2477   -0.3345 C   0  0  0  0  0  0  0  0  0  0  0  0
    6.1605    0.2944   -0.6253 C   0  0  0  0  0  0  0  0  0  0  0  0
    6.6168    0.1360   -1.9319 C   0  0  0  0  0  0  0  0  0  0  0  0
    5.7010   -0.0758   -2.9619 C   0  0  0  0  0  0  0  0  0  0  0  0
    4.3388   -0.1266   -2.6940 C   0  0  0  0  0  0  0  0  0  0  0  0
   -0.1444   -2.4235    2.4916 H   0  0  0  0  0  0  0  0  0  0  0  0
   -1.4506   -4.5016    2.7784 H   0  0  0  0  0  0  0  0  0  0  0  0
   -3.9087   -4.3989    3.1144 H   0  0  0  0  0  0  0  0  0  0  0  0
   -5.0614   -2.2018    3.1457 H   0  0  0  0  0  0  0  0  0  0  0  0
   -3.7915   -0.1213    2.8386 H   0  0  0  0  0  0  0  0  0  0  0  0
   -1.0240    2.1691    2.5742 H   0  0  0  0  0  0  0  0  0  0  0  0
   -2.3611    1.4622    3.5126 H   0  0  0  0  0  0  0  0  0  0  0  0
   -2.4396    1.4909    1.7159 H   0  0  0  0  0  0  0  0  0  0  0  0
    0.9833   -0.0661    4.3340 H   0  0  0  0  0  0  0  0  0  0  0  0
    2.4132    0.8876    3.8617 H   0  0  0  0  0  0  0  0  0  0  0  0
    2.4819   -0.8794    3.8150 H   0  0  0  0  0  0  0  0  0  0  0  0
    1.9256   -0.0627   -2.0457 H   0  0  0  0  0  0  0  0  0  0  0  0
    4.4646    0.3714    0.6995 H   0  0  0  0  0  0  0  0  0  0  0  0
    6.8735    0.4568    0.1829 H   0  0  0  0  0  0  0  0  0  0  0  0
    7.6807    0.1757   -2.1485 H   0  0  0  0  0  0  0  0  0  0  0  0
    6.0548   -0.2034   -3.9841 H   0  0  0  0  0  0  0  0  0  0  0  0
    3.6359   -0.2976   -3.5046 H   0  0  0  0  0  0  0  0  0  0  0  0
  1  5  1  0  0  0  0
  2  1  1  0  0  0  0
  2  3  2  0  0  0  0
  3  4  2  0  0  0  0
  4 14  1  0  0  0  0
  5  4  1  0  0  0  0
  5  6  1  6  0  0  0
  6  7  1  0  0  0  0
  7 12  1  0  0  0  0
  8  7  2  0  0  0  0
  8  9  1  0  0  0  0
  9 10  2  0  0  0  0
 10 11  1  0  0  0  0
 10 24  1  0  0  0  0
 11 25  1  0  0  0  0
 12 26  1  0  0  0  0
 12 11  2  0  0  0  0
 13  6  1  0  0  0  0
 13 28  1  0  0  0  0
 14 32  1  0  0  0  0
 14 31  1  0  0  0  0
 14 30  1  0  0  0  0
 15  2  1  0  0  0  0
 16 15  1  0  0  0  0
 16 17  2  0  0  0  0
 17 34  1  0  0  0  0
 18 17  1  0  0  0  0
 18 35  1  0  0  0  0
 19 18  2  0  0  0  0
 20 21  2  0  0  0  0
 20 19  1  0  0  0  0
 21 16  1  0  0  0  0
 22  8  1  0  0  0  0
 23  9  1  0  0  0  0
 27 13  1  0  0  0  0
 29 13  1  0  0  0  0
 33 15  1  0  0  0  0
 36 19  1  0  0  0  0
 37 20  1  0  0  0  0
 38 21  1  0  0  0  0
M  RAD  1   5   2
M  END
$$$$
