38
rmsd162.gzmat
S          0.00000        0.00000        0.00000
C          1.81210        0.00000        0.00000
N          2.33350        0.00000        1.21770
C          1.36090       -0.00520        2.21950
C          0.05440       -0.00270        1.79430
N         -1.08410        0.00340        2.60160
C         -1.86710       -1.17390        2.62380
C         -1.22770       -2.42070        2.47630
C         -1.96210       -3.59270        2.59000
C         -3.33220       -3.54990        2.85140
C         -3.96330       -2.31900        3.00500
C         -3.24540       -1.13150        2.89100
C         -1.77320        1.30560        2.63840
C          1.82660       -0.01710        3.62420
N          2.48570        0.00230       -1.18810
C          3.89310       -0.04360       -1.35040
C          4.80240        0.19190       -0.31370
C          6.16800        0.14460       -0.57950
C          6.63470       -0.12720       -1.86380
C          5.72480       -0.35490       -2.89580
C          4.35760       -0.31710       -2.65090
H         -0.15800       -2.46800        2.28310
H         -1.46300       -4.55440        2.47430
H         -3.90020       -4.47130        2.93400
H         -5.03200       -2.27940        3.21290
H         -3.76450       -0.18620        3.00890
H         -1.02800        2.12120        2.64150
H         -2.34610        1.38360        3.57980
H         -2.45460        1.46110        1.78570
H          0.99180       -0.14220        4.33230
H          2.34750        0.92060        3.87790
H          2.54600       -0.83510        3.79890
H          1.93820       -0.05850       -2.04620
H          4.45850        0.40940        0.70170
H          6.87520        0.32280        0.23040
H          7.70260       -0.16260       -2.06150
H          6.08760       -0.56510       -3.90130
H          3.65940       -0.50270       -3.46240
