38
rmsd161.gzmat
S          0.00000        0.00000        0.00000
C          1.81210        0.00000        0.00000
N          2.33280        0.00000        1.21780
C          1.36010       -0.00650        2.21970
C          0.05410       -0.00360        1.79390
N         -1.08650       -0.00370        2.59940
C         -1.86350       -1.18670        2.60300
C         -1.20730       -2.42750        2.48130
C         -1.93390       -3.60650        2.56490
C         -3.31300       -3.57600        2.77600
C         -3.96050       -2.35100        2.90670
C         -3.25020       -1.15640        2.81970
C         -1.78280        1.29500        2.63000
C          1.82450       -0.02180        3.62460
N          2.48280       -0.00210       -1.18980
C          3.88890        0.00700       -1.36300
C          4.80410        0.14770       -0.31440
C          6.16760        0.15180       -0.59430
C          6.62690        0.02190       -1.90280
C          5.71190       -0.11280       -2.94630
C          4.34670       -0.12270       -2.68890
H         -0.13040       -2.46340        2.32880
H         -1.42210       -4.56320        2.46330
H         -3.87570       -4.50250        2.83770
H         -5.03680       -2.32240        3.07380
H         -3.78170       -0.21580        2.91730
H         -1.03980        2.11310        2.63740
H         -2.36360        1.36990        3.56670
H         -2.45790        1.44930        1.77240
H          0.99250       -0.17800        4.33010
H          2.31810        0.92770        3.88890
H          2.56690       -0.82050        3.79120
H          1.93160       -0.04810       -2.04660
H          4.46820        0.25190        0.72160
H          6.88020        0.25770        0.22360
H          7.69300        0.02440       -2.11090
H          6.06960       -0.21080       -3.97080
H          3.64440       -0.23350       -3.51040
