rmsd144.gzmat
 OpenBabel08211713373D

 38 40  0  0  1  0  0  0  0  0999 V2000
    0.0000    0.0000    0.0000 S   0  0  0  0  0  0  0  0  0  0  0  0
    1.8122    0.0000    0.0000 C   0  0  0  0  0  0  0  0  0  0  0  0
    2.3344    0.0000    1.2172 N   0  0  0  0  0  0  0  0  0  0  0  0
    1.3620    0.0079    2.2192 C   0  0  0  0  0  0  0  0  0  0  0  0
    0.0555    0.0183    1.7937 C   0  0  1  0  0  0  0  0  0  0  0  0
   -1.0828    0.0536    2.6002 N   0  0  0  0  0  0  0  0  0  0  0  0
   -1.8585   -1.1255    2.6789 C   0  0  0  0  0  0  0  0  0  0  0  0
   -1.2076   -2.3733    2.6157 C   0  0  0  0  0  0  0  0  0  0  0  0
   -1.9307   -3.5419    2.8086 C   0  0  0  0  0  0  0  0  0  0  0  0
   -3.3021   -3.4947    3.0627 C   0  0  0  0  0  0  0  0  0  0  0  0
   -3.9472   -2.2626    3.1176 C   0  0  0  0  0  0  0  0  0  0  0  0
   -3.2402   -1.0790    2.9240 C   0  0  0  0  0  0  0  0  0  0  0  0
   -1.7760    1.3538    2.5839 C   0  0  0  0  0  0  0  0  0  0  0  0
    1.8254   -0.0005    3.6247 C   0  0  0  0  0  0  0  0  0  0  0  0
    2.4804    0.0037   -1.1906 N   0  0  0  0  0  0  0  0  0  0  0  0
    3.8851    0.0406   -1.3696 C   0  0  0  0  0  0  0  0  0  0  0  0
    4.8043    0.1687   -0.3230 C   0  0  0  0  0  0  0  0  0  0  0  0
    6.1655    0.2129   -0.6113 C   0  0  0  0  0  0  0  0  0  0  0  0
    6.6190    0.1310   -1.9260 C   0  0  0  0  0  0  0  0  0  0  0  0
    5.6999   -0.0008   -2.9665 C   0  0  0  0  0  0  0  0  0  0  0  0
    4.3371   -0.0484   -2.7006 C   0  0  0  0  0  0  0  0  0  0  0  0
   -0.1378   -2.4225    2.4258 H   0  0  0  0  0  0  0  0  0  0  0  0
   -1.4207   -4.5036    2.7605 H   0  0  0  0  0  0  0  0  0  0  0  0
   -3.8612   -4.4129    3.2154 H   0  0  0  0  0  0  0  0  0  0  0  0
   -5.0184   -2.2195    3.3125 H   0  0  0  0  0  0  0  0  0  0  0  0
   -3.7707   -0.1338    2.9649 H   0  0  0  0  0  0  0  0  0  0  0  0
   -1.0315    2.1705    2.5721 H   0  0  0  0  0  0  0  0  0  0  0  0
   -2.3627    1.4615    3.5137 H   0  0  0  0  0  0  0  0  0  0  0  0
   -2.4455    1.4800    1.7172 H   0  0  0  0  0  0  0  0  0  0  0  0
    0.9842   -0.0702    4.3331 H   0  0  0  0  0  0  0  0  0  0  0  0
    2.3926    0.9139    3.8628 H   0  0  0  0  0  0  0  0  0  0  0  0
    2.5004   -0.8513    3.8175 H   0  0  0  0  0  0  0  0  0  0  0  0
    1.9262   -0.0429   -2.0456 H   0  0  0  0  0  0  0  0  0  0  0  0
    4.4726    0.2334    0.7177 H   0  0  0  0  0  0  0  0  0  0  0  0
    6.8803    0.3137    0.2052 H   0  0  0  0  0  0  0  0  0  0  0  0
    7.6833    0.1689   -2.1412 H   0  0  0  0  0  0  0  0  0  0  0  0
    6.0518   -0.0675   -3.9952 H   0  0  0  0  0  0  0  0  0  0  0  0
    3.6318   -0.1572   -3.5196 H   0  0  0  0  0  0  0  0  0  0  0  0
  1  5  1  0  0  0  0
  2  1  1  0  0  0  0
  2  3  2  0  0  0  0
  3  4  2  0  0  0  0
  4 14  1  0  0  0  0
  5  4  1  0  0  0  0
  5  6  1  6  0  0  0
  6  7  1  0  0  0  0
  7 12  1  0  0  0  0
  8  7  2  0  0  0  0
  8  9  1  0  0  0  0
  9 10  2  0  0  0  0
 10 11  1  0  0  0  0
 10 24  1  0  0  0  0
 11 25  1  0  0  0  0
 12 26  1  0  0  0  0
 12 11  2  0  0  0  0
 13  6  1  0  0  0  0
 13 28  1  0  0  0  0
 14 32  1  0  0  0  0
 14 31  1  0  0  0  0
 14 30  1  0  0  0  0
 15  2  1  0  0  0  0
 16 15  1  0  0  0  0
 16 17  2  0  0  0  0
 17 34  1  0  0  0  0
 18 17  1  0  0  0  0
 18 35  1  0  0  0  0
 19 18  2  0  0  0  0
 20 21  2  0  0  0  0
 20 19  1  0  0  0  0
 21 16  1  0  0  0  0
 22  8  1  0  0  0  0
 23  9  1  0  0  0  0
 27 13  1  0  0  0  0
 29 13  1  0  0  0  0
 33 15  1  0  0  0  0
 36 19  1  0  0  0  0
 37 20  1  0  0  0  0
 38 21  1  0  0  0  0
M  RAD  1   5   2
M  END
$$$$
