39
rmsd224.gzmat
O          0.00000        0.00000        0.00000
C          1.19870        0.00000        0.00000
O          1.95730        0.00000        1.12350
C          1.24670        0.11980        2.35280
C          2.13830       -0.05640       -1.20440
H          2.92240       -0.85280       -1.01430
N          1.38760       -0.43830       -2.38530
C          1.49180       -1.75590       -2.93890
O          2.25020       -2.58240       -2.52000
C          0.51260       -1.80090       -4.05980
C          0.20630       -2.81870       -4.93070
C         -0.78570       -2.56860       -5.89940
C         -1.42760       -1.33990       -5.96930
C         -1.10870       -0.29910       -5.07500
C         -0.14070       -0.54880       -4.13240
C          0.41180        0.34030       -3.06720
O          0.14750        1.49030       -2.83690
C          2.86480        1.32290       -1.32870
H          3.60580        1.42990       -0.49310
O          1.96900        2.36010       -1.06570
C          3.53480        1.45610       -2.67030
C          4.56510        0.57780       -3.01350
C          5.18480        0.68620       -4.25550
C          4.78530        1.67640       -5.15240
C          3.76760        2.56100       -4.80260
C          3.14220        2.45270       -3.56150
H          0.67030        1.05180        2.36470
H          2.05010        0.13940        3.09810
H          0.58740       -0.74320        2.49190
H          0.70650       -3.78560       -4.87760
H         -1.04840       -3.36050       -6.60140
H         -2.19350       -1.16840       -6.72640
H         -1.61450        0.66570       -5.13160
H          1.17500        2.29280       -1.65610
H          4.88590       -0.19460       -2.31700
H          5.98190       -0.00250       -4.52700
H          5.27090        1.76080       -6.12190
H          3.46110        3.34050       -5.49670
H          2.35120        3.15420       -3.28860
