39
rmsd52.gzmat
O          0.00000        0.00000        0.00000
C          1.19910        0.00000        0.00000
O          1.95520        0.00000        1.12480
C          1.23810        0.10750        2.35190
C          2.13610       -0.06360       -1.20500
H          2.91630       -0.86380       -1.01480
N          1.37740       -0.44460       -2.38120
C          0.39410        0.33580       -3.04980
O          0.13470        1.48600       -2.81430
C         -0.17120       -0.55070       -4.10990
C         -1.15850       -0.30220       -5.03240
C         -1.48900       -1.34170       -5.92400
C         -0.83820       -2.56670       -5.87200
C          0.17400       -2.81490       -4.92390
C          0.49010       -1.79950       -4.05400
C          1.48480       -1.75660       -2.94650
O          2.25440       -2.58100       -2.54390
C          2.87370        1.30920       -1.34890
H          3.62940        1.41570       -0.52760
O          1.99450        2.35890       -1.08410
C          3.51570        1.40880       -2.70760
C          4.56110        0.54090       -3.03180
C          5.13680        0.59100       -4.29820
C          4.67800        1.51260       -5.23900
C          3.64800        2.39000       -4.90800
C          3.06750        2.34110       -3.64130
H          0.71970        1.07210        2.39600
H          2.03160        0.04480        3.10520
H          0.52390       -0.71710        2.44940
H         -1.67230        0.65930       -5.07330
H         -2.27220       -1.17320       -6.66370
H         -1.11120       -3.35770       -6.57070
H          0.68130       -3.77880       -4.88420
H          1.18860        2.29320       -1.65860
H          4.92390       -0.18090       -2.30240
H          5.94410       -0.09130       -4.55540
H          5.12580        1.54710       -6.22940
H          3.29370        3.11470       -5.63840
H          2.26500        3.03590       -3.38530
