39
rmsd195.gzmat
O          0.00000        0.00000        0.00000
C          1.19870        0.00000        0.00000
O          1.95660        0.00000        1.12410
C          1.24220        0.12670        2.35100
C          2.13480       -0.06320       -1.20650
H          2.91780       -0.85980       -1.01470
N          1.37410       -0.44450       -2.38100
C          1.55940       -1.71120       -3.01980
O          2.38800       -2.50410       -2.67300
C          0.55590       -1.75700       -4.11950
C          0.28900       -2.74550       -5.03560
C         -0.74820       -2.51230       -5.95990
C         -1.47270       -1.32860       -5.94310
C         -1.19270       -0.31620       -5.00380
C         -0.17770       -0.54790       -4.10740
C          0.35400        0.32060       -3.01500
O          0.05270        1.44870       -2.73160
C          2.85620        1.31600       -1.34790
H          3.61880        1.42370       -0.53270
O          1.95780        2.34780       -1.06210
C          3.48780        1.47800       -2.70560
C          3.30260        2.66640       -3.41120
C          3.87240        2.82240       -4.67310
C          4.62970        1.79420       -5.23030
C          4.82740        0.61250       -4.51760
C          4.26410        0.45580       -3.25390
H          0.73790        1.09950        2.38690
H          2.03530        0.05850        3.10430
H          0.51650       -0.68690        2.45640
H          0.85170       -3.67870       -5.05030
H         -0.97920       -3.28300       -6.69560
H         -2.27490       -1.17180       -6.66490
H         -1.76550        0.61220       -4.99040
H          1.14750        2.27060       -1.62860
H          2.71500        3.47630       -2.97310
H          3.72640        3.75020       -5.22220
H          5.06980        1.91400       -6.21750
H          5.42210       -0.19000       -4.94870
H          4.42760       -0.47080       -2.70540
