rmsd112.gzmat
 OpenBabel08211713403D

 39 41  0  0  1  0  0  0  0  0999 V2000
    0.0000    0.0000    0.0000 O   0  0  0  0  0  0  0  0  0  0  0  0
    1.1989    0.0000    0.0000 C   0  0  0  0  0  0  0  0  0  0  0  0
    1.9563    0.0000    1.1245 O   0  0  0  0  0  0  0  0  0  0  0  0
    1.2420    0.1103    2.3529 C   0  0  0  0  0  0  0  0  0  0  0  0
    2.1383   -0.0595   -1.2034 C   0  0  1  0  0  0  0  0  0  0  0  0
    2.8900   -0.8904   -1.0317 H   0  0  0  0  0  0  0  0  0  0  0  0
    1.3766   -0.3785   -2.3960 N   0  0  0  0  0  0  0  0  0  0  0  0
    1.4726   -1.6603   -3.0285 C   0  0  0  0  0  0  0  0  0  0  0  0
    2.2005   -2.5284   -2.6412 O   0  0  0  0  0  0  0  0  0  0  0  0
    0.5309   -1.6109   -4.1816 C   0  0  0  0  0  0  0  0  0  0  0  0
    0.2336   -2.5630   -5.1266 C   0  0  0  0  0  0  0  0  0  0  0  0
   -0.7119   -2.2248   -6.1148 C   0  0  0  0  0  0  0  0  0  0  0  0
   -1.3172   -0.9759   -6.1323 C   0  0  0  0  0  0  0  0  0  0  0  0
   -1.0066   -0.0019   -5.1626 C   0  0  0  0  0  0  0  0  0  0  0  0
   -0.0867   -0.3390   -4.1997 C   0  0  0  0  0  0  0  0  0  0  0  0
    0.4479    0.4670   -3.0627 C   0  0  0  0  0  0  0  0  0  0  0  0
    0.2039    1.6073   -2.7696 O   0  0  0  0  0  0  0  0  0  0  0  0
    2.9197    1.2935   -1.3039 C   0  0  2  0  0  0  0  0  0  0  0  0
    3.6837    1.3471   -0.4853 H   0  0  0  0  0  0  0  0  0  0  0  0
    2.0749    2.3602   -0.9956 O   0  0  0  0  0  0  0  0  0  0  0  0
    3.5540    1.4241   -2.6638 C   0  0  0  0  0  0  0  0  0  0  0  0
    4.5609    0.5308   -3.0359 C   0  0  0  0  0  0  0  0  0  0  0  0
    5.1226    0.6081   -4.3072 C   0  0  0  0  0  0  0  0  0  0  0  0
    4.6890    1.5825   -5.2055 C   0  0  0  0  0  0  0  0  0  0  0  0
    3.6995    2.4863   -4.8253 C   0  0  0  0  0  0  0  0  0  0  0  0
    3.1341    2.4109   -3.5536 C   0  0  0  0  0  0  0  0  0  0  0  0
    2.0448    0.1792    3.0959 H   0  0  0  0  0  0  0  0  0  0  0  0
    0.6259   -0.7814    2.5066 H   0  0  0  0  0  0  0  0  0  0  0  0
    0.6210    1.0135    2.3525 H   0  0  0  0  0  0  0  0  0  0  0  0
    0.7080   -3.5441   -5.1175 H   0  0  0  0  0  0  0  0  0  0  0  0
   -0.9655   -2.9638   -6.8754 H   0  0  0  0  0  0  0  0  0  0  0  0
   -2.0467   -0.7356   -6.9063 H   0  0  0  0  0  0  0  0  0  0  0  0
   -1.4807    0.9804   -5.1786 H   0  0  0  0  0  0  0  0  0  0  0  0
    1.2651    2.3413   -1.5677 H   0  0  0  0  0  0  0  0  0  0  0  0
    4.9058   -0.2313   -2.3399 H   0  0  0  0  0  0  0  0  0  0  0  0
    5.8995   -0.0943   -4.6009 H   0  0  0  0  0  0  0  0  0  0  0  0
    5.1266    1.6368   -6.1996 H   0  0  0  0  0  0  0  0  0  0  0  0
    3.3649    3.2530   -5.5213 H   0  0  0  0  0  0  0  0  0  0  0  0
    2.3651    3.1280   -3.2588 H   0  0  0  0  0  0  0  0  0  0  0  0
  1  2  2  0  0  0  0
  2  3  1  0  0  0  0
  3  4  1  0  0  0  0
  4 28  1  0  0  0  0
  4 27  1  0  0  0  0
  5  6  1  1  0  0  0
  5  2  1  0  0  0  0
  7  5  1  0  0  0  0
  8  9  2  0  0  0  0
  8  7  1  0  0  0  0
 10  8  1  0  0  0  0
 11 30  1  0  0  0  0
 11 10  2  0  0  0  0
 12 11  1  0  0  0  0
 13 12  2  0  0  0  0
 13 14  1  0  0  0  0
 14 15  2  0  0  0  0
 15 10  1  0  0  0  0
 15 16  1  0  0  0  0
 16 17  2  0  0  0  0
 16  7  1  0  0  0  0
 18  5  1  0  0  0  0
 18 20  1  0  0  0  0
 18 19  1  1  0  0  0
 21 18  1  0  0  0  0
 22 21  1  0  0  0  0
 22 35  1  0  0  0  0
 23 22  2  0  0  0  0
 24 25  2  0  0  0  0
 24 23  1  0  0  0  0
 25 26  1  0  0  0  0
 26 39  1  0  0  0  0
 26 21  2  0  0  0  0
 29  4  1  0  0  0  0
 31 12  1  0  0  0  0
 32 13  1  0  0  0  0
 33 14  1  0  0  0  0
 34 20  1  0  0  0  0
 36 23  1  0  0  0  0
 37 24  1  0  0  0  0
 38 25  1  0  0  0  0
M  END
$$$$
