
     RDKit          3D

 39 41  0  0  0  0  0  0  0  0999 V2000
    0.0502   -0.2745    0.0108 O   0  0  0  0  0  0  0  0  0  0  0  0
    1.2418   -0.1060    0.0155 C   0  0  0  0  0  0  0  0  0  0  0  0
    1.9847    0.0671    1.1128 O   0  0  0  0  0  0  0  0  0  0  0  0
    1.2731    0.1566    2.3485 C   0  0  0  0  0  0  0  0  0  0  0  0
    2.1233   -0.0640   -1.2302 C   0  0  1  0  0  0  0  0  0  0  0  0
    2.8901   -0.8433   -1.1153 H   0  0  0  0  0  0  0  0  0  0  0  0
    1.3591   -0.4471   -2.3973 N   0  0  0  0  0  0  0  0  0  0  0  0
    1.4962   -1.7261   -2.9775 C   0  0  0  0  0  0  0  0  0  0  0  0
    2.2815   -2.5663   -2.6108 O   0  0  0  0  0  0  0  0  0  0  0  0
    0.5028   -1.7730   -4.0881 C   0  0  0  0  0  0  0  0  0  0  0  0
    0.2134   -2.7833   -4.9952 C   0  0  0  0  0  0  0  0  0  0  0  0
   -0.7899   -2.5306   -5.9429 C   0  0  0  0  0  0  0  0  0  0  0  0
   -1.4678   -1.3033   -5.9700 C   0  0  0  0  0  0  0  0  0  0  0  0
   -1.1649   -0.2876   -5.0506 C   0  0  0  0  0  0  0  0  0  0  0  0
   -0.1742   -0.5500   -4.1145 C   0  0  0  0  0  0  0  0  0  0  0  0
    0.3794    0.3153   -3.0342 C   0  0  0  0  0  0  0  0  0  0  0  0
    0.0783    1.4631   -2.7732 O   0  0  0  0  0  0  0  0  0  0  0  0
    2.8171    1.3253   -1.3438 C   0  0  2  0  0  0  0  0  0  0  0  0
    3.6008    1.3235   -0.5688 H   0  0  0  0  0  0  0  0  0  0  0  0
    1.9432    2.3643   -0.9973 O   0  0  0  0  0  0  0  0  0  0  0  0
    3.4782    1.4977   -2.7072 C   0  0  0  0  0  0  0  0  0  0  0  0
    3.2963    2.6827   -3.4282 C   0  0  0  0  0  0  0  0  0  0  0  0
    3.8953    2.8525   -4.6798 C   0  0  0  0  0  0  0  0  0  0  0  0
    4.6855    1.8390   -5.2255 C   0  0  0  0  0  0  0  0  0  0  0  0
    4.8752    0.6527   -4.5095 C   0  0  0  0  0  0  0  0  0  0  0  0
    4.2754    0.4835   -3.2606 C   0  0  0  0  0  0  0  0  0  0  0  0
    0.5947    1.0223    2.3346 H   0  0  0  0  0  0  0  0  0  0  0  0
    2.0322    0.2789    3.1300 H   0  0  0  0  0  0  0  0  0  0  0  0
    0.6820   -0.7544    2.5237 H   0  0  0  0  0  0  0  0  0  0  0  0
    0.7499   -3.7335   -4.9648 H   0  0  0  0  0  0  0  0  0  0  0  0
   -1.0486   -3.3008   -6.6729 H   0  0  0  0  0  0  0  0  0  0  0  0
   -2.2436   -1.1373   -6.7208 H   0  0  0  0  0  0  0  0  0  0  0  0
   -1.6828    0.6732   -5.0622 H   0  0  0  0  0  0  0  0  0  0  0  0
    1.1571    2.2834   -1.5753 H   0  0  0  0  0  0  0  0  0  0  0  0
    2.6811    3.4713   -2.9943 H   0  0  0  0  0  0  0  0  0  0  0  0
    3.7423    3.7842   -5.2303 H   0  0  0  0  0  0  0  0  0  0  0  0
    5.1524    1.9705   -6.2046 H   0  0  0  0  0  0  0  0  0  0  0  0
    5.4906   -0.1481   -4.9270 H   0  0  0  0  0  0  0  0  0  0  0  0
    4.4273   -0.4553   -2.7227 H   0  0  0  0  0  0  0  0  0  0  0  0
  1  2  2  0
  2  3  1  0
  2  5  1  0
  3  4  1  0
  4 27  1  0
  4 28  1  0
  4 29  1  0
  5  6  1  1
  5  7  1  0
  5 18  1  0
  7  8  1  0
  7 16  1  0
  8  9  2  0
  8 10  1  0
 10 11  1  0
 10 15  2  0
 11 12  2  0
 11 30  1  0
 12 13  1  0
 12 31  1  0
 13 14  2  0
 13 32  1  0
 14 15  1  0
 14 33  1  0
 15 16  1  0
 16 17  2  0
 18 19  1  1
 18 20  1  0
 18 21  1  0
 20 34  1  0
 21 22  2  0
 21 26  1  0
 22 23  1  0
 22 35  1  0
 23 24  2  0
 23 36  1  0
 24 25  1  0
 24 37  1  0
 25 26  2  0
 25 38  1  0
 26 39  1  0
M  END

