rmsd12.gzmat
 OpenBabel08211713403D

 39 41  0  0  1  0  0  0  0  0999 V2000
    0.0000    0.0000    0.0000 O   0  0  0  0  0  0  0  0  0  0  0  0
    1.1987    0.0000    0.0000 C   0  0  0  0  0  0  0  0  0  0  0  0
    1.9567    0.0000    1.1246 O   0  0  0  0  0  0  0  0  0  0  0  0
    1.2425    0.0933    2.3541 C   0  0  0  0  0  0  0  0  0  0  0  0
    2.1394   -0.0645   -1.2019 C   0  0  1  0  0  0  0  0  0  0  0  0
    2.8946   -0.8909   -1.0214 H   0  0  0  0  0  0  0  0  0  0  0  0
    1.3832   -0.3987   -2.3941 N   0  0  0  0  0  0  0  0  0  0  0  0
    0.4391    0.4262   -3.0650 C   0  0  0  0  0  0  0  0  0  0  0  0
    0.1820    1.5666   -2.7838 O   0  0  0  0  0  0  0  0  0  0  0  0
   -0.0899   -0.3998   -4.1909 C   0  0  0  0  0  0  0  0  0  0  0  0
   -1.0254   -0.0898   -5.1479 C   0  0  0  0  0  0  0  0  0  0  0  0
   -1.3243   -1.0779   -6.1067 C   0  0  0  0  0  0  0  0  0  0  0  0
   -0.6957   -2.3150   -6.0831 C   0  0  0  0  0  0  0  0  0  0  0  0
    0.2654   -2.6255   -5.1007 C   0  0  0  0  0  0  0  0  0  0  0  0
    0.5531   -1.6588   -4.1677 C   0  0  0  0  0  0  0  0  0  0  0  0
    1.5043   -1.6808   -3.0218 C   0  0  0  0  0  0  0  0  0  0  0  0
    2.2550   -2.5299   -2.6352 O   0  0  0  0  0  0  0  0  0  0  0  0
    2.9152    1.2902   -1.3089 C   0  0  2  0  0  0  0  0  0  0  0  0
    3.6626    1.3615   -0.4762 H   0  0  0  0  0  0  0  0  0  0  0  0
    2.0598    2.3577   -1.0345 O   0  0  0  0  0  0  0  0  0  0  0  0
    3.5783    1.4025   -2.6561 C   0  0  0  0  0  0  0  0  0  0  0  0
    3.1830    2.3842   -3.5626 C   0  0  0  0  0  0  0  0  0  0  0  0
    3.7848    2.4527   -4.8179 C   0  0  0  0  0  0  0  0  0  0  0  0
    4.7846    1.5468   -5.1647 C   0  0  0  0  0  0  0  0  0  0  0  0
    5.1901    0.5747   -4.2509 C   0  0  0  0  0  0  0  0  0  0  0  0
    4.5914    0.5033   -2.9962 C   0  0  0  0  0  0  0  0  0  0  0  0
    0.6987    1.0428    2.3992 H   0  0  0  0  0  0  0  0  0  0  0  0
    2.0398    0.0544    3.1050 H   0  0  0  0  0  0  0  0  0  0  0  0
    0.5544   -0.7514    2.4562 H   0  0  0  0  0  0  0  0  0  0  0  0
   -1.5212    0.8817   -5.1677 H   0  0  0  0  0  0  0  0  0  0  0  0
   -2.0640   -0.8585   -6.8772 H   0  0  0  0  0  0  0  0  0  0  0  0
   -0.9443   -3.0662   -6.8332 H   0  0  0  0  0  0  0  0  0  0  0  0
    0.7578   -3.5979   -5.0860 H   0  0  0  0  0  0  0  0  0  0  0  0
    1.2549    2.3188   -1.6124 H   0  0  0  0  0  0  0  0  0  0  0  0
    2.4071    3.1032   -3.2923 H   0  0  0  0  0  0  0  0  0  0  0  0
    3.4728    3.2168   -5.5266 H   0  0  0  0  0  0  0  0  0  0  0  0
    5.2511    1.5993   -6.1456 H   0  0  0  0  0  0  0  0  0  0  0  0
    5.9744   -0.1297   -4.5197 H   0  0  0  0  0  0  0  0  0  0  0  0
    4.9135   -0.2576   -2.2877 H   0  0  0  0  0  0  0  0  0  0  0  0
  1  2  2  0  0  0  0
  2  3  1  0  0  0  0
  3  4  1  0  0  0  0
  4 27  1  0  0  0  0
  4 29  1  0  0  0  0
  4 28  1  0  0  0  0
  5  6  1  1  0  0  0
  5  2  1  0  0  0  0
  7  5  1  0  0  0  0
  8  9  2  0  0  0  0
  8  7  1  0  0  0  0
 10 15  1  0  0  0  0
 10  8  1  0  0  0  0
 11 10  2  0  0  0  0
 12 13  2  0  0  0  0
 12 11  1  0  0  0  0
 13 14  1  0  0  0  0
 14 33  1  0  0  0  0
 14 15  2  0  0  0  0
 15 16  1  0  0  0  0
 16 17  2  0  0  0  0
 16  7  1  0  0  0  0
 18  5  1  0  0  0  0
 18 20  1  0  0  0  0
 18 19  1  1  0  0  0
 21 18  1  0  0  0  0
 22 35  1  0  0  0  0
 22 21  2  0  0  0  0
 23 22  1  0  0  0  0
 24 23  2  0  0  0  0
 24 25  1  0  0  0  0
 25 26  2  0  0  0  0
 26 21  1  0  0  0  0
 26 39  1  0  0  0  0
 30 11  1  0  0  0  0
 31 12  1  0  0  0  0
 32 13  1  0  0  0  0
 34 20  1  0  0  0  0
 36 23  1  0  0  0  0
 37 24  1  0  0  0  0
 38 25  1  0  0  0  0
M  END
$$$$
