39
rmsd12.gzmat
O          0.00000        0.00000        0.00000
C          1.19870        0.00000        0.00000
O          1.95670        0.00000        1.12460
C          1.24250        0.09330        2.35410
C          2.13940       -0.06450       -1.20190
H          2.89460       -0.89090       -1.02140
N          1.38320       -0.39870       -2.39410
C          0.43910        0.42620       -3.06500
O          0.18200        1.56660       -2.78380
C         -0.08990       -0.39980       -4.19090
C         -1.02540       -0.08980       -5.14790
C         -1.32430       -1.07790       -6.10670
C         -0.69570       -2.31500       -6.08310
C          0.26540       -2.62550       -5.10070
C          0.55310       -1.65880       -4.16770
C          1.50430       -1.68080       -3.02180
O          2.25500       -2.52990       -2.63520
C          2.91520        1.29020       -1.30890
H          3.66260        1.36150       -0.47620
O          2.05980        2.35770       -1.03450
C          3.57830        1.40250       -2.65610
C          3.18300        2.38420       -3.56260
C          3.78480        2.45270       -4.81790
C          4.78460        1.54680       -5.16470
C          5.19010        0.57470       -4.25090
C          4.59140        0.50330       -2.99620
H          0.69870        1.04280        2.39920
H          2.03980        0.05440        3.10500
H          0.55440       -0.75140        2.45620
H         -1.52120        0.88170       -5.16770
H         -2.06400       -0.85850       -6.87720
H         -0.94430       -3.06620       -6.83320
H          0.75780       -3.59790       -5.08600
H          1.25490        2.31880       -1.61240
H          2.40710        3.10320       -3.29230
H          3.47280        3.21680       -5.52660
H          5.25110        1.59930       -6.14560
H          5.97440       -0.12970       -4.51970
H          4.91350       -0.25760       -2.28770
