rmsd47.gzmat
 OpenBabel08211713403D

 39 41  0  0  1  0  0  0  0  0999 V2000
    0.0000    0.0000    0.0000 O   0  0  0  0  0  0  0  0  0  0  0  0
    1.1987    0.0000    0.0000 C   0  0  0  0  0  0  0  0  0  0  0  0
    1.9568    0.0000    1.1244 O   0  0  0  0  0  0  0  0  0  0  0  0
    1.2462    0.1339    2.3524 C   0  0  0  0  0  0  0  0  0  0  0  0
    2.1390   -0.0536   -1.2040 C   0  0  1  0  0  0  0  0  0  0  0  0
    2.9364   -0.8348   -1.0100 H   0  0  0  0  0  0  0  0  0  0  0  0
    1.3931   -0.4509   -2.3828 N   0  0  0  0  0  0  0  0  0  0  0  0
    0.4122    0.3176   -3.0686 C   0  0  0  0  0  0  0  0  0  0  0  0
    0.1156    1.4555   -2.8183 O   0  0  0  0  0  0  0  0  0  0  0  0
   -0.0957   -0.5624   -4.1629 C   0  0  0  0  0  0  0  0  0  0  0  0
   -1.0568   -0.3209   -5.1143 C   0  0  0  0  0  0  0  0  0  0  0  0
   -1.3298   -1.3508   -6.0362 C   0  0  0  0  0  0  0  0  0  0  0  0
   -0.6493   -2.5592   -5.9855 C   0  0  0  0  0  0  0  0  0  0  0  0
    0.3373   -2.7999   -5.0088 C   0  0  0  0  0  0  0  0  0  0  0  0
    0.5968   -1.7938   -4.1097 C   0  0  0  0  0  0  0  0  0  0  0  0
    1.5580   -1.7454   -2.9728 C   0  0  0  0  0  0  0  0  0  0  0  0
    2.3420   -2.5542   -2.5668 O   0  0  0  0  0  0  0  0  0  0  0  0
    2.8377    1.3399   -1.3433 C   0  0  2  0  0  0  0  0  0  0  0  0
    3.6031    1.4574   -0.5329 H   0  0  0  0  0  0  0  0  0  0  0  0
    1.9264    2.3551   -1.0479 O   0  0  0  0  0  0  0  0  0  0  0  0
    3.4512    1.4861   -2.7106 C   0  0  0  0  0  0  0  0  0  0  0  0
    4.5114    0.6559   -3.0802 C   0  0  0  0  0  0  0  0  0  0  0  0
    5.0627    0.7598   -4.3544 C   0  0  0  0  0  0  0  0  0  0  0  0
    4.5637    1.6969   -5.2584 C   0  0  0  0  0  0  0  0  0  0  0  0
    3.5172    2.5360   -4.8824 C   0  0  0  0  0  0  0  0  0  0  0  0
    2.9622    2.4335   -3.6082 C   0  0  0  0  0  0  0  0  0  0  0  0
    0.7595    1.1148    2.3934 H   0  0  0  0  0  0  0  0  0  0  0  0
    2.0393    0.0492    3.1046 H   0  0  0  0  0  0  0  0  0  0  0  0
    0.5078   -0.6675    2.4570 H   0  0  0  0  0  0  0  0  0  0  0  0
   -1.5914    0.6289   -5.1565 H   0  0  0  0  0  0  0  0  0  0  0  0
   -2.0921   -1.1884   -6.7988 H   0  0  0  0  0  0  0  0  0  0  0  0
   -0.8772   -3.3423   -6.7091 H   0  0  0  0  0  0  0  0  0  0  0  0
    0.8694   -3.7505   -4.9711 H   0  0  0  0  0  0  0  0  0  0  0  0
    1.1193    2.2752   -1.6193 H   0  0  0  0  0  0  0  0  0  0  0  0
    4.9073   -0.0765   -2.3791 H   0  0  0  0  0  0  0  0  0  0  0  0
    5.8852    0.1093   -4.6453 H   0  0  0  0  0  0  0  0  0  0  0  0
    4.9939    1.7741   -6.2543 H   0  0  0  0  0  0  0  0  0  0  0  0
    3.1312    3.2742   -5.5823 H   0  0  0  0  0  0  0  0  0  0  0  0
    2.1472    3.0993   -3.3164 H   0  0  0  0  0  0  0  0  0  0  0  0
  1  2  2  0  0  0  0
  2  3  1  0  0  0  0
  3  4  1  0  0  0  0
  4 27  1  0  0  0  0
  4 29  1  0  0  0  0
  4 28  1  0  0  0  0
  5  6  1  1  0  0  0
  5  2  1  0  0  0  0
  7  5  1  0  0  0  0
  8  9  2  0  0  0  0
  8  7  1  0  0  0  0
 10 15  1  0  0  0  0
 10  8  1  0  0  0  0
 11 10  2  0  0  0  0
 12 13  2  0  0  0  0
 12 11  1  0  0  0  0
 13 14  1  0  0  0  0
 14 33  1  0  0  0  0
 14 15  2  0  0  0  0
 15 16  1  0  0  0  0
 16 17  2  0  0  0  0
 16  7  1  0  0  0  0
 18  5  1  0  0  0  0
 18 20  1  0  0  0  0
 18 19  1  1  0  0  0
 21 18  1  0  0  0  0
 22 21  1  0  0  0  0
 22 35  1  0  0  0  0
 23 22  2  0  0  0  0
 24 25  2  0  0  0  0
 24 23  1  0  0  0  0
 25 26  1  0  0  0  0
 26 39  1  0  0  0  0
 26 21  2  0  0  0  0
 30 11  1  0  0  0  0
 31 12  1  0  0  0  0
 32 13  1  0  0  0  0
 34 20  1  0  0  0  0
 36 23  1  0  0  0  0
 37 24  1  0  0  0  0
 38 25  1  0  0  0  0
M  END
$$$$
