39
rmsd47.gzmat
O          0.00000        0.00000        0.00000
C          1.19870        0.00000        0.00000
O          1.95680        0.00000        1.12440
C          1.24620        0.13390        2.35240
C          2.13900       -0.05360       -1.20400
H          2.93640       -0.83480       -1.01000
N          1.39310       -0.45090       -2.38280
C          0.41220        0.31760       -3.06860
O          0.11560        1.45550       -2.81830
C         -0.09570       -0.56240       -4.16290
C         -1.05680       -0.32090       -5.11430
C         -1.32980       -1.35080       -6.03620
C         -0.64930       -2.55920       -5.98550
C          0.33730       -2.79990       -5.00880
C          0.59680       -1.79380       -4.10970
C          1.55800       -1.74540       -2.97280
O          2.34200       -2.55420       -2.56680
C          2.83770        1.33990       -1.34330
H          3.60310        1.45740       -0.53290
O          1.92640        2.35510       -1.04790
C          3.45120        1.48610       -2.71060
C          4.51140        0.65590       -3.08020
C          5.06270        0.75980       -4.35440
C          4.56370        1.69690       -5.25840
C          3.51720        2.53600       -4.88240
C          2.96220        2.43350       -3.60820
H          0.75950        1.11480        2.39340
H          2.03930        0.04920        3.10460
H          0.50780       -0.66750        2.45700
H         -1.59140        0.62890       -5.15650
H         -2.09210       -1.18840       -6.79880
H         -0.87720       -3.34230       -6.70910
H          0.86940       -3.75050       -4.97110
H          1.11930        2.27520       -1.61930
H          4.90730       -0.07650       -2.37910
H          5.88520        0.10930       -4.64530
H          4.99390        1.77410       -6.25430
H          3.13120        3.27420       -5.58230
H          2.14720        3.09930       -3.31640
