39
rmsd13.gzmat
O          0.00000        0.00000        0.00000
C          1.19860        0.00000        0.00000
O          1.95730        0.00000        1.12360
C          1.24930        0.14560        2.35170
C          2.13900       -0.05090       -1.20350
H          2.88160       -0.89250       -1.04640
N          1.38040       -0.33740       -2.40640
C          0.45210        0.52280       -3.05440
O          0.21820        1.66090       -2.74500
C         -0.09530       -0.26260       -4.20030
C         -1.02330        0.09290       -5.14900
C         -1.33820       -0.86100       -6.13680
C         -0.73390       -2.11040       -6.14760
C          0.21570       -2.46930       -5.17050
C          0.51940       -1.53570       -4.20910
C          1.46180       -1.61120       -3.05780
O          2.17760       -2.49400       -2.68070
C          2.93140        1.29770       -1.26370
H          3.67900        1.32920       -0.42840
O          2.08570        2.36210       -0.94790
C          3.59570        1.45820       -2.60510
C          3.21320        2.48440       -3.46690
C          3.81580        2.60260       -4.71810
C          4.80510        1.70140       -5.10530
C          5.19830        0.68450       -4.23580
C          4.59840        0.56350       -2.98530
H          0.68640        1.08670        2.35200
H          2.05430        0.16200        3.09560
H          0.57760       -0.70580        2.50330
H         -1.50240        1.07310       -5.14100
H         -2.07120       -0.60580       -6.90250
H         -0.99630       -2.83270       -6.92150
H          0.68630       -3.45270       -5.18010
H          1.28680        2.35910       -1.53570
H          2.44550        3.19970       -3.16480
H          3.51160        3.40110       -5.39180
H          5.27340        1.79250       -6.08270
H          5.97450       -0.01650       -4.53510
H          4.91160       -0.23190       -2.31170
