rmsd13.gzmat
 OpenBabel08211713403D

 39 41  0  0  1  0  0  0  0  0999 V2000
    0.0000    0.0000    0.0000 O   0  0  0  0  0  0  0  0  0  0  0  0
    1.1986    0.0000    0.0000 C   0  0  0  0  0  0  0  0  0  0  0  0
    1.9573    0.0000    1.1236 O   0  0  0  0  0  0  0  0  0  0  0  0
    1.2493    0.1456    2.3517 C   0  0  0  0  0  0  0  0  0  0  0  0
    2.1390   -0.0509   -1.2035 C   0  0  1  0  0  0  0  0  0  0  0  0
    2.8816   -0.8925   -1.0464 H   0  0  0  0  0  0  0  0  0  0  0  0
    1.3804   -0.3374   -2.4064 N   0  0  0  0  0  0  0  0  0  0  0  0
    0.4521    0.5228   -3.0544 C   0  0  0  0  0  0  0  0  0  0  0  0
    0.2182    1.6609   -2.7450 O   0  0  0  0  0  0  0  0  0  0  0  0
   -0.0953   -0.2626   -4.2003 C   0  0  0  0  0  0  0  0  0  0  0  0
   -1.0233    0.0929   -5.1490 C   0  0  0  0  0  0  0  0  0  0  0  0
   -1.3382   -0.8610   -6.1368 C   0  0  0  0  0  0  0  0  0  0  0  0
   -0.7339   -2.1104   -6.1476 C   0  0  0  0  0  0  0  0  0  0  0  0
    0.2157   -2.4693   -5.1705 C   0  0  0  0  0  0  0  0  0  0  0  0
    0.5194   -1.5357   -4.2091 C   0  0  0  0  0  0  0  0  0  0  0  0
    1.4618   -1.6112   -3.0578 C   0  0  0  0  0  0  0  0  0  0  0  0
    2.1776   -2.4940   -2.6807 O   0  0  0  0  0  0  0  0  0  0  0  0
    2.9314    1.2977   -1.2637 C   0  0  2  0  0  0  0  0  0  0  0  0
    3.6790    1.3292   -0.4284 H   0  0  0  0  0  0  0  0  0  0  0  0
    2.0857    2.3621   -0.9479 O   0  0  0  0  0  0  0  0  0  0  0  0
    3.5957    1.4582   -2.6051 C   0  0  0  0  0  0  0  0  0  0  0  0
    3.2132    2.4844   -3.4669 C   0  0  0  0  0  0  0  0  0  0  0  0
    3.8158    2.6026   -4.7181 C   0  0  0  0  0  0  0  0  0  0  0  0
    4.8051    1.7014   -5.1053 C   0  0  0  0  0  0  0  0  0  0  0  0
    5.1983    0.6845   -4.2358 C   0  0  0  0  0  0  0  0  0  0  0  0
    4.5984    0.5635   -2.9853 C   0  0  0  0  0  0  0  0  0  0  0  0
    0.6864    1.0867    2.3520 H   0  0  0  0  0  0  0  0  0  0  0  0
    2.0543    0.1620    3.0956 H   0  0  0  0  0  0  0  0  0  0  0  0
    0.5776   -0.7058    2.5033 H   0  0  0  0  0  0  0  0  0  0  0  0
   -1.5024    1.0731   -5.1410 H   0  0  0  0  0  0  0  0  0  0  0  0
   -2.0712   -0.6058   -6.9025 H   0  0  0  0  0  0  0  0  0  0  0  0
   -0.9963   -2.8327   -6.9215 H   0  0  0  0  0  0  0  0  0  0  0  0
    0.6863   -3.4527   -5.1801 H   0  0  0  0  0  0  0  0  0  0  0  0
    1.2868    2.3591   -1.5357 H   0  0  0  0  0  0  0  0  0  0  0  0
    2.4455    3.1997   -3.1648 H   0  0  0  0  0  0  0  0  0  0  0  0
    3.5116    3.4011   -5.3918 H   0  0  0  0  0  0  0  0  0  0  0  0
    5.2734    1.7925   -6.0827 H   0  0  0  0  0  0  0  0  0  0  0  0
    5.9745   -0.0165   -4.5351 H   0  0  0  0  0  0  0  0  0  0  0  0
    4.9116   -0.2319   -2.3117 H   0  0  0  0  0  0  0  0  0  0  0  0
  1  2  2  0  0  0  0
  2  3  1  0  0  0  0
  3  4  1  0  0  0  0
  4 27  1  0  0  0  0
  4 29  1  0  0  0  0
  4 28  1  0  0  0  0
  5  6  1  1  0  0  0
  5  2  1  0  0  0  0
  7  5  1  0  0  0  0
  8  9  2  0  0  0  0
  8  7  1  0  0  0  0
 10  8  1  0  0  0  0
 11 30  1  0  0  0  0
 11 10  2  0  0  0  0
 12 11  1  0  0  0  0
 13 12  2  0  0  0  0
 13 14  1  0  0  0  0
 14 15  2  0  0  0  0
 15 10  1  0  0  0  0
 15 16  1  0  0  0  0
 16 17  2  0  0  0  0
 16  7  1  0  0  0  0
 18  5  1  0  0  0  0
 18 20  1  0  0  0  0
 18 19  1  1  0  0  0
 21 18  1  0  0  0  0
 22 35  1  0  0  0  0
 22 21  2  0  0  0  0
 23 22  1  0  0  0  0
 24 23  2  0  0  0  0
 24 25  1  0  0  0  0
 25 26  2  0  0  0  0
 26 21  1  0  0  0  0
 26 39  1  0  0  0  0
 31 12  1  0  0  0  0
 32 13  1  0  0  0  0
 33 14  1  0  0  0  0
 34 20  1  0  0  0  0
 36 23  1  0  0  0  0
 37 24  1  0  0  0  0
 38 25  1  0  0  0  0
M  END
$$$$
