rmsd114.gzmat
 OpenBabel08211713413D

 31 32  0  0  0  0  0  0  0  0999 V2000
    0.0000    0.0000    0.0000 S   0  0  0  0  0  0  0  0  0  0  0  0
    1.4463    0.0000    0.0000 O   0  0  0  0  0  0  0  0  0  0  0  0
   -0.7399    0.0000   -1.2309 O   0  0  0  0  0  0  0  0  0  0  0  0
   -0.2924    1.5695    0.7890 N   0  0  0  0  0  0  0  0  0  0  0  0
   -1.5331    2.0808    1.0690 C   0  0  0  0  0  0  0  0  0  0  0  0
   -2.6126    1.2336    1.0133 N   0  0  0  0  0  0  0  0  0  0  0  0
   -3.8156    1.7490    1.3049 C   0  0  0  0  0  0  0  0  0  0  0  0
   -3.9582    3.0975    1.6617 C   0  0  0  0  0  0  0  0  0  0  0  0
   -5.1808    3.5688    2.0553 O   0  0  0  0  0  0  0  0  0  0  0  0
   -5.8386    4.2949    1.0168 C   0  0  0  0  0  0  0  0  0  0  0  0
   -2.8096    3.9048    1.7214 C   0  0  0  0  0  0  0  0  0  0  0  0
   -1.6021    3.4097    1.4255 N   0  0  0  0  0  0  0  0  0  0  0  0
   -0.5849   -1.2002    1.0909 C   0  0  0  0  0  0  0  0  0  0  0  0
   -1.9017   -1.6667    0.9933 C   0  0  0  0  0  0  0  0  0  0  0  0
   -2.3748   -2.6350    1.8636 C   0  0  0  0  0  0  0  0  0  0  0  0
   -1.5159   -3.1560    2.8564 C   0  0  0  0  0  0  0  0  0  0  0  0
   -1.9662   -4.1305    3.7176 N   0  0  0  0  0  0  0  0  0  0  0  0
   -0.1844   -2.6893    2.9555 C   0  0  0  0  0  0  0  0  0  0  0  0
    0.2646   -1.7216    2.0741 C   0  0  0  0  0  0  0  0  0  0  0  0
    0.4937    2.2261    0.8541 H   0  0  0  0  0  0  0  0  0  0  0  0
   -4.6730    1.0672    1.2571 H   0  0  0  0  0  0  0  0  0  0  0  0
   -6.7990    4.5551    1.4795 H   0  0  0  0  0  0  0  0  0  0  0  0
   -5.9908    3.6653    0.1355 H   0  0  0  0  0  0  0  0  0  0  0  0
   -5.2767    5.1974    0.7596 H   0  0  0  0  0  0  0  0  0  0  0  0
   -2.8570    4.9620    2.0102 H   0  0  0  0  0  0  0  0  0  0  0  0
   -2.5784   -1.2629    0.2248 H   0  0  0  0  0  0  0  0  0  0  0  0
   -3.3963   -2.9879    1.7855 H   0  0  0  0  0  0  0  0  0  0  0  0
   -1.3857   -4.4890    4.4421 H   0  0  0  0  0  0  0  0  0  0  0  0
   -2.9077   -4.4510    3.6896 H   0  0  0  0  0  0  0  0  0  0  0  0
    0.4764   -3.0891    3.7156 H   0  0  0  0  0  0  0  0  0  0  0  0
    1.3036   -1.3735    2.1537 H   0  0  0  0  0  0  0  0  0  0  0  0
  1  4  1  0  0  0  0
  1 13  1  0  0  0  0
  2  1  2  0  0  0  0
  3  1  2  0  0  0  0
  4 20  1  0  0  0  0
  4  5  1  0  0  0  0
  5 12  2  0  0  0  0
  6  5  2  0  0  0  0
  6  7  2  0  0  0  0
  7  8  1  0  0  0  0
  8 11  1  0  0  0  0
  8  9  1  0  0  0  0
 10 22  1  0  0  0  0
 10  9  1  0  0  0  0
 11 25  1  0  0  0  0
 12 11  2  0  0  0  0
 13 19  1  0  0  0  0
 14 13  2  0  0  0  0
 14 15  1  0  0  0  0
 15 16  2  0  0  0  0
 16 18  1  0  0  0  0
 16 17  1  0  0  0  0
 17 28  1  0  0  0  0
 18 30  1  0  0  0  0
 19 31  1  0  0  0  0
 19 18  2  0  0  0  0
 21  7  1  0  0  0  0
 23 10  1  0  0  0  0
 24 10  1  0  0  0  0
 26 14  1  0  0  0  0
 27 15  1  0  0  0  0
 29 17  1  0  0  0  0
M  RAD  1   8   2
M  END
$$$$
