rmsd91.gzmat
 OpenBabel08211713413D

 31 32  0  0  0  0  0  0  0  0999 V2000
    0.0000    0.0000    0.0000 S   0  0  0  0  0  0  0  0  0  0  0  0
    1.4357    0.0000    0.0000 O   0  0  0  0  0  0  0  0  0  0  0  0
   -0.7434    0.0000   -1.2407 O   0  0  0  0  0  0  0  0  0  0  0  0
   -0.5340    1.5654    0.6597 N   0  0  0  0  0  0  0  0  0  0  0  0
   -0.1727    2.0653    1.8834 C   0  0  0  0  0  0  0  0  0  0  0  0
   -0.5167    3.3720    2.1545 N   0  0  0  0  0  0  0  0  0  0  0  0
   -0.1961    3.8552    3.3602 C   0  0  0  0  0  0  0  0  0  0  0  0
    0.4711    3.0590    4.3071 C   0  0  0  0  0  0  0  0  0  0  0  0
    0.6933    3.5072    5.5801 O   0  0  0  0  0  0  0  0  0  0  0  0
    1.8723    4.3046    5.6820 C   0  0  0  0  0  0  0  0  0  0  0  0
    0.7870    1.7353    3.9688 C   0  0  0  0  0  0  0  0  0  0  0  0
    0.4667    1.2317    2.7677 N   0  0  0  0  0  0  0  0  0  0  0  0
   -0.6365   -1.1960    1.0668 C   0  0  0  0  0  0  0  0  0  0  0  0
    0.1225   -1.6535    2.1514 C   0  0  0  0  0  0  0  0  0  0  0  0
   -0.3821   -2.6149    3.0114 C   0  0  0  0  0  0  0  0  0  0  0  0
   -1.6742   -3.1396    2.7857 C   0  0  0  0  0  0  0  0  0  0  0  0
   -2.1825   -4.1063    3.6230 N   0  0  0  0  0  0  0  0  0  0  0  0
   -2.4406   -2.6848    1.6871 C   0  0  0  0  0  0  0  0  0  0  0  0
   -1.9154   -1.7211    0.8442 C   0  0  0  0  0  0  0  0  0  0  0  0
   -1.0031    2.2193    0.0229 H   0  0  0  0  0  0  0  0  0  0  0  0
   -0.4802    4.8935    3.5713 H   0  0  0  0  0  0  0  0  0  0  0  0
    1.8890    4.5682    6.7474 H   0  0  0  0  0  0  0  0  0  0  0  0
    1.7917    5.2026    5.0636 H   0  0  0  0  0  0  0  0  0  0  0  0
    2.7585    3.7229    5.4139 H   0  0  0  0  0  0  0  0  0  0  0  0
    1.2954    1.0618    4.6688 H   0  0  0  0  0  0  0  0  0  0  0  0
    1.1287   -1.2470    2.3359 H   0  0  0  0  0  0  0  0  0  0  0  0
    0.2080   -2.9605    3.8521 H   0  0  0  0  0  0  0  0  0  0  0  0
   -3.1081   -4.4535    3.5094 H   0  0  0  0  0  0  0  0  0  0  0  0
   -1.6771   -4.4149    4.4228 H   0  0  0  0  0  0  0  0  0  0  0  0
   -3.4298   -3.0907    1.5095 H   0  0  0  0  0  0  0  0  0  0  0  0
   -2.5184   -1.3775   -0.0077 H   0  0  0  0  0  0  0  0  0  0  0  0
  1  2  2  0  0  0  0
  1  4  1  0  0  0  0
  1 13  1  0  0  0  0
  3  1  2  0  0  0  0
  4  5  1  0  0  0  0
  5  6  2  0  0  0  0
  5 12  2  0  0  0  0
  6  7  2  0  0  0  0
  7 21  1  0  0  0  0
  7  8  1  0  0  0  0
  8  9  1  0  0  0  0
  9 10  1  0  0  0  0
 10 22  1  0  0  0  0
 11  8  1  0  0  0  0
 11 25  1  0  0  0  0
 12 11  2  0  0  0  0
 13 14  1  0  0  0  0
 14 26  1  0  0  0  0
 14 15  2  0  0  0  0
 15 27  1  0  0  0  0
 16 15  1  0  0  0  0
 16 17  1  0  0  0  0
 17 29  1  0  0  0  0
 18 16  2  0  0  0  0
 19 13  2  0  0  0  0
 19 18  1  0  0  0  0
 20  4  1  0  0  0  0
 23 10  1  0  0  0  0
 24 10  1  0  0  0  0
 28 17  1  0  0  0  0
 30 18  1  0  0  0  0
 31 19  1  0  0  0  0
M  RAD  1   8   2
M  END
$$$$
