rmsd67.gzmat
 OpenBabel08211713413D

 31 32  0  0  0  0  0  0  0  0999 V2000
    0.0000    0.0000    0.0000 S   0  0  0  0  0  0  0  0  0  0  0  0
    1.4356    0.0000    0.0000 O   0  0  0  0  0  0  0  0  0  0  0  0
   -0.7435    0.0000   -1.2409 O   0  0  0  0  0  0  0  0  0  0  0  0
   -0.5388    1.5643    0.6589 N   0  0  0  0  0  0  0  0  0  0  0  0
   -0.2132    2.0589    1.8941 C   0  0  0  0  0  0  0  0  0  0  0  0
   -0.6000    3.3523    2.1724 N   0  0  0  0  0  0  0  0  0  0  0  0
   -0.3169    3.8310    3.3890 C   0  0  0  0  0  0  0  0  0  0  0  0
    0.3571    3.0450    4.3395 C   0  0  0  0  0  0  0  0  0  0  0  0
    0.5436    3.4755    5.6241 O   0  0  0  0  0  0  0  0  0  0  0  0
    1.6340    4.3882    5.7459 C   0  0  0  0  0  0  0  0  0  0  0  0
    0.7205    1.7360    3.9922 C   0  0  0  0  0  0  0  0  0  0  0  0
    0.4362    1.2357    2.7805 N   0  0  0  0  0  0  0  0  0  0  0  0
   -0.6353   -1.1962    1.0673 C   0  0  0  0  0  0  0  0  0  0  0  0
    0.1183   -1.6410    2.1608 C   0  0  0  0  0  0  0  0  0  0  0  0
   -0.3901   -2.5941    3.0278 C   0  0  0  0  0  0  0  0  0  0  0  0
   -1.6803   -3.1225    2.8010 C   0  0  0  0  0  0  0  0  0  0  0  0
   -2.1920   -4.0801    3.6472 N   0  0  0  0  0  0  0  0  0  0  0  0
   -2.4386   -2.6842    1.6904 C   0  0  0  0  0  0  0  0  0  0  0  0
   -1.9096   -1.7299    0.8394 C   0  0  0  0  0  0  0  0  0  0  0  0
   -1.0111    2.2152    0.0212 H   0  0  0  0  0  0  0  0  0  0  0  0
   -0.6370    4.8576    3.6060 H   0  0  0  0  0  0  0  0  0  0  0  0
    1.6195    4.6317    6.8160 H   0  0  0  0  0  0  0  0  0  0  0  0
    1.4655    5.2858    5.1448 H   0  0  0  0  0  0  0  0  0  0  0  0
    2.5753    3.9038    5.4722 H   0  0  0  0  0  0  0  0  0  0  0  0
    1.2373    1.0709    4.6942 H   0  0  0  0  0  0  0  0  0  0  0  0
    1.1225   -1.2306    2.3472 H   0  0  0  0  0  0  0  0  0  0  0  0
    0.1961   -2.9311    3.8749 H   0  0  0  0  0  0  0  0  0  0  0  0
   -3.1196   -4.4234    3.5374 H   0  0  0  0  0  0  0  0  0  0  0  0
   -1.7002   -4.3596    4.4665 H   0  0  0  0  0  0  0  0  0  0  0  0
   -3.4255   -3.0945    1.5096 H   0  0  0  0  0  0  0  0  0  0  0  0
   -2.5059   -1.4011   -0.0229 H   0  0  0  0  0  0  0  0  0  0  0  0
  1  2  2  0  0  0  0
  1  4  1  0  0  0  0
  1 13  1  0  0  0  0
  3  1  2  0  0  0  0
  4  5  1  0  0  0  0
  5  6  2  0  0  0  0
  5 12  2  0  0  0  0
  6  7  2  0  0  0  0
  7 21  1  0  0  0  0
  7  8  1  0  0  0  0
  8  9  1  0  0  0  0
  9 10  1  0  0  0  0
 10 22  1  0  0  0  0
 11  8  1  0  0  0  0
 11 25  1  0  0  0  0
 12 11  2  0  0  0  0
 13 14  1  0  0  0  0
 14 26  1  0  0  0  0
 14 15  2  0  0  0  0
 15 27  1  0  0  0  0
 16 15  1  0  0  0  0
 16 17  1  0  0  0  0
 17 29  1  0  0  0  0
 18 16  2  0  0  0  0
 19 13  2  0  0  0  0
 19 18  1  0  0  0  0
 20  4  1  0  0  0  0
 23 10  1  0  0  0  0
 24 10  1  0  0  0  0
 28 17  1  0  0  0  0
 30 18  1  0  0  0  0
 31 19  1  0  0  0  0
M  RAD  1   8   2
M  END
$$$$
