rmsd8.gzmat
 OpenBabel08211713413D

 31 32  0  0  0  0  0  0  0  0999 V2000
    0.0000    0.0000    0.0000 S   0  0  0  0  0  0  0  0  0  0  0  0
    1.4465    0.0000    0.0000 O   0  0  0  0  0  0  0  0  0  0  0  0
   -0.7381    0.0000   -1.2314 O   0  0  0  0  0  0  0  0  0  0  0  0
   -0.2899    1.5653    0.7983 N   0  0  0  0  0  0  0  0  0  0  0  0
   -1.5222    2.0640    1.1305 C   0  0  0  0  0  0  0  0  0  0  0  0
   -2.6105    1.2319    1.0367 N   0  0  0  0  0  0  0  0  0  0  0  0
   -3.8043    1.7371    1.3804 C   0  0  0  0  0  0  0  0  0  0  0  0
   -3.9290    3.0593    1.8315 C   0  0  0  0  0  0  0  0  0  0  0  0
   -5.1439    3.4929    2.2852 O   0  0  0  0  0  0  0  0  0  0  0  0
   -5.7491    4.4465    1.4125 C   0  0  0  0  0  0  0  0  0  0  0  0
   -2.7714    3.8501    1.9264 C   0  0  0  0  0  0  0  0  0  0  0  0
   -1.5740    3.3671    1.5755 N   0  0  0  0  0  0  0  0  0  0  0  0
   -0.5887   -1.1942    1.0958 C   0  0  0  0  0  0  0  0  0  0  0  0
   -1.9117   -1.6453    1.0085 C   0  0  0  0  0  0  0  0  0  0  0  0
   -2.3970   -2.5877    1.9001 C   0  0  0  0  0  0  0  0  0  0  0  0
   -1.5443   -3.0982    2.9038 C   0  0  0  0  0  0  0  0  0  0  0  0
   -2.0130   -4.0348    3.7966 N   0  0  0  0  0  0  0  0  0  0  0  0
   -0.2027   -2.6580    2.9834 C   0  0  0  0  0  0  0  0  0  0  0  0
    0.2583   -1.7150    2.0818 C   0  0  0  0  0  0  0  0  0  0  0  0
    0.4989    2.2168    0.8763 H   0  0  0  0  0  0  0  0  0  0  0  0
   -4.6674    1.0653    1.3037 H   0  0  0  0  0  0  0  0  0  0  0  0
   -6.7064    4.6472    1.9108 H   0  0  0  0  0  0  0  0  0  0  0  0
   -5.9107    4.0178    0.4194 H   0  0  0  0  0  0  0  0  0  0  0  0
   -5.1479    5.3578    1.3528 H   0  0  0  0  0  0  0  0  0  0  0  0
   -2.8011    4.8844    2.2903 H   0  0  0  0  0  0  0  0  0  0  0  0
   -2.5845   -1.2471    0.2334 H   0  0  0  0  0  0  0  0  0  0  0  0
   -3.4242   -2.9276    1.8330 H   0  0  0  0  0  0  0  0  0  0  0  0
   -1.4404   -4.3752    4.5360 H   0  0  0  0  0  0  0  0  0  0  0  0
   -2.9632   -4.3301    3.7844 H   0  0  0  0  0  0  0  0  0  0  0  0
    0.4566   -3.0579    3.7450 H   0  0  0  0  0  0  0  0  0  0  0  0
    1.3039   -1.3837    2.1500 H   0  0  0  0  0  0  0  0  0  0  0  0
  1  4  1  0  0  0  0
  1 13  1  0  0  0  0
  2  1  2  0  0  0  0
  3  1  2  0  0  0  0
  4 20  1  0  0  0  0
  4  5  1  0  0  0  0
  5 12  2  0  0  0  0
  6  5  2  0  0  0  0
  6  7  2  0  0  0  0
  7  8  1  0  0  0  0
  8 11  1  0  0  0  0
  8  9  1  0  0  0  0
 10 22  1  0  0  0  0
 10  9  1  0  0  0  0
 11 25  1  0  0  0  0
 12 11  2  0  0  0  0
 13 19  1  0  0  0  0
 14 13  2  0  0  0  0
 14 15  1  0  0  0  0
 15 16  2  0  0  0  0
 16 18  1  0  0  0  0
 16 17  1  0  0  0  0
 17 28  1  0  0  0  0
 18 30  1  0  0  0  0
 19 31  1  0  0  0  0
 19 18  2  0  0  0  0
 21  7  1  0  0  0  0
 23 10  1  0  0  0  0
 24 10  1  0  0  0  0
 26 14  1  0  0  0  0
 27 15  1  0  0  0  0
 29 17  1  0  0  0  0
M  RAD  1   8   2
M  END
$$$$
