44
rmsd237.gzmat
N          0.00000        0.00000        0.00000
C          1.47730        0.00000        0.00000
C         -0.54810        0.00000       -1.36750
C         -0.59240        0.90210        0.91580
C         -1.77820        1.59800        0.62080
C         -2.40610        2.36950        1.58930
C         -1.85360        2.47340        2.87360
N         -2.52450        3.30910        3.80240
C         -2.39210        3.16770        5.16440
O         -1.65840        2.38960        5.73960
N         -3.19080        4.02720        5.98810
C         -4.07550        5.01430        5.56210
O         -4.28200        5.21030        4.38140
C         -4.76950        5.80280        6.64890
C         -3.83560        6.88340        7.21120
C         -2.73030        6.27840        8.02300
C         -1.42930        6.23690        7.51890
C         -0.41360        5.63500        8.25850
C         -0.69210        5.07860        9.50550
C         -1.98810        5.13180       10.01610
C         -3.00570        5.73180        9.27870
C         -0.66870        1.79290        3.17980
C         -0.04860        1.01780        2.21160
H          1.83430       -0.48530        0.92620
H          1.91550        1.00810       -0.06480
H          1.86260       -0.59980       -0.83940
H         -1.62190       -0.25830       -1.32860
H         -0.05840       -0.79360       -1.95740
H         -0.42690        0.95650       -1.89900
H         -2.22550        1.54220       -0.36750
H         -3.32950        2.89190        1.34420
H         -3.20250        3.98640        3.43170
H         -2.99760        3.92850        6.99260
H         -5.13820        5.14010        7.45640
H         -5.67690        6.27850        6.21290
H         -4.42190        7.59300        7.83390
H         -3.43370        7.50350        6.38120
H         -1.20560        6.66600        6.54350
H          0.59800        5.59260        7.85690
H          0.10030        4.60050       10.07850
H         -2.20510        4.70190       10.99230
H         -4.01420        5.77700        9.68310
H         -0.22950        1.86120        4.17930
H          0.86080        0.48100        2.47200
