
     RDKit          3D

 44 45  0  0  0  0  0  0  0  0999 V2000
    0.2029    0.5072    0.0944 N   0  0  0  0  0  0  0  0  0  0  0  0
    1.1217   -0.5625    0.4086 C   0  0  0  0  0  0  0  0  0  0  0  0
    0.2523    1.1277   -1.2088 C   0  0  0  0  0  0  0  0  0  0  0  0
   -0.5230    1.1079    1.1124 C   0  0  0  0  0  0  0  0  0  0  0  0
   -1.3309    2.2446    0.8735 C   0  0  0  0  0  0  0  0  0  0  0  0
   -2.0693    2.8286    1.8976 C   0  0  0  0  0  0  0  0  0  0  0  0
   -2.0370    2.3214    3.2050 C   0  0  0  0  0  0  0  0  0  0  0  0
   -2.8133    2.9769    4.1810 N   0  0  0  0  0  0  0  0  0  0  0  0
   -2.9198    2.6666    5.4953 C   0  0  0  0  0  0  0  0  0  0  0  0
   -2.3788    1.7560    6.0944 O   0  0  0  0  0  0  0  0  0  0  0  0
   -3.7733    3.5465    6.2297 N   0  0  0  0  0  0  0  0  0  0  0  0
   -4.3973    4.6979    5.8254 C   0  0  0  0  0  0  0  0  0  0  0  0
   -4.4162    5.0826    4.6615 O   0  0  0  0  0  0  0  0  0  0  0  0
   -5.0008    5.5339    6.9370 C   0  0  0  0  0  0  0  0  0  0  0  0
   -4.0866    6.7480    7.2273 C   0  0  0  0  0  0  0  0  0  0  0  0
   -2.6979    6.3195    7.6402 C   0  0  0  0  0  0  0  0  0  0  0  0
   -1.7007    6.1064    6.6756 C   0  0  0  0  0  0  0  0  0  0  0  0
   -0.4475    5.6105    7.0407 C   0  0  0  0  0  0  0  0  0  0  0  0
   -0.1690    5.3243    8.3800 C   0  0  0  0  0  0  0  0  0  0  0  0
   -1.1509    5.5393    9.3509 C   0  0  0  0  0  0  0  0  0  0  0  0
   -2.4055    6.0311    8.9812 C   0  0  0  0  0  0  0  0  0  0  0  0
   -1.2313    1.2018    3.4613 C   0  0  0  0  0  0  0  0  0  0  0  0
   -0.4910    0.6149    2.4373 C   0  0  0  0  0  0  0  0  0  0  0  0
    0.6052   -1.4179    0.8784 H   0  0  0  0  0  0  0  0  0  0  0  0
    1.9309   -0.2471    1.0974 H   0  0  0  0  0  0  0  0  0  0  0  0
    1.5872   -0.9266   -0.5165 H   0  0  0  0  0  0  0  0  0  0  0  0
   -0.7542    1.2236   -1.6531 H   0  0  0  0  0  0  0  0  0  0  0  0
    0.8527    0.5067   -1.8862 H   0  0  0  0  0  0  0  0  0  0  0  0
    0.7012    2.1413   -1.1871 H   0  0  0  0  0  0  0  0  0  0  0  0
   -1.3912    2.6831   -0.1212 H   0  0  0  0  0  0  0  0  0  0  0  0
   -2.6850    3.7049    1.6760 H   0  0  0  0  0  0  0  0  0  0  0  0
   -3.3593    3.7934    3.8901 H   0  0  0  0  0  0  0  0  0  0  0  0
   -3.7553    3.3309    7.2207 H   0  0  0  0  0  0  0  0  0  0  0  0
   -5.1401    4.9380    7.8525 H   0  0  0  0  0  0  0  0  0  0  0  0
   -5.9867    5.8827    6.5952 H   0  0  0  0  0  0  0  0  0  0  0  0
   -4.5533    7.3575    8.0166 H   0  0  0  0  0  0  0  0  0  0  0  0
   -4.0395    7.3655    6.3174 H   0  0  0  0  0  0  0  0  0  0  0  0
   -1.9182    6.3149    5.6250 H   0  0  0  0  0  0  0  0  0  0  0  0
    0.3131    5.4422    6.2748 H   0  0  0  0  0  0  0  0  0  0  0  0
    0.8103    4.9338    8.6661 H   0  0  0  0  0  0  0  0  0  0  0  0
   -0.9395    5.3225   10.4008 H   0  0  0  0  0  0  0  0  0  0  0  0
   -3.1711    6.1946    9.7456 H   0  0  0  0  0  0  0  0  0  0  0  0
   -1.1879    0.7971    4.4697 H   0  0  0  0  0  0  0  0  0  0  0  0
    0.1223   -0.2497    2.6865 H   0  0  0  0  0  0  0  0  0  0  0  0
  1  2  1  0
  1  3  1  0
  1  4  1  0
  2 24  1  0
  2 25  1  0
  2 26  1  0
  3 27  1  0
  3 28  1  0
  3 29  1  0
  4  5  2  0
  4 23  1  0
  5  6  1  0
  5 30  1  0
  6  7  2  0
  6 31  1  0
  7  8  1  0
  7 22  1  0
  8  9  1  0
  8 32  1  0
  9 10  2  0
  9 11  1  0
 11 12  1  0
 11 33  1  0
 12 13  2  0
 12 14  1  0
 14 15  1  0
 14 34  1  0
 14 35  1  0
 15 16  1  0
 15 36  1  0
 15 37  1  0
 16 17  2  0
 16 21  1  0
 17 18  1  0
 17 38  1  0
 18 19  2  0
 18 39  1  0
 19 20  1  0
 19 40  1  0
 20 21  2  0
 20 41  1  0
 21 42  1  0
 22 23  2  0
 22 43  1  0
 23 44  1  0
M  END

