rmsd69.gzmat
 OpenBabel08211713373D

 44 45  0  0  0  0  0  0  0  0999 V2000
    0.0000    0.0000    0.0000 N   0  0  0  0  0  0  0  0  0  0  0  0
    1.4746    0.0000    0.0000 C   0  0  0  0  0  0  0  0  0  0  0  0
   -0.5327    0.0000   -1.3799 C   0  0  0  0  0  0  0  0  0  0  0  0
   -0.6085    0.9929    0.8258 C   0  0  0  0  0  0  0  0  0  0  0  0
   -1.9655    0.8015    1.1507 C   0  0  0  0  0  0  0  0  0  0  0  0
   -2.6091    1.6703    2.0147 C   0  0  0  0  0  0  0  0  0  0  0  0
   -1.9034    2.7491    2.5806 C   0  0  0  0  0  0  0  0  0  0  0  0
   -2.6298    3.5774    3.4718 N   0  0  0  0  0  0  0  0  0  0  0  0
   -2.1719    4.7884    3.9355 C   0  0  0  0  0  0  0  0  0  0  0  0
   -1.1020    5.3037    3.6831 O   0  0  0  0  0  0  0  0  0  0  0  0
   -3.0409    5.5194    4.8131 N   0  0  0  0  0  0  0  0  0  0  0  0
   -4.3120    5.1406    5.2453 C   0  0  0  0  0  0  0  0  0  0  0  0
   -4.8143    4.0984    4.8785 O   0  0  0  0  0  0  0  0  0  0  0  0
   -5.0007    6.0959    6.1874 C   0  0  0  0  0  0  0  0  0  0  0  0
   -4.4924    5.8680    7.6179 C   0  0  0  0  0  0  0  0  0  0  0  0
   -5.2552    6.7468    8.5630 C   0  0  0  0  0  0  0  0  0  0  0  0
   -6.4828    6.3196    9.0738 C   0  0  0  0  0  0  0  0  0  0  0  0
   -7.1997    7.1395    9.9416 C   0  0  0  0  0  0  0  0  0  0  0  0
   -6.6923    8.3861   10.3049 C   0  0  0  0  0  0  0  0  0  0  0  0
   -5.4662    8.8116    9.7967 C   0  0  0  0  0  0  0  0  0  0  0  0
   -4.7477    7.9947    8.9263 C   0  0  0  0  0  0  0  0  0  0  0  0
   -0.5554    2.9421    2.2695 C   0  0  0  0  0  0  0  0  0  0  0  0
    0.0829    2.0705    1.3916 C   0  0  0  0  0  0  0  0  0  0  0  0
    1.8409   -0.0325    1.0408 H   0  0  0  0  0  0  0  0  0  0  0  0
    1.9330    0.8586   -0.5132 H   0  0  0  0  0  0  0  0  0  0  0  0
    1.8220   -0.9253   -0.4922 H   0  0  0  0  0  0  0  0  0  0  0  0
   -1.6331   -0.0618   -1.3573 H   0  0  0  0  0  0  0  0  0  0  0  0
   -0.1653   -0.8981   -1.9037 H   0  0  0  0  0  0  0  0  0  0  0  0
   -0.2490    0.8901   -1.9628 H   0  0  0  0  0  0  0  0  0  0  0  0
   -2.5025   -0.0487    0.7318 H   0  0  0  0  0  0  0  0  0  0  0  0
   -3.6591    1.5130    2.2568 H   0  0  0  0  0  0  0  0  0  0  0  0
   -3.5701    3.2620    3.7491 H   0  0  0  0  0  0  0  0  0  0  0  0
   -2.6413    6.4039    5.1368 H   0  0  0  0  0  0  0  0  0  0  0  0
   -6.0999    5.9153    6.1430 H   0  0  0  0  0  0  0  0  0  0  0  0
   -4.8677    7.1531    5.8851 H   0  0  0  0  0  0  0  0  0  0  0  0
   -3.4029    6.0649    7.6839 H   0  0  0  0  0  0  0  0  0  0  0  0
   -4.6108    4.7983    7.8991 H   0  0  0  0  0  0  0  0  0  0  0  0
   -6.8806    5.3454    8.7945 H   0  0  0  0  0  0  0  0  0  0  0  0
   -8.1573    6.8056   10.3374 H   0  0  0  0  0  0  0  0  0  0  0  0
   -7.2522    9.0249   10.9845 H   0  0  0  0  0  0  0  0  0  0  0  0
   -5.0680    9.7835   10.0816 H   0  0  0  0  0  0  0  0  0  0  0  0
   -3.7908    8.3320    8.5341 H   0  0  0  0  0  0  0  0  0  0  0  0
    0.0092    3.7731    2.7013 H   0  0  0  0  0  0  0  0  0  0  0  0
    1.1287    2.2471    1.1497 H   0  0  0  0  0  0  0  0  0  0  0  0
  1  4  1  0  0  0  0
  2  1  1  0  0  0  0
  2 24  1  0  0  0  0
  3 27  1  0  0  0  0
  3  1  1  0  0  0  0
  4  5  2  0  0  0  0
  4 23  1  0  0  0  0
  5  6  1  0  0  0  0
  6 31  1  0  0  0  0
  6  7  2  0  0  0  0
  7  8  1  0  0  0  0
  8 32  1  0  0  0  0
  8  9  1  0  0  0  0
  9 11  1  0  0  0  0
 10  9  2  0  0  0  0
 11 33  1  0  0  0  0
 11 12  1  0  0  0  0
 12 14  1  0  0  0  0
 13 12  2  0  0  0  0
 14 15  1  0  0  0  0
 15 36  1  0  0  0  0
 15 37  1  0  0  0  0
 15 16  1  0  0  0  0
 16 21  2  0  0  0  0
 16 17  1  0  0  0  0
 17 18  2  0  0  0  0
 18 19  1  0  0  0  0
 18 39  1  0  0  0  0
 19 40  1  0  0  0  0
 20 41  1  0  0  0  0
 20 19  2  0  0  0  0
 21 20  1  0  0  0  0
 22  7  1  0  0  0  0
 22 43  1  0  0  0  0
 23 22  2  0  0  0  0
 25  2  1  0  0  0  0
 26  2  1  0  0  0  0
 28  3  1  0  0  0  0
 29  3  1  0  0  0  0
 30  5  1  0  0  0  0
 34 14  1  0  0  0  0
 35 14  1  0  0  0  0
 38 17  1  0  0  0  0
 42 21  1  0  0  0  0
 44 23  1  0  0  0  0
M  END
$$$$
