44
rmsd69.gzmat
N          0.00000        0.00000        0.00000
C          1.47460        0.00000        0.00000
C         -0.53270        0.00000       -1.37990
C         -0.60850        0.99290        0.82580
C         -1.96550        0.80150        1.15070
C         -2.60910        1.67030        2.01470
C         -1.90340        2.74910        2.58060
N         -2.62980        3.57740        3.47180
C         -2.17190        4.78840        3.93550
O         -1.10200        5.30370        3.68310
N         -3.04090        5.51940        4.81310
C         -4.31200        5.14060        5.24530
O         -4.81430        4.09840        4.87850
C         -5.00070        6.09590        6.18740
C         -4.49240        5.86800        7.61790
C         -5.25520        6.74680        8.56300
C         -6.48280        6.31960        9.07380
C         -7.19970        7.13950        9.94160
C         -6.69230        8.38610       10.30490
C         -5.46620        8.81160        9.79670
C         -4.74770        7.99470        8.92630
C         -0.55540        2.94210        2.26950
C          0.08290        2.07050        1.39160
H          1.84090       -0.03250        1.04080
H          1.93300        0.85860       -0.51320
H          1.82200       -0.92530       -0.49220
H         -1.63310       -0.06180       -1.35730
H         -0.16530       -0.89810       -1.90370
H         -0.24900        0.89010       -1.96280
H         -2.50250       -0.04870        0.73180
H         -3.65910        1.51300        2.25680
H         -3.57010        3.26200        3.74910
H         -2.64130        6.40390        5.13680
H         -6.09990        5.91530        6.14300
H         -4.86770        7.15310        5.88510
H         -3.40290        6.06490        7.68390
H         -4.61080        4.79830        7.89910
H         -6.88060        5.34540        8.79450
H         -8.15730        6.80560       10.33740
H         -7.25220        9.02490       10.98450
H         -5.06800        9.78350       10.08160
H         -3.79080        8.33200        8.53410
H          0.00920        3.77310        2.70130
H          1.12870        2.24710        1.14970
