44
rmsd242.gzmat
N          0.00000        0.00000        0.00000
C          1.48010        0.00000        0.00000
C         -0.54030        0.00000       -1.37520
C         -0.50780        1.08750        0.79680
C         -0.84170        0.77910        2.12210
C         -1.37700        1.75230        2.95640
C         -1.58850        3.04500        2.46150
N         -2.13090        4.09600        3.23860
C         -2.82160        3.89690        4.41490
O         -2.98810        2.83730        4.98210
N         -3.41170        5.05300        5.02200
C         -3.32200        6.36970        4.57840
O         -2.70140        6.65210        3.57230
C         -4.06060        7.41410        5.38210
C         -3.48950        7.57360        6.79630
C         -4.03180        6.53710        7.73370
C         -3.20170        5.52940        8.22710
C         -3.71800        4.55640        9.08090
C         -5.06090        4.59130        9.45010
C         -5.88870        5.60360        8.96610
C         -5.37630        6.57550        8.11120
C         -1.24450        3.36230        1.13620
C         -0.70130        2.38620        0.31250
H          1.83660       -0.08140        1.04100
H          1.93050        0.89640       -0.45120
H          1.83780       -0.88870       -0.54370
H         -1.63970        0.08560       -1.33330
H         -0.30510       -0.97390       -1.83700
H         -0.15130        0.79590       -2.02580
H         -0.68570       -0.23670        2.48910
H         -1.63450        1.49770        3.98740
H         -2.06710        5.05090        2.85620
H         -3.91790        4.84870        5.89440
H         -5.14480        7.17760        5.41570
H         -3.98700        8.38310        4.83580
H         -3.73390        8.58820        7.18140
H         -2.37930        7.55000        6.76540
H         -2.15010        5.49700        7.94600
H         -3.06950        3.76530        9.45650
H         -5.46350        3.82990       10.11530
H         -6.93720        5.63410        9.25710
H         -6.02410        7.36740        7.74160
H         -1.40530        4.36710        0.75020
H         -0.42960        2.63600       -0.71050
