44
rmsd55.gzmat
N          0.00000        0.00000        0.00000
C          1.47890        0.00000        0.00000
C         -0.53190        0.00000       -1.37550
C         -0.55350        0.99490        0.86270
C         -0.39200        0.79800        2.24590
C         -0.98430        1.65710        3.15910
C         -1.75400        2.73440        2.69980
N         -2.41900        3.64310        3.55780
C         -2.25090        3.67510        4.92420
O         -1.53000        2.95360        5.58230
N         -3.00930        4.65440        5.64570
C         -3.94190        5.54880        5.12330
O         -4.14170        5.62390        3.92770
C         -4.67320        6.40850        6.12820
C         -5.89990        5.65250        6.66090
C         -5.48430        4.43960        7.43790
C         -4.94390        4.58230        8.71760
C         -4.50450        3.46070        9.41640
C         -4.60370        2.19450        8.84160
C         -5.15530        2.04990        7.57010
C         -5.60040        3.16930        6.87040
C         -1.91490        2.94340        1.32120
C         -1.31470        2.08150        0.41200
H          1.85580       -0.01190        1.03610
H          1.92160        0.86380       -0.51860
H          1.83200       -0.92350       -0.48880
H         -1.63410       -0.04780       -1.33960
H         -0.18580       -0.91670       -1.88360
H         -0.23170        0.86620       -1.98420
H          0.18790       -0.05350        2.60150
H         -0.84890        1.48020        4.23000
H         -3.05190        4.32840        3.12090
H         -2.90910        4.57830        6.66510
H         -4.99590        7.34730        5.62490
H         -4.01420        6.72480        6.96030
H         -6.56950        5.38020        5.81670
H         -6.50780        6.33080        7.29640
H         -4.86930        5.56790        9.17100
H         -4.08020        3.57350       10.41260
H         -4.24870        1.31970        9.38340
H         -5.23000        1.06190        7.11700
H         -6.02800        3.05000        5.87600
H         -2.50650        3.78110        0.95540
H         -1.44070        2.26690       -0.65180
