44
rmsd109.gzmat
N          0.00000        0.00000        0.00000
C          1.47910        0.00000        0.00000
C         -0.52950        0.00000       -1.37590
C         -0.55800        0.98220        0.87080
C         -1.38480        2.02750        0.43730
C         -1.96500        2.89260        1.35750
C         -1.72070        2.72540        2.72800
N         -2.35280        3.63660        3.61030
C         -1.90830        3.86980        4.89230
O         -0.99080        3.30200        5.44870
N         -2.59000        4.88080        5.64440
C         -3.68750        5.63430        5.23750
O         -4.16450        5.50120        4.12800
C         -4.21920        6.64500        6.22800
C         -4.93300        5.97040        7.40650
C         -3.96440        5.29990        8.33370
C         -3.96020        3.90950        8.45860
C         -3.02900        3.28600        9.28660
C         -2.10310        4.04800        9.99600
C         -2.11640        5.43770        9.88440
C         -3.04630        6.06340        9.05840
C         -0.90510        1.67570        3.17280
C         -0.33200        0.81470        2.25030
H          1.85900       -0.00780        1.03530
H          1.92020        0.86350       -0.52150
H          1.83190       -0.92540       -0.48600
H         -1.63040       -0.07720       -1.34320
H         -0.15950       -0.90220       -1.89350
H         -0.25050        0.88100       -1.97370
H         -1.57730        2.18060       -0.62130
H         -2.60200        3.70290        1.00650
H         -3.13140        4.19760        3.24090
H         -2.23950        4.98260        6.60630
H         -4.93160        7.31370        5.69180
H         -3.40440        7.30720        6.58550
H         -5.69090        5.25230        7.02630
H         -5.52220        6.73030        7.96550
H         -4.67780        3.30650        7.90430
H         -3.02070        2.20020        9.37310
H         -1.36950        3.55900       10.63420
H         -1.39600        6.03420       10.44120
H         -3.05710        7.14800        8.98070
H         -0.71880        1.52730        4.24000
H          0.28440       -0.01470        2.59610
