rmsd237.gzmat
 OpenBabel08211713373D

 44 45  0  0  0  0  0  0  0  0999 V2000
    0.0000    0.0000    0.0000 N   0  0  0  0  0  0  0  0  0  0  0  0
    1.4773    0.0000    0.0000 C   0  0  0  0  0  0  0  0  0  0  0  0
   -0.5481    0.0000   -1.3675 C   0  0  0  0  0  0  0  0  0  0  0  0
   -0.5924    0.9021    0.9158 C   0  0  0  0  0  0  0  0  0  0  0  0
   -1.7782    1.5980    0.6208 C   0  0  0  0  0  0  0  0  0  0  0  0
   -2.4061    2.3695    1.5893 C   0  0  0  0  0  0  0  0  0  0  0  0
   -1.8536    2.4734    2.8736 C   0  0  0  0  0  0  0  0  0  0  0  0
   -2.5245    3.3091    3.8024 N   0  0  0  0  0  0  0  0  0  0  0  0
   -2.3921    3.1677    5.1644 C   0  0  0  0  0  0  0  0  0  0  0  0
   -1.6584    2.3896    5.7396 O   0  0  0  0  0  0  0  0  0  0  0  0
   -3.1908    4.0272    5.9881 N   0  0  0  0  0  0  0  0  0  0  0  0
   -4.0755    5.0143    5.5621 C   0  0  0  0  0  0  0  0  0  0  0  0
   -4.2820    5.2103    4.3814 O   0  0  0  0  0  0  0  0  0  0  0  0
   -4.7695    5.8028    6.6489 C   0  0  0  0  0  0  0  0  0  0  0  0
   -3.8356    6.8834    7.2112 C   0  0  0  0  0  0  0  0  0  0  0  0
   -2.7303    6.2784    8.0230 C   0  0  0  0  0  0  0  0  0  0  0  0
   -1.4293    6.2369    7.5189 C   0  0  0  0  0  0  0  0  0  0  0  0
   -0.4136    5.6350    8.2585 C   0  0  0  0  0  0  0  0  0  0  0  0
   -0.6921    5.0786    9.5055 C   0  0  0  0  0  0  0  0  0  0  0  0
   -1.9881    5.1318   10.0161 C   0  0  0  0  0  0  0  0  0  0  0  0
   -3.0057    5.7318    9.2787 C   0  0  0  0  0  0  0  0  0  0  0  0
   -0.6687    1.7929    3.1798 C   0  0  0  0  0  0  0  0  0  0  0  0
   -0.0486    1.0178    2.2116 C   0  0  0  0  0  0  0  0  0  0  0  0
    1.8343   -0.4853    0.9262 H   0  0  0  0  0  0  0  0  0  0  0  0
    1.9155    1.0081   -0.0648 H   0  0  0  0  0  0  0  0  0  0  0  0
    1.8626   -0.5998   -0.8394 H   0  0  0  0  0  0  0  0  0  0  0  0
   -1.6219   -0.2583   -1.3286 H   0  0  0  0  0  0  0  0  0  0  0  0
   -0.0584   -0.7936   -1.9574 H   0  0  0  0  0  0  0  0  0  0  0  0
   -0.4269    0.9565   -1.8990 H   0  0  0  0  0  0  0  0  0  0  0  0
   -2.2255    1.5422   -0.3675 H   0  0  0  0  0  0  0  0  0  0  0  0
   -3.3295    2.8919    1.3442 H   0  0  0  0  0  0  0  0  0  0  0  0
   -3.2025    3.9864    3.4317 H   0  0  0  0  0  0  0  0  0  0  0  0
   -2.9976    3.9285    6.9926 H   0  0  0  0  0  0  0  0  0  0  0  0
   -5.1382    5.1401    7.4564 H   0  0  0  0  0  0  0  0  0  0  0  0
   -5.6769    6.2785    6.2129 H   0  0  0  0  0  0  0  0  0  0  0  0
   -4.4219    7.5930    7.8339 H   0  0  0  0  0  0  0  0  0  0  0  0
   -3.4337    7.5035    6.3812 H   0  0  0  0  0  0  0  0  0  0  0  0
   -1.2056    6.6660    6.5435 H   0  0  0  0  0  0  0  0  0  0  0  0
    0.5980    5.5926    7.8569 H   0  0  0  0  0  0  0  0  0  0  0  0
    0.1003    4.6005   10.0785 H   0  0  0  0  0  0  0  0  0  0  0  0
   -2.2051    4.7019   10.9923 H   0  0  0  0  0  0  0  0  0  0  0  0
   -4.0142    5.7770    9.6831 H   0  0  0  0  0  0  0  0  0  0  0  0
   -0.2295    1.8612    4.1793 H   0  0  0  0  0  0  0  0  0  0  0  0
    0.8608    0.4810    2.4720 H   0  0  0  0  0  0  0  0  0  0  0  0
  1  4  1  0  0  0  0
  2  1  1  0  0  0  0
  2 24  1  0  0  0  0
  3 27  1  0  0  0  0
  3  1  1  0  0  0  0
  4 23  1  0  0  0  0
  5  4  2  0  0  0  0
  5  6  1  0  0  0  0
  6  7  2  0  0  0  0
  7 22  1  0  0  0  0
  7  8  1  0  0  0  0
  8  9  1  0  0  0  0
  9 10  2  0  0  0  0
  9 11  1  0  0  0  0
 11 33  1  0  0  0  0
 12 11  1  0  0  0  0
 12 14  1  0  0  0  0
 13 12  2  0  0  0  0
 14 15  1  0  0  0  0
 14 34  1  0  0  0  0
 15 36  1  0  0  0  0
 15 16  1  0  0  0  0
 16 21  1  0  0  0  0
 17 16  2  0  0  0  0
 17 18  1  0  0  0  0
 18 19  2  0  0  0  0
 19 20  1  0  0  0  0
 19 40  1  0  0  0  0
 20 41  1  0  0  0  0
 21 42  1  0  0  0  0
 21 20  2  0  0  0  0
 22 43  1  0  0  0  0
 23 44  1  0  0  0  0
 23 22  2  0  0  0  0
 25  2  1  0  0  0  0
 26  2  1  0  0  0  0
 28  3  1  0  0  0  0
 29  3  1  0  0  0  0
 30  5  1  0  0  0  0
 31  6  1  0  0  0  0
 32  8  1  0  0  0  0
 35 14  1  0  0  0  0
 37 15  1  0  0  0  0
 38 17  1  0  0  0  0
 39 18  1  0  0  0  0
M  END
$$$$
