44

N         -0.26760        0.22300        0.06430
C          0.63340       -0.81550        0.50810
C         -0.52670        0.38250       -1.34760
C         -0.64660        1.22380        0.94740
C         -0.28890        1.18140        2.31470
C         -0.68110        2.17300        3.21140
C         -1.44770        3.26390        2.77490
N         -1.88700        4.30740        3.61340
C         -1.66980        4.44370        4.94350
O         -1.04160        3.70390        5.67770
N         -2.27790        5.60480        5.51260
C         -3.12320        6.51850        4.93880
O         -3.37950        6.54130        3.74010
C         -3.80900        7.46430        5.90520
C         -5.27380        7.01330        6.11870
C         -5.35400        5.60770        6.66680
C         -5.39800        4.50510        5.79930
C         -5.36480        3.20140        6.29820
C         -5.29290        2.97880        7.67610
C         -5.25670        4.06820        8.55060
C         -5.28500        5.37150        8.04750
C         -1.79980        3.32540        1.41850
C         -1.40950        2.33640        0.52130
H          0.21250       -1.38420        1.35570
H          1.61850       -0.42280        0.83090
H          0.80370       -1.52500       -0.31210
H         -1.60600        0.49210       -1.55370
H         -0.17860       -0.50900       -1.88530
H         -0.01630        1.26510       -1.78330
H          0.30960        0.35730        2.70020
H         -0.39210        2.11060        4.25790
H         -2.45050        5.05360        3.19480
H         -2.16560        5.61950        6.52060
H         -3.78940        8.47010        5.45970
H         -3.27990        7.50000        6.87030
H         -5.79460        7.07470        5.15110
H         -5.76300        7.72360        6.80320
H         -5.43910        4.67360        4.72020
H         -5.39000        2.35560        5.60710
H         -5.26400        1.95920        8.06700
H         -5.20530        3.90270        9.62960
H         -5.25320        6.22030        8.73720
H         -2.39120        4.17020        1.05430
H         -1.70740        2.43840       -0.52090
