44

N          0.20290        0.50720        0.09440
C          1.12170       -0.56250        0.40860
C          0.25230        1.12770       -1.20880
C         -0.52300        1.10790        1.11240
C         -1.33090        2.24460        0.87350
C         -2.06930        2.82860        1.89760
C         -2.03700        2.32140        3.20500
N         -2.81330        2.97690        4.18100
C         -2.91980        2.66660        5.49530
O         -2.37880        1.75600        6.09440
N         -3.77330        3.54650        6.22970
C         -4.39730        4.69790        5.82540
O         -4.41620        5.08260        4.66150
C         -5.00080        5.53390        6.93700
C         -4.08660        6.74800        7.22730
C         -2.69790        6.31950        7.64020
C         -1.70070        6.10640        6.67560
C         -0.44750        5.61050        7.04070
C         -0.16900        5.32430        8.38000
C         -1.15090        5.53930        9.35090
C         -2.40550        6.03110        8.98120
C         -1.23130        1.20180        3.46130
C         -0.49100        0.61490        2.43730
H          0.60520       -1.41790        0.87840
H          1.93090       -0.24710        1.09740
H          1.58720       -0.92660       -0.51650
H         -0.75420        1.22360       -1.65310
H          0.85270        0.50670       -1.88620
H          0.70120        2.14130       -1.18710
H         -1.39120        2.68310       -0.12120
H         -2.68500        3.70490        1.67600
H         -3.35930        3.79340        3.89010
H         -3.75530        3.33090        7.22070
H         -5.14010        4.93800        7.85250
H         -5.98670        5.88270        6.59520
H         -4.55330        7.35750        8.01660
H         -4.03950        7.36550        6.31740
H         -1.91820        6.31490        5.62500
H          0.31310        5.44220        6.27480
H          0.81030        4.93380        8.66610
H         -0.93950        5.32250       10.40080
H         -3.17110        6.19460        9.74560
H         -1.18790        0.79710        4.46970
H          0.12230       -0.24970        2.68650
