
     RDKit          3D

 44 45  0  0  0  0  0  0  0  0999 V2000
    0.0216    0.1889   -0.1871 N   0  0  0  0  0  0  0  0  0  0  0  0
    1.0062    0.6248   -1.1503 C   0  0  0  0  0  0  0  0  0  0  0  0
   -0.6043   -1.1033   -0.3438 C   0  0  0  0  0  0  0  0  0  0  0  0
   -0.5069    1.1018    0.7134 C   0  0  0  0  0  0  0  0  0  0  0  0
   -1.5662    0.7535    1.5841 C   0  0  0  0  0  0  0  0  0  0  0  0
   -2.0773    1.6712    2.4960 C   0  0  0  0  0  0  0  0  0  0  0  0
   -1.5705    2.9761    2.5835 C   0  0  0  0  0  0  0  0  0  0  0  0
   -2.1484    3.8401    3.5359 N   0  0  0  0  0  0  0  0  0  0  0  0
   -1.8185    5.1292    3.7876 C   0  0  0  0  0  0  0  0  0  0  0  0
   -0.9602    5.8007    3.2450 O   0  0  0  0  0  0  0  0  0  0  0  0
   -2.5940    5.7365    4.8235 N   0  0  0  0  0  0  0  0  0  0  0  0
   -3.6219    5.2230    5.5760 C   0  0  0  0  0  0  0  0  0  0  0  0
   -4.0234    4.0722    5.4646 O   0  0  0  0  0  0  0  0  0  0  0  0
   -4.2500    6.2087    6.5476 C   0  0  0  0  0  0  0  0  0  0  0  0
   -5.0370    5.5204    7.6681 C   0  0  0  0  0  0  0  0  0  0  0  0
   -5.7305    6.5171    8.5650 C   0  0  0  0  0  0  0  0  0  0  0  0
   -7.0233    6.9720    8.2648 C   0  0  0  0  0  0  0  0  0  0  0  0
   -7.6508    7.9293    9.0653 C   0  0  0  0  0  0  0  0  0  0  0  0
   -6.9924    8.4492   10.1833 C   0  0  0  0  0  0  0  0  0  0  0  0
   -5.7049    8.0034   10.4945 C   0  0  0  0  0  0  0  0  0  0  0  0
   -5.0815    7.0461    9.6904 C   0  0  0  0  0  0  0  0  0  0  0  0
   -0.5278    3.3413    1.7191 C   0  0  0  0  0  0  0  0  0  0  0  0
   -0.0141    2.4240    0.8050 C   0  0  0  0  0  0  0  0  0  0  0  0
    1.9067    1.0308   -0.6568 H   0  0  0  0  0  0  0  0  0  0  0  0
    0.6227    1.4089   -1.8335 H   0  0  0  0  0  0  0  0  0  0  0  0
    1.3227   -0.2310   -1.7606 H   0  0  0  0  0  0  0  0  0  0  0  0
   -0.6081   -1.6719    0.6030 H   0  0  0  0  0  0  0  0  0  0  0  0
   -0.0431   -1.6937   -1.0795 H   0  0  0  0  0  0  0  0  0  0  0  0
   -1.6547   -1.0341   -0.6914 H   0  0  0  0  0  0  0  0  0  0  0  0
   -2.0012   -0.2443    1.5572 H   0  0  0  0  0  0  0  0  0  0  0  0
   -2.8949    1.3663    3.1554 H   0  0  0  0  0  0  0  0  0  0  0  0
   -2.9062    3.4707    4.1167 H   0  0  0  0  0  0  0  0  0  0  0  0
   -2.3122    6.6992    4.9768 H   0  0  0  0  0  0  0  0  0  0  0  0
   -4.9247    6.8611    5.9641 H   0  0  0  0  0  0  0  0  0  0  0  0
   -3.4752    6.8732    6.9649 H   0  0  0  0  0  0  0  0  0  0  0  0
   -4.3492    4.8927    8.2565 H   0  0  0  0  0  0  0  0  0  0  0  0
   -5.7657    4.8358    7.2106 H   0  0  0  0  0  0  0  0  0  0  0  0
   -7.5462    6.5642    7.3947 H   0  0  0  0  0  0  0  0  0  0  0  0
   -8.6601    8.2675    8.8181 H   0  0  0  0  0  0  0  0  0  0  0  0
   -7.4829    9.1957   10.8125 H   0  0  0  0  0  0  0  0  0  0  0  0
   -5.1849    8.3999   11.3701 H   0  0  0  0  0  0  0  0  0  0  0  0
   -4.0757    6.6975    9.9426 H   0  0  0  0  0  0  0  0  0  0  0  0
   -0.1249    4.3503    1.7667 H   0  0  0  0  0  0  0  0  0  0  0  0
    0.7920    2.7558    0.1524 H   0  0  0  0  0  0  0  0  0  0  0  0
  1  2  1  0
  1  3  1  0
  1  4  1  0
  2 24  1  0
  2 25  1  0
  2 26  1  0
  3 27  1  0
  3 28  1  0
  3 29  1  0
  4  5  2  0
  4 23  1  0
  5  6  1  0
  5 30  1  0
  6  7  2  0
  6 31  1  0
  7  8  1  0
  7 22  1  0
  8  9  1  0
  8 32  1  0
  9 10  2  0
  9 11  1  0
 11 12  1  0
 11 33  1  0
 12 13  2  0
 12 14  1  0
 14 15  1  0
 14 34  1  0
 14 35  1  0
 15 16  1  0
 15 36  1  0
 15 37  1  0
 16 17  2  0
 16 21  1  0
 17 18  1  0
 17 38  1  0
 18 19  2  0
 18 39  1  0
 19 20  1  0
 19 40  1  0
 20 21  2  0
 20 41  1  0
 21 42  1  0
 22 23  2  0
 22 43  1  0
 23 44  1  0
M  END

