rmsd173.gzmat
 OpenBabel08211713373D

 44 45  0  0  0  0  0  0  0  0999 V2000
    0.0000    0.0000    0.0000 N   0  0  0  0  0  0  0  0  0  0  0  0
    1.4754    0.0000    0.0000 C   0  0  0  0  0  0  0  0  0  0  0  0
   -0.5510    0.0000   -1.3672 C   0  0  0  0  0  0  0  0  0  0  0  0
   -0.6133    0.8773    0.9210 C   0  0  0  0  0  0  0  0  0  0  0  0
    0.0424    1.2245    2.1188 C   0  0  0  0  0  0  0  0  0  0  0  0
   -0.5989    1.9743    3.0945 C   0  0  0  0  0  0  0  0  0  0  0  0
   -1.9143    2.4053    2.8908 C   0  0  0  0  0  0  0  0  0  0  0  0
   -2.6369    3.1570    3.8530 N   0  0  0  0  0  0  0  0  0  0  0  0
   -2.0213    3.9443    4.7975 C   0  0  0  0  0  0  0  0  0  0  0  0
   -0.8253    4.0386    4.9864 O   0  0  0  0  0  0  0  0  0  0  0  0
   -2.8688    4.7342    5.6433 N   0  0  0  0  0  0  0  0  0  0  0  0
   -4.2592    4.7704    5.6350 C   0  0  0  0  0  0  0  0  0  0  0  0
   -4.9010    4.0943    4.8548 O   0  0  0  0  0  0  0  0  0  0  0  0
   -4.9241    5.7154    6.6097 C   0  0  0  0  0  0  0  0  0  0  0  0
   -4.6852    5.3122    8.0699 C   0  0  0  0  0  0  0  0  0  0  0  0
   -3.3421    5.7596    8.5644 C   0  0  0  0  0  0  0  0  0  0  0  0
   -3.0719    7.1224    8.7128 C   0  0  0  0  0  0  0  0  0  0  0  0
   -1.8198    7.5415    9.1543 C   0  0  0  0  0  0  0  0  0  0  0  0
   -0.8329    6.6032    9.4536 C   0  0  0  0  0  0  0  0  0  0  0  0
   -1.1049    5.2436    9.3187 C   0  0  0  0  0  0  0  0  0  0  0  0
   -2.3575    4.8210    8.8772 C   0  0  0  0  0  0  0  0  0  0  0  0
   -2.5805    2.0721    1.7021 C   0  0  0  0  0  0  0  0  0  0  0  0
   -1.9375    1.3197    0.7302 C   0  0  0  0  0  0  0  0  0  0  0  0
    1.8321   -0.4651    0.9374 H   0  0  0  0  0  0  0  0  0  0  0  0
    1.9155    1.0061   -0.0905 H   0  0  0  0  0  0  0  0  0  0  0  0
    1.8592   -0.6214   -0.8246 H   0  0  0  0  0  0  0  0  0  0  0  0
   -1.5915   -0.3716   -1.3384 H   0  0  0  0  0  0  0  0  0  0  0  0
    0.0134   -0.7060   -1.9992 H   0  0  0  0  0  0  0  0  0  0  0  0
   -0.5363    0.9900   -1.8499 H   0  0  0  0  0  0  0  0  0  0  0  0
    1.0634    0.8998    2.3041 H   0  0  0  0  0  0  0  0  0  0  0  0
   -0.0673    2.2264    4.0164 H   0  0  0  0  0  0  0  0  0  0  0  0
   -3.6614    3.1699    3.7774 H   0  0  0  0  0  0  0  0  0  0  0  0
   -2.3541    5.2894    6.3396 H   0  0  0  0  0  0  0  0  0  0  0  0
   -6.0183    5.7160    6.3949 H   0  0  0  0  0  0  0  0  0  0  0  0
   -4.5883    6.7569    6.4248 H   0  0  0  0  0  0  0  0  0  0  0  0
   -4.8134    4.2149    8.1861 H   0  0  0  0  0  0  0  0  0  0  0  0
   -5.4813    5.7542    8.7091 H   0  0  0  0  0  0  0  0  0  0  0  0
   -3.8410    7.8587    8.4890 H   0  0  0  0  0  0  0  0  0  0  0  0
   -1.6106    8.6038    9.2664 H   0  0  0  0  0  0  0  0  0  0  0  0
    0.1473    6.9333    9.7921 H   0  0  0  0  0  0  0  0  0  0  0  0
   -0.3364    4.5080    9.5537 H   0  0  0  0  0  0  0  0  0  0  0  0
   -2.5617    3.7559    8.7760 H   0  0  0  0  0  0  0  0  0  0  0  0
   -3.6039    2.4059    1.5337 H   0  0  0  0  0  0  0  0  0  0  0  0
   -2.4788    1.0724   -0.1787 H   0  0  0  0  0  0  0  0  0  0  0  0
  1  2  1  0  0  0  0
  1  4  1  0  0  0  0
  2 24  1  0  0  0  0
  3 27  1  0  0  0  0
  3  1  1  0  0  0  0
  4  5  1  0  0  0  0
  5 30  1  0  0  0  0
  5  6  2  0  0  0  0
  6 31  1  0  0  0  0
  7  6  1  0  0  0  0
  7  8  1  0  0  0  0
  8  9  1  0  0  0  0
  9 10  2  0  0  0  0
  9 11  1  0  0  0  0
 11 33  1  0  0  0  0
 12 11  1  0  0  0  0
 12 14  1  0  0  0  0
 13 12  2  0  0  0  0
 14 15  1  0  0  0  0
 15 36  1  0  0  0  0
 15 16  1  0  0  0  0
 15 37  1  0  0  0  0
 16 17  2  0  0  0  0
 16 21  1  0  0  0  0
 17 18  1  0  0  0  0
 18 39  1  0  0  0  0
 18 19  2  0  0  0  0
 19 40  1  0  0  0  0
 20 19  1  0  0  0  0
 20 41  1  0  0  0  0
 21 20  2  0  0  0  0
 22  7  2  0  0  0  0
 23  4  2  0  0  0  0
 23 22  1  0  0  0  0
 25  2  1  0  0  0  0
 26  2  1  0  0  0  0
 28  3  1  0  0  0  0
 29  3  1  0  0  0  0
 32  8  1  0  0  0  0
 34 14  1  0  0  0  0
 35 14  1  0  0  0  0
 38 17  1  0  0  0  0
 42 21  1  0  0  0  0
 43 22  1  0  0  0  0
 44 23  1  0  0  0  0
M  END
$$$$
