rmsd11.gzmat
 OpenBabel08211713383D

 41 44  0  0  0  0  0  0  0  0999 V2000
    0.0000    0.0000    0.0000 N   0  0  0  0  0  0  0  0  0  0  0  0
    1.4310    0.0000    0.0000 C   0  0  0  0  0  0  0  0  0  0  0  0
    2.0158    0.0000    1.0562 O   0  0  0  0  0  0  0  0  0  0  0  0
    2.0832   -0.0221   -1.2410 N   0  0  0  0  0  0  0  0  0  0  0  0
    1.4195   -0.0270   -2.3638 C   0  0  0  0  0  0  0  0  0  0  0  0
    2.1970   -0.0355   -3.6218 C   0  0  0  0  0  0  0  0  0  0  0  0
    2.1150   -1.1330   -4.4815 C   0  0  0  0  0  0  0  0  0  0  0  0
    2.8196   -1.1185   -5.6823 C   0  0  0  0  0  0  0  0  0  0  0  0
    3.6079   -0.0175   -6.0172 C   0  0  0  0  0  0  0  0  0  0  0  0
    3.7037    1.0659   -5.1458 C   0  0  0  0  0  0  0  0  0  0  0  0
    3.0027    1.0583   -3.9411 C   0  0  0  0  0  0  0  0  0  0  0  0
   -0.0314   -0.0011   -2.4123 C   0  0  0  0  0  0  0  0  0  0  0  0
   -0.7421    0.0126   -3.6276 C   0  0  0  0  0  0  0  0  0  0  0  0
   -2.1189    0.0506   -3.6051 C   0  0  0  0  0  0  0  0  0  0  0  0
   -2.8340    0.0949   -2.3818 C   0  0  0  0  0  0  0  0  0  0  0  0
   -2.1475    0.0900   -1.1936 C   0  0  0  0  0  0  0  0  0  0  0  0
   -0.7258    0.0363   -1.1825 C   0  0  0  0  0  0  0  0  0  0  0  0
   -2.9442    0.0545   -4.6886 O   0  0  0  0  0  0  0  0  0  0  0  0
   -2.3229   -0.0285   -5.9643 C   0  0  0  0  0  0  0  0  0  0  0  0
   -0.6675    0.1563    1.3048 C   0  0  0  0  0  0  0  0  0  0  0  0
   -0.9928    1.6139    1.5670 C   0  0  0  0  0  0  0  0  0  0  0  0
   -1.0293    2.1032    2.9994 C   0  0  0  0  0  0  0  0  0  0  0  0
    0.0992    2.5229    2.0936 C   0  0  0  0  0  0  0  0  0  0  0  0
    1.5098   -1.9974   -4.2093 H   0  0  0  0  0  0  0  0  0  0  0  0
    2.7584   -1.9690   -6.3581 H   0  0  0  0  0  0  0  0  0  0  0  0
    4.1551   -0.0080   -6.9580 H   0  0  0  0  0  0  0  0  0  0  0  0
    4.3310    1.9175   -5.4020 H   0  0  0  0  0  0  0  0  0  0  0  0
    3.0885    1.8942   -3.2452 H   0  0  0  0  0  0  0  0  0  0  0  0
   -0.1888    0.0001   -4.5652 H   0  0  0  0  0  0  0  0  0  0  0  0
   -3.9237    0.1350   -2.4116 H   0  0  0  0  0  0  0  0  0  0  0  0
   -2.6968    0.1277   -0.2533 H   0  0  0  0  0  0  0  0  0  0  0  0
   -3.1881   -0.0581   -6.6407 H   0  0  0  0  0  0  0  0  0  0  0  0
   -1.7332   -0.9461   -6.0579 H   0  0  0  0  0  0  0  0  0  0  0  0
   -1.7145    0.8603   -6.1606 H   0  0  0  0  0  0  0  0  0  0  0  0
    0.0112   -0.2506    2.0996 H   0  0  0  0  0  0  0  0  0  0  0  0
   -1.5850   -0.4734    1.3418 H   0  0  0  0  0  0  0  0  0  0  0  0
   -1.7101    2.0307    0.8528 H   0  0  0  0  0  0  0  0  0  0  0  0
   -0.8352    1.4119    3.8151 H   0  0  0  0  0  0  0  0  0  0  0  0
   -1.7832    2.8263    3.2972 H   0  0  0  0  0  0  0  0  0  0  0  0
    0.1650    3.5466    1.7390 H   0  0  0  0  0  0  0  0  0  0  0  0
    1.1006    2.1179    2.2501 H   0  0  0  0  0  0  0  0  0  0  0  0
  1 20  1  0  0  0  0
  2  1  1  0  0  0  0
  2  3  2  0  0  0  0
  4  2  2  0  0  0  0
  5  4  2  0  0  0  0
  6  5  1  0  0  0  0
  7 24  1  0  0  0  0
  7  6  2  0  0  0  0
  8  7  1  0  0  0  0
  9  8  2  0  0  0  0
  9 10  1  0  0  0  0
 10 11  2  0  0  0  0
 11  6  1  0  0  0  0
 11 28  1  0  0  0  0
 12  5  1  0  0  0  0
 12 17  2  0  0  0  0
 13 14  2  0  0  0  0
 13 12  1  0  0  0  0
 14 15  1  0  0  0  0
 15 16  2  0  0  0  0
 16 17  1  0  0  0  0
 16 31  1  0  0  0  0
 17  1  1  0  0  0  0
 18 14  1  0  0  0  0
 19 18  1  0  0  0  0
 20 36  1  0  0  0  0
 20 21  1  0  0  0  0
 20 35  1  0  0  0  0
 21 23  1  0  0  0  0
 21 22  1  0  0  0  0
 22 39  1  0  0  0  0
 22 38  1  0  0  0  0
 23 41  1  0  0  0  0
 23 22  1  0  0  0  0
 25  8  1  0  0  0  0
 26  9  1  0  0  0  0
 27 10  1  0  0  0  0
 29 13  1  0  0  0  0
 30 15  1  0  0  0  0
 32 19  1  0  0  0  0
 33 19  1  0  0  0  0
 34 19  1  0  0  0  0
 37 21  1  0  0  0  0
 40 23  1  0  0  0  0
M  END
$$$$
