rmsd106.gzmat
 OpenBabel08211713383D

 41 44  0  0  0  0  0  0  0  0999 V2000
    0.0000    0.0000    0.0000 N   0  0  0  0  0  0  0  0  0  0  0  0
    1.4318    0.0000    0.0000 C   0  0  0  0  0  0  0  0  0  0  0  0
    2.0162    0.0000    1.0564 O   0  0  0  0  0  0  0  0  0  0  0  0
    2.0853    0.0121   -1.2409 N   0  0  0  0  0  0  0  0  0  0  0  0
    1.4192    0.0388   -2.3613 C   0  0  0  0  0  0  0  0  0  0  0  0
    2.1804    0.0114   -3.6287 C   0  0  0  0  0  0  0  0  0  0  0  0
    2.0991   -1.1172   -4.4480 C   0  0  0  0  0  0  0  0  0  0  0  0
    2.7781   -1.1330   -5.6631 C   0  0  0  0  0  0  0  0  0  0  0  0
    3.5395   -0.0306   -6.0521 C   0  0  0  0  0  0  0  0  0  0  0  0
    3.6319    1.0851   -5.2220 C   0  0  0  0  0  0  0  0  0  0  0  0
    2.9561    1.1082   -4.0028 C   0  0  0  0  0  0  0  0  0  0  0  0
   -0.0311    0.0810   -2.4076 C   0  0  0  0  0  0  0  0  0  0  0  0
   -0.7372    0.1839   -3.6211 C   0  0  0  0  0  0  0  0  0  0  0  0
   -2.1144    0.1860   -3.6019 C   0  0  0  0  0  0  0  0  0  0  0  0
   -2.8335    0.0752   -2.3849 C   0  0  0  0  0  0  0  0  0  0  0  0
   -2.1505   -0.0101   -1.1973 C   0  0  0  0  0  0  0  0  0  0  0  0
   -0.7279    0.0140   -1.1813 C   0  0  0  0  0  0  0  0  0  0  0  0
   -2.9349    0.2864   -4.6842 O   0  0  0  0  0  0  0  0  0  0  0  0
   -2.3033    0.3913   -5.9532 C   0  0  0  0  0  0  0  0  0  0  0  0
   -0.6660   -0.1775    1.3024 C   0  0  0  0  0  0  0  0  0  0  0  0
   -0.9789   -1.6407    1.5467 C   0  0  0  0  0  0  0  0  0  0  0  0
    0.1223   -2.5451    2.0613 C   0  0  0  0  0  0  0  0  0  0  0  0
   -1.0065   -2.1439    2.9750 C   0  0  0  0  0  0  0  0  0  0  0  0
    1.5141   -1.9804   -4.1321 H   0  0  0  0  0  0  0  0  0  0  0  0
    2.7190   -2.0077   -6.3073 H   0  0  0  0  0  0  0  0  0  0  0  0
    4.0673   -0.0457   -7.0034 H   0  0  0  0  0  0  0  0  0  0  0  0
    4.2350    1.9391   -5.5226 H   0  0  0  0  0  0  0  0  0  0  0  0
    3.0382    1.9717   -3.3419 H   0  0  0  0  0  0  0  0  0  0  0  0
   -0.1791    0.2652   -4.5526 H   0  0  0  0  0  0  0  0  0  0  0  0
   -3.9238    0.0622   -2.4193 H   0  0  0  0  0  0  0  0  0  0  0  0
   -2.7034   -0.0960   -0.2627 H   0  0  0  0  0  0  0  0  0  0  0  0
   -3.1618    0.4708   -6.6336 H   0  0  0  0  0  0  0  0  0  0  0  0
   -1.7213   -0.5087   -6.1744 H   0  0  0  0  0  0  0  0  0  0  0  0
   -1.6861    1.2931   -6.0134 H   0  0  0  0  0  0  0  0  0  0  0  0
   -1.5892    0.4430    1.3490 H   0  0  0  0  0  0  0  0  0  0  0  0
    0.0103    0.2255    2.1014 H   0  0  0  0  0  0  0  0  0  0  0  0
   -1.6951   -2.0534    0.8296 H   0  0  0  0  0  0  0  0  0  0  0  0
    1.1208   -2.1327    2.2167 H   0  0  0  0  0  0  0  0  0  0  0  0
    0.1964   -3.5656    1.6988 H   0  0  0  0  0  0  0  0  0  0  0  0
   -1.7522   -2.8765    3.2693 H   0  0  0  0  0  0  0  0  0  0  0  0
   -0.8158   -1.4577    3.7959 H   0  0  0  0  0  0  0  0  0  0  0  0
  1 20  1  0  0  0  0
  2  1  1  0  0  0  0
  2  3  2  0  0  0  0
  4  2  2  0  0  0  0
  5  4  2  0  0  0  0
  6  5  1  0  0  0  0
  7 24  1  0  0  0  0
  7  6  2  0  0  0  0
  8  7  1  0  0  0  0
  9  8  2  0  0  0  0
  9 10  1  0  0  0  0
 10 11  2  0  0  0  0
 11  6  1  0  0  0  0
 11 28  1  0  0  0  0
 12  5  1  0  0  0  0
 12 17  2  0  0  0  0
 13 14  2  0  0  0  0
 13 12  1  0  0  0  0
 14 15  1  0  0  0  0
 15 16  2  0  0  0  0
 16 17  1  0  0  0  0
 16 31  1  0  0  0  0
 17  1  1  0  0  0  0
 18 14  1  0  0  0  0
 19 18  1  0  0  0  0
 20 35  1  0  0  0  0
 20 21  1  0  0  0  0
 20 36  1  0  0  0  0
 21 22  1  0  0  0  0
 21 23  1  0  0  0  0
 22 38  1  0  0  0  0
 22 23  1  0  0  0  0
 23 40  1  0  0  0  0
 23 41  1  0  0  0  0
 25  8  1  0  0  0  0
 26  9  1  0  0  0  0
 27 10  1  0  0  0  0
 29 13  1  0  0  0  0
 30 15  1  0  0  0  0
 32 19  1  0  0  0  0
 33 19  1  0  0  0  0
 34 19  1  0  0  0  0
 37 21  1  0  0  0  0
 39 22  1  0  0  0  0
M  END
$$$$
