41
rmsd108.gzmat
N          0.00000        0.00000        0.00000
C          1.43140        0.00000        0.00000
O          2.01570        0.00000        1.05630
N          2.08390       -0.02170       -1.24110
C          1.41840       -0.03170       -2.36240
C          2.18820       -0.03930       -3.62490
C          2.11560       -1.14730       -4.47200
C          2.80480       -1.13210       -5.68150
C          3.56650       -0.01940       -6.03790
C          3.65330        1.07470       -5.17880
C          2.96880        1.06580       -3.96470
C         -0.03280       -0.01200       -2.41040
C         -0.74300       -0.00710       -3.62580
C         -2.11970        0.02950       -3.60530
C         -2.83600        0.07880       -2.38280
C         -2.15020        0.08100       -1.19410
C         -0.72780        0.02930       -1.18170
O         -2.94200        0.02620       -4.69080
C         -2.31610       -0.03930       -5.96520
C         -0.66530        0.16590        1.30430
C         -0.98500        1.62600        1.55760
C         -1.03960        2.12130        2.98720
C          0.10460        2.53040        2.09620
H          1.52910       -2.01920       -4.18400
H          2.75170       -1.99120       -6.34690
H          4.09860       -0.00840       -6.98690
H          4.25970        1.93600       -5.45230
H          3.04750        1.91120       -3.27970
H         -0.18880       -0.02570       -4.56270
H         -3.92580        0.11690       -2.41440
H         -2.69980        0.12360       -0.25440
H         -3.17940       -0.05450       -6.64410
H         -1.73180       -0.95860       -6.06980
H         -1.70260        0.84890       -6.14760
H          0.01330       -0.23780        2.10070
H         -1.58430       -0.46050        1.34700
H         -1.68910        2.04520        0.83170
H         -0.86180        1.43320        3.80910
H         -1.79400        2.84980        3.26930
H          0.18120        3.55160        1.73710
H          1.10130        2.12070        2.26750
