rmsd113.gzmat
 OpenBabel08211713383D

 41 44  0  0  0  0  0  0  0  0999 V2000
    0.0000    0.0000    0.0000 N   0  0  0  0  0  0  0  0  0  0  0  0
    1.4311    0.0000    0.0000 C   0  0  0  0  0  0  0  0  0  0  0  0
    2.0156    0.0000    1.0562 O   0  0  0  0  0  0  0  0  0  0  0  0
    2.0822    0.0249   -1.2415 N   0  0  0  0  0  0  0  0  0  0  0  0
    1.4176    0.0217   -2.3640 C   0  0  0  0  0  0  0  0  0  0  0  0
    2.1932    0.0486   -3.6230 C   0  0  0  0  0  0  0  0  0  0  0  0
    2.1191   -1.0291   -4.5083 C   0  0  0  0  0  0  0  0  0  0  0  0
    2.8237   -0.9810   -5.7085 C   0  0  0  0  0  0  0  0  0  0  0  0
    3.6013    0.1347   -6.0187 C   0  0  0  0  0  0  0  0  0  0  0  0
    3.6896    1.1979   -5.1218 C   0  0  0  0  0  0  0  0  0  0  0  0
    2.9906    1.1553   -3.9167 C   0  0  0  0  0  0  0  0  0  0  0  0
   -0.0335    0.0021   -2.4108 C   0  0  0  0  0  0  0  0  0  0  0  0
   -0.7461    0.0226   -3.6247 C   0  0  0  0  0  0  0  0  0  0  0  0
   -2.1226   -0.0251   -3.6019 C   0  0  0  0  0  0  0  0  0  0  0  0
   -2.8371   -0.0841   -2.3789 C   0  0  0  0  0  0  0  0  0  0  0  0
   -2.1496   -0.0844   -1.1914 C   0  0  0  0  0  0  0  0  0  0  0  0
   -0.7271   -0.0342   -1.1814 C   0  0  0  0  0  0  0  0  0  0  0  0
   -2.9469   -0.0255   -4.6860 O   0  0  0  0  0  0  0  0  0  0  0  0
   -2.3223    0.0626   -5.9598 C   0  0  0  0  0  0  0  0  0  0  0  0
   -0.6696   -0.1112    1.3077 C   0  0  0  0  0  0  0  0  0  0  0  0
   -1.0464   -1.5498    1.6003 C   0  0  0  0  0  0  0  0  0  0  0  0
   -0.0245   -2.4577    2.2526 C   0  0  0  0  0  0  0  0  0  0  0  0
   -1.2108   -1.9716    3.0450 C   0  0  0  0  0  0  0  0  0  0  0  0
    1.5204   -1.9041   -4.2570 H   0  0  0  0  0  0  0  0  0  0  0  0
    2.7710   -1.8168   -6.4031 H   0  0  0  0  0  0  0  0  0  0  0  0
    4.1447    0.1718   -6.9611 H   0  0  0  0  0  0  0  0  0  0  0  0
    4.3090    2.0608   -5.3587 H   0  0  0  0  0  0  0  0  0  0  0  0
    3.0718    1.9746   -3.2008 H   0  0  0  0  0  0  0  0  0  0  0  0
   -0.1940    0.0821   -4.5614 H   0  0  0  0  0  0  0  0  0  0  0  0
   -3.9268   -0.1254   -2.4076 H   0  0  0  0  0  0  0  0  0  0  0  0
   -2.6983   -0.1235   -0.2508 H   0  0  0  0  0  0  0  0  0  0  0  0
   -3.1834    0.0493   -6.6411 H   0  0  0  0  0  0  0  0  0  0  0  0
   -1.6785   -0.8035   -6.1423 H   0  0  0  0  0  0  0  0  0  0  0  0
   -1.7699    1.0022   -6.0614 H   0  0  0  0  0  0  0  0  0  0  0  0
   -1.5648    0.5501    1.3348 H   0  0  0  0  0  0  0  0  0  0  0  0
    0.0238    0.2865    2.0941 H   0  0  0  0  0  0  0  0  0  0  0  0
   -1.7137   -1.9827    0.8477 H   0  0  0  0  0  0  0  0  0  0  0  0
    0.9719   -2.0709    2.4696 H   0  0  0  0  0  0  0  0  0  0  0  0
    0.0408   -3.4986    1.9510 H   0  0  0  0  0  0  0  0  0  0  0  0
   -2.0043   -2.6638    3.3111 H   0  0  0  0  0  0  0  0  0  0  0  0
   -1.0678   -1.2480    3.8425 H   0  0  0  0  0  0  0  0  0  0  0  0
  1 20  1  0  0  0  0
  2  1  1  0  0  0  0
  2  3  2  0  0  0  0
  4  2  2  0  0  0  0
  5  4  2  0  0  0  0
  6  5  1  0  0  0  0
  7 24  1  0  0  0  0
  7  6  2  0  0  0  0
  8  7  1  0  0  0  0
  9  8  2  0  0  0  0
  9 10  1  0  0  0  0
 10 11  2  0  0  0  0
 11  6  1  0  0  0  0
 11 28  1  0  0  0  0
 12  5  1  0  0  0  0
 12 17  2  0  0  0  0
 13 14  2  0  0  0  0
 13 12  1  0  0  0  0
 14 15  1  0  0  0  0
 15 16  2  0  0  0  0
 16 17  1  0  0  0  0
 16 31  1  0  0  0  0
 17  1  1  0  0  0  0
 18 14  1  0  0  0  0
 19 18  1  0  0  0  0
 20 35  1  0  0  0  0
 20 21  1  0  0  0  0
 20 36  1  0  0  0  0
 21 22  1  0  0  0  0
 21 23  1  0  0  0  0
 22 38  1  0  0  0  0
 22 23  1  0  0  0  0
 23 40  1  0  0  0  0
 23 41  1  0  0  0  0
 25  8  1  0  0  0  0
 26  9  1  0  0  0  0
 27 10  1  0  0  0  0
 29 13  1  0  0  0  0
 30 15  1  0  0  0  0
 32 19  1  0  0  0  0
 33 19  1  0  0  0  0
 34 19  1  0  0  0  0
 37 21  1  0  0  0  0
 39 22  1  0  0  0  0
M  END
$$$$
