41
rmsd107.gzmat
N          0.00000        0.00000        0.00000
C          1.43130        0.00000        0.00000
O          2.01570        0.00000        1.05640
N          2.08380        0.01470       -1.24110
C          1.41890        0.03040       -2.36290
C          2.19020        0.00980       -3.62440
C          2.10050       -1.10360       -4.46310
C          2.80440       -1.11660       -5.66420
C          3.59600       -0.02500       -6.02130
C          3.69350        1.07710       -5.17390
C          2.99510        1.09600       -3.96770
C         -0.03180        0.05700       -2.41000
C         -0.74090        0.12860       -3.62420
C         -2.11820        0.11550       -3.60250
C         -2.83510        0.03940       -2.38170
C         -2.14990       -0.01430       -1.19390
C         -0.72690        0.00540       -1.18210
O         -2.94190        0.16500       -4.68580
C         -2.31410        0.25710       -5.95740
C         -0.66860       -0.17010        1.30220
C         -1.01780       -1.62610        1.54010
C          0.06380       -2.56610        2.03260
C         -1.04100       -2.14030        2.96470
H          1.48990       -1.95830       -4.17360
H          2.74090       -1.98120       -6.32130
H          4.14420       -0.03740       -6.96120
H          4.31980        1.92250       -5.45170
H          3.08190        1.94700       -3.29130
H         -0.18490        0.19760       -4.55800
H         -3.92560        0.02710       -2.41320
H         -2.70020       -0.07030       -0.25530
H         -3.17400        0.25600       -6.64030
H         -1.67600       -0.61200       -6.14630
H         -1.75480        1.19350       -6.04860
H         -1.57550        0.47370        1.35260
H          0.01700        0.21170        2.10400
H         -1.75430       -2.01530        0.83020
H          1.07570       -2.18450        2.17850
H          0.10140       -3.58480        1.65980
H         -1.80300       -2.85380        3.26390
H         -0.82020       -1.46690        3.78860
