rmsd193.gzmat
 OpenBabel08211713383D

 41 44  0  0  0  0  0  0  0  0999 V2000
    0.0000    0.0000    0.0000 N   0  0  0  0  0  0  0  0  0  0  0  0
    1.4313    0.0000    0.0000 C   0  0  0  0  0  0  0  0  0  0  0  0
    2.0161    0.0000    1.0562 O   0  0  0  0  0  0  0  0  0  0  0  0
    2.0833    0.0188   -1.2412 N   0  0  0  0  0  0  0  0  0  0  0  0
    1.4182    0.0248   -2.3629 C   0  0  0  0  0  0  0  0  0  0  0  0
    2.1927    0.0242   -3.6229 C   0  0  0  0  0  0  0  0  0  0  0  0
    2.9490    1.1436   -3.9700 C   0  0  0  0  0  0  0  0  0  0  0  0
    3.6599    1.1464   -5.1687 C   0  0  0  0  0  0  0  0  0  0  0  0
    3.6209    0.0336   -6.0068 C   0  0  0  0  0  0  0  0  0  0  0  0
    2.8788   -1.0907   -5.6449 C   0  0  0  0  0  0  0  0  0  0  0  0
    2.1616   -1.0993   -4.4513 C   0  0  0  0  0  0  0  0  0  0  0  0
   -0.0325    0.0324   -2.4106 C   0  0  0  0  0  0  0  0  0  0  0  0
   -0.7417    0.0846   -3.6255 C   0  0  0  0  0  0  0  0  0  0  0  0
   -2.1189    0.0708   -3.6041 C   0  0  0  0  0  0  0  0  0  0  0  0
   -2.8355    0.0001   -2.3826 C   0  0  0  0  0  0  0  0  0  0  0  0
   -2.1505   -0.0394   -1.1942 C   0  0  0  0  0  0  0  0  0  0  0  0
   -0.7275   -0.0107   -1.1816 C   0  0  0  0  0  0  0  0  0  0  0  0
   -2.9424    0.1106   -4.6880 O   0  0  0  0  0  0  0  0  0  0  0  0
   -2.3192    0.2726   -5.9550 C   0  0  0  0  0  0  0  0  0  0  0  0
   -0.6684   -0.1475    1.3047 C   0  0  0  0  0  0  0  0  0  0  0  0
   -1.0205   -1.5986    1.5669 C   0  0  0  0  0  0  0  0  0  0  0  0
    0.0467   -2.5177    2.1246 C   0  0  0  0  0  0  0  0  0  0  0  0
   -1.0931   -2.0719    3.0035 C   0  0  0  0  0  0  0  0  0  0  0  0
    2.9909    2.0032   -3.3002 H   0  0  0  0  0  0  0  0  0  0  0  0
    4.2534    2.0160   -5.4437 H   0  0  0  0  0  0  0  0  0  0  0  0
    4.1758    0.0383   -6.9429 H   0  0  0  0  0  0  0  0  0  0  0  0
    2.8657   -1.9646   -6.2926 H   0  0  0  0  0  0  0  0  0  0  0  0
    1.5880   -1.9787   -4.1602 H   0  0  0  0  0  0  0  0  0  0  0  0
   -0.1850    0.1381   -4.5597 H   0  0  0  0  0  0  0  0  0  0  0  0
   -3.9259   -0.0190   -2.4141 H   0  0  0  0  0  0  0  0  0  0  0  0
   -2.7004   -0.0903   -0.2549 H   0  0  0  0  0  0  0  0  0  0  0  0
   -3.1815    0.2952   -6.6347 H   0  0  0  0  0  0  0  0  0  0  0  0
   -1.6723   -0.5791   -6.1869 H   0  0  0  0  0  0  0  0  0  0  0  0
   -1.7702    1.2183   -6.0037 H   0  0  0  0  0  0  0  0  0  0  0  0
   -1.5743    0.4983    1.3455 H   0  0  0  0  0  0  0  0  0  0  0  0
    0.0186    0.2451    2.0999 H   0  0  0  0  0  0  0  0  0  0  0  0
   -1.7280   -2.0100    0.8401 H   0  0  0  0  0  0  0  0  0  0  0  0
    1.0507   -2.1252    2.2947 H   0  0  0  0  0  0  0  0  0  0  0  0
    0.1032   -3.5468    1.7841 H   0  0  0  0  0  0  0  0  0  0  0  0
   -1.8619   -2.7810    3.2957 H   0  0  0  0  0  0  0  0  0  0  0  0
   -0.9050   -1.3735    3.8141 H   0  0  0  0  0  0  0  0  0  0  0  0
  1 20  1  0  0  0  0
  2  1  1  0  0  0  0
  2  3  2  0  0  0  0
  4  2  2  0  0  0  0
  5  4  2  0  0  0  0
  6  5  1  0  0  0  0
  7  6  1  0  0  0  0
  7 24  1  0  0  0  0
  8  7  2  0  0  0  0
  9 10  2  0  0  0  0
  9  8  1  0  0  0  0
 10 11  1  0  0  0  0
 11 28  1  0  0  0  0
 11  6  2  0  0  0  0
 12  5  1  0  0  0  0
 12 17  2  0  0  0  0
 13 14  2  0  0  0  0
 13 12  1  0  0  0  0
 14 15  1  0  0  0  0
 15 16  2  0  0  0  0
 16 17  1  0  0  0  0
 16 31  1  0  0  0  0
 17  1  1  0  0  0  0
 18 14  1  0  0  0  0
 19 18  1  0  0  0  0
 20 35  1  0  0  0  0
 20 21  1  0  0  0  0
 20 36  1  0  0  0  0
 21 22  1  0  0  0  0
 21 23  1  0  0  0  0
 22 38  1  0  0  0  0
 22 23  1  0  0  0  0
 23 40  1  0  0  0  0
 23 41  1  0  0  0  0
 25  8  1  0  0  0  0
 26  9  1  0  0  0  0
 27 10  1  0  0  0  0
 29 13  1  0  0  0  0
 30 15  1  0  0  0  0
 32 19  1  0  0  0  0
 33 19  1  0  0  0  0
 34 19  1  0  0  0  0
 37 21  1  0  0  0  0
 39 22  1  0  0  0  0
M  END
$$$$
