
     RDKit          3D

 41 44  0  0  0  0  0  0  0  0999 V2000
   -0.0877   -0.0460   -0.0670 N   0  0  0  0  0  0  0  0  0  0  0  0
    1.3093    0.1612   -0.0702 C   0  0  0  0  0  0  0  0  0  0  0  0
    1.9191    0.2833    0.9770 O   0  0  0  0  0  0  0  0  0  0  0  0
    1.9471    0.1894   -1.3012 N   0  0  0  0  0  0  0  0  0  0  0  0
    1.2986    0.0706   -2.4217 C   0  0  0  0  0  0  0  0  0  0  0  0
    2.1309    0.0541   -3.6586 C   0  0  0  0  0  0  0  0  0  0  0  0
    1.9259   -0.8836   -4.6847 C   0  0  0  0  0  0  0  0  0  0  0  0
    2.7611   -0.9010   -5.8039 C   0  0  0  0  0  0  0  0  0  0  0  0
    3.8038    0.0225   -5.9157 C   0  0  0  0  0  0  0  0  0  0  0  0
    4.0232    0.9494   -4.8914 C   0  0  0  0  0  0  0  0  0  0  0  0
    3.2016    0.9566   -3.7650 C   0  0  0  0  0  0  0  0  0  0  0  0
   -0.1514   -0.0298   -2.4791 C   0  0  0  0  0  0  0  0  0  0  0  0
   -0.8931   -0.0000   -3.6832 C   0  0  0  0  0  0  0  0  0  0  0  0
   -2.2766   -0.1243   -3.6657 C   0  0  0  0  0  0  0  0  0  0  0  0
   -2.9338   -0.2847   -2.4273 C   0  0  0  0  0  0  0  0  0  0  0  0
   -2.2291   -0.2834   -1.2380 C   0  0  0  0  0  0  0  0  0  0  0  0
   -0.8222   -0.1286   -1.2346 C   0  0  0  0  0  0  0  0  0  0  0  0
   -3.0711   -0.1052   -4.7652 O   0  0  0  0  0  0  0  0  0  0  0  0
   -2.4661    0.0500   -6.0284 C   0  0  0  0  0  0  0  0  0  0  0  0
   -0.7312   -0.1655    1.2458 C   0  0  0  0  0  0  0  0  0  0  0  0
   -0.9619   -1.5995    1.6641 C   0  0  0  0  0  0  0  0  0  0  0  0
    0.2017   -2.4005    2.1918 C   0  0  0  0  0  0  0  0  0  0  0  0
   -0.8928   -1.9570    3.1273 C   0  0  0  0  0  0  0  0  0  0  0  0
    1.1311   -1.6257   -4.5919 H   0  0  0  0  0  0  0  0  0  0  0  0
    2.6015   -1.6453   -6.5877 H   0  0  0  0  0  0  0  0  0  0  0  0
    4.4523    0.0128   -6.7950 H   0  0  0  0  0  0  0  0  0  0  0  0
    4.8452    1.6651   -4.9680 H   0  0  0  0  0  0  0  0  0  0  0  0
    3.3781    1.6546   -2.9453 H   0  0  0  0  0  0  0  0  0  0  0  0
   -0.3578    0.1386   -4.6180 H   0  0  0  0  0  0  0  0  0  0  0  0
   -4.0196   -0.3966   -2.4315 H   0  0  0  0  0  0  0  0  0  0  0  0
   -2.7752   -0.3984   -0.3042 H   0  0  0  0  0  0  0  0  0  0  0  0
   -3.2755    0.0314   -6.7698 H   0  0  0  0  0  0  0  0  0  0  0  0
   -1.7585   -0.7703   -6.2468 H   0  0  0  0  0  0  0  0  0  0  0  0
   -1.9263    1.0108   -6.1086 H   0  0  0  0  0  0  0  0  0  0  0  0
   -1.6709    0.4065    1.2332 H   0  0  0  0  0  0  0  0  0  0  0  0
   -0.0512    0.3210    1.9544 H   0  0  0  0  0  0  0  0  0  0  0  0
   -1.6967   -2.1457    1.0626 H   0  0  0  0  0  0  0  0  0  0  0  0
    1.1660   -1.8896    2.2497 H   0  0  0  0  0  0  0  0  0  0  0  0
    0.2575   -3.4592    1.9253 H   0  0  0  0  0  0  0  0  0  0  0  0
   -1.5932   -2.7054    3.5074 H   0  0  0  0  0  0  0  0  0  0  0  0
   -0.6662   -1.1557    3.8370 H   0  0  0  0  0  0  0  0  0  0  0  0
  1  2  1  0
  1 17  1  0
  1 20  1  0
  2  3  2  0
  2  4  1  0
  4  5  2  0
  5  6  1  0
  5 12  1  0
  6  7  2  0
  6 11  1  0
  7  8  1  0
  7 24  1  0
  8  9  2  0
  8 25  1  0
  9 10  1  0
  9 26  1  0
 10 11  2  0
 10 27  1  0
 11 28  1  0
 12 13  1  0
 12 17  2  0
 13 14  2  0
 13 29  1  0
 14 15  1  0
 14 18  1  0
 15 16  2  0
 15 30  1  0
 16 17  1  0
 16 31  1  0
 18 19  1  0
 19 32  1  0
 19 33  1  0
 19 34  1  0
 20 21  1  0
 20 35  1  0
 20 36  1  0
 21 22  1  0
 21 23  1  0
 21 37  1  0
 22 23  1  0
 22 38  1  0
 22 39  1  0
 23 40  1  0
 23 41  1  0
M  END

