rmsd107.gzmat
 OpenBabel08211713383D

 41 44  0  0  0  0  0  0  0  0999 V2000
    0.0000    0.0000    0.0000 N   0  0  0  0  0  0  0  0  0  0  0  0
    1.4313    0.0000    0.0000 C   0  0  0  0  0  0  0  0  0  0  0  0
    2.0157    0.0000    1.0564 O   0  0  0  0  0  0  0  0  0  0  0  0
    2.0838    0.0147   -1.2411 N   0  0  0  0  0  0  0  0  0  0  0  0
    1.4189    0.0304   -2.3629 C   0  0  0  0  0  0  0  0  0  0  0  0
    2.1902    0.0098   -3.6244 C   0  0  0  0  0  0  0  0  0  0  0  0
    2.1005   -1.1036   -4.4631 C   0  0  0  0  0  0  0  0  0  0  0  0
    2.8044   -1.1166   -5.6642 C   0  0  0  0  0  0  0  0  0  0  0  0
    3.5960   -0.0250   -6.0213 C   0  0  0  0  0  0  0  0  0  0  0  0
    3.6935    1.0771   -5.1739 C   0  0  0  0  0  0  0  0  0  0  0  0
    2.9951    1.0960   -3.9677 C   0  0  0  0  0  0  0  0  0  0  0  0
   -0.0318    0.0570   -2.4100 C   0  0  0  0  0  0  0  0  0  0  0  0
   -0.7409    0.1286   -3.6242 C   0  0  0  0  0  0  0  0  0  0  0  0
   -2.1182    0.1155   -3.6025 C   0  0  0  0  0  0  0  0  0  0  0  0
   -2.8351    0.0394   -2.3817 C   0  0  0  0  0  0  0  0  0  0  0  0
   -2.1499   -0.0143   -1.1939 C   0  0  0  0  0  0  0  0  0  0  0  0
   -0.7269    0.0054   -1.1821 C   0  0  0  0  0  0  0  0  0  0  0  0
   -2.9419    0.1650   -4.6858 O   0  0  0  0  0  0  0  0  0  0  0  0
   -2.3141    0.2571   -5.9574 C   0  0  0  0  0  0  0  0  0  0  0  0
   -0.6686   -0.1701    1.3022 C   0  0  0  0  0  0  0  0  0  0  0  0
   -1.0178   -1.6261    1.5401 C   0  0  0  0  0  0  0  0  0  0  0  0
    0.0638   -2.5661    2.0326 C   0  0  0  0  0  0  0  0  0  0  0  0
   -1.0410   -2.1403    2.9647 C   0  0  0  0  0  0  0  0  0  0  0  0
    1.4899   -1.9583   -4.1736 H   0  0  0  0  0  0  0  0  0  0  0  0
    2.7409   -1.9812   -6.3213 H   0  0  0  0  0  0  0  0  0  0  0  0
    4.1442   -0.0374   -6.9612 H   0  0  0  0  0  0  0  0  0  0  0  0
    4.3198    1.9225   -5.4517 H   0  0  0  0  0  0  0  0  0  0  0  0
    3.0819    1.9470   -3.2913 H   0  0  0  0  0  0  0  0  0  0  0  0
   -0.1849    0.1976   -4.5580 H   0  0  0  0  0  0  0  0  0  0  0  0
   -3.9256    0.0271   -2.4132 H   0  0  0  0  0  0  0  0  0  0  0  0
   -2.7002   -0.0703   -0.2553 H   0  0  0  0  0  0  0  0  0  0  0  0
   -3.1740    0.2560   -6.6403 H   0  0  0  0  0  0  0  0  0  0  0  0
   -1.6760   -0.6120   -6.1463 H   0  0  0  0  0  0  0  0  0  0  0  0
   -1.7548    1.1935   -6.0486 H   0  0  0  0  0  0  0  0  0  0  0  0
   -1.5755    0.4737    1.3526 H   0  0  0  0  0  0  0  0  0  0  0  0
    0.0170    0.2117    2.1040 H   0  0  0  0  0  0  0  0  0  0  0  0
   -1.7543   -2.0153    0.8302 H   0  0  0  0  0  0  0  0  0  0  0  0
    1.0757   -2.1845    2.1785 H   0  0  0  0  0  0  0  0  0  0  0  0
    0.1014   -3.5848    1.6598 H   0  0  0  0  0  0  0  0  0  0  0  0
   -1.8030   -2.8538    3.2639 H   0  0  0  0  0  0  0  0  0  0  0  0
   -0.8202   -1.4669    3.7886 H   0  0  0  0  0  0  0  0  0  0  0  0
  1 20  1  0  0  0  0
  2  1  1  0  0  0  0
  2  3  2  0  0  0  0
  4  2  2  0  0  0  0
  5  4  2  0  0  0  0
  6  5  1  0  0  0  0
  7 24  1  0  0  0  0
  7  6  2  0  0  0  0
  8  7  1  0  0  0  0
  9  8  2  0  0  0  0
  9 10  1  0  0  0  0
 10 11  2  0  0  0  0
 11  6  1  0  0  0  0
 11 28  1  0  0  0  0
 12  5  1  0  0  0  0
 12 17  2  0  0  0  0
 13 14  2  0  0  0  0
 13 12  1  0  0  0  0
 14 15  1  0  0  0  0
 15 16  2  0  0  0  0
 16 17  1  0  0  0  0
 16 31  1  0  0  0  0
 17  1  1  0  0  0  0
 18 14  1  0  0  0  0
 19 18  1  0  0  0  0
 20 35  1  0  0  0  0
 20 21  1  0  0  0  0
 20 36  1  0  0  0  0
 21 22  1  0  0  0  0
 21 23  1  0  0  0  0
 22 38  1  0  0  0  0
 22 23  1  0  0  0  0
 23 40  1  0  0  0  0
 23 41  1  0  0  0  0
 25  8  1  0  0  0  0
 26  9  1  0  0  0  0
 27 10  1  0  0  0  0
 29 13  1  0  0  0  0
 30 15  1  0  0  0  0
 32 19  1  0  0  0  0
 33 19  1  0  0  0  0
 34 19  1  0  0  0  0
 37 21  1  0  0  0  0
 39 22  1  0  0  0  0
M  END
$$$$
