rmsd109.gzmat
 OpenBabel08211713383D

 41 44  0  0  0  0  0  0  0  0999 V2000
    0.0000    0.0000    0.0000 N   0  0  0  0  0  0  0  0  0  0  0  0
    1.4312    0.0000    0.0000 C   0  0  0  0  0  0  0  0  0  0  0  0
    2.0158    0.0000    1.0563 O   0  0  0  0  0  0  0  0  0  0  0  0
    2.0839   -0.0212   -1.2414 N   0  0  0  0  0  0  0  0  0  0  0  0
    1.4200   -0.0265   -2.3637 C   0  0  0  0  0  0  0  0  0  0  0  0
    2.1915   -0.0294   -3.6260 C   0  0  0  0  0  0  0  0  0  0  0  0
    2.1266   -1.1338   -4.4783 C   0  0  0  0  0  0  0  0  0  0  0  0
    2.8173   -1.1100   -5.6872 C   0  0  0  0  0  0  0  0  0  0  0  0
    3.5743    0.0076   -6.0381 C   0  0  0  0  0  0  0  0  0  0  0  0
    3.6557    1.0967   -5.1725 C   0  0  0  0  0  0  0  0  0  0  0  0
    2.9692    1.0793   -3.9597 C   0  0  0  0  0  0  0  0  0  0  0  0
   -0.0312   -0.0019   -2.4117 C   0  0  0  0  0  0  0  0  0  0  0  0
   -0.7409    0.0166   -3.6272 C   0  0  0  0  0  0  0  0  0  0  0  0
   -2.1174    0.0636   -3.6049 C   0  0  0  0  0  0  0  0  0  0  0  0
   -2.8340    0.0980   -2.3825 C   0  0  0  0  0  0  0  0  0  0  0  0
   -2.1479    0.0876   -1.1941 C   0  0  0  0  0  0  0  0  0  0  0  0
   -0.7261    0.0349   -1.1825 C   0  0  0  0  0  0  0  0  0  0  0  0
   -2.9394    0.0846   -4.6906 O   0  0  0  0  0  0  0  0  0  0  0  0
   -2.3085    0.0503   -5.9635 C   0  0  0  0  0  0  0  0  0  0  0  0
   -0.6657    0.1707    1.3039 C   0  0  0  0  0  0  0  0  0  0  0  0
   -0.9736    1.6337    1.5571 C   0  0  0  0  0  0  0  0  0  0  0  0
   -1.0475    2.1240    2.9878 C   0  0  0  0  0  0  0  0  0  0  0  0
    0.1167    2.5232    2.1186 C   0  0  0  0  0  0  0  0  0  0  0  0
    1.5449   -2.0103   -4.1948 H   0  0  0  0  0  0  0  0  0  0  0  0
    2.7690   -1.9656   -6.3577 H   0  0  0  0  0  0  0  0  0  0  0  0
    4.1072    0.0263   -6.9870 H   0  0  0  0  0  0  0  0  0  0  0  0
    4.2604    1.9610   -5.4397 H   0  0  0  0  0  0  0  0  0  0  0  0
    3.0459    1.9205   -3.2694 H   0  0  0  0  0  0  0  0  0  0  0  0
   -0.1869   -0.0011   -4.5647 H   0  0  0  0  0  0  0  0  0  0  0  0
   -3.9238    0.1347   -2.4126 H   0  0  0  0  0  0  0  0  0  0  0  0
   -2.6971    0.1217   -0.2537 H   0  0  0  0  0  0  0  0  0  0  0  0
   -3.1666    0.0725   -6.6481 H   0  0  0  0  0  0  0  0  0  0  0  0
   -1.7394   -0.8759   -6.0928 H   0  0  0  0  0  0  0  0  0  0  0  0
   -1.6786    0.9331   -6.1142 H   0  0  0  0  0  0  0  0  0  0  0  0
    0.0088   -0.2396    2.1004 H   0  0  0  0  0  0  0  0  0  0  0  0
   -1.5907   -0.4474    1.3444 H   0  0  0  0  0  0  0  0  0  0  0  0
   -1.6604    2.0623    0.8200 H   0  0  0  0  0  0  0  0  0  0  0  0
   -0.8918    1.4305    3.8096 H   0  0  0  0  0  0  0  0  0  0  0  0
   -1.7965    2.8615    3.2614 H   0  0  0  0  0  0  0  0  0  0  0  0
    0.2122    3.5460    1.7680 H   0  0  0  0  0  0  0  0  0  0  0  0
    1.1050    2.1009    2.3078 H   0  0  0  0  0  0  0  0  0  0  0  0
  1 20  1  0  0  0  0
  2  1  1  0  0  0  0
  2  3  2  0  0  0  0
  4  2  2  0  0  0  0
  5  4  2  0  0  0  0
  6  5  1  0  0  0  0
  7 24  1  0  0  0  0
  7  6  2  0  0  0  0
  8  7  1  0  0  0  0
  9  8  2  0  0  0  0
  9 10  1  0  0  0  0
 10 11  2  0  0  0  0
 11  6  1  0  0  0  0
 11 28  1  0  0  0  0
 12  5  1  0  0  0  0
 12 17  2  0  0  0  0
 13 14  2  0  0  0  0
 13 12  1  0  0  0  0
 14 15  1  0  0  0  0
 15 16  2  0  0  0  0
 16 17  1  0  0  0  0
 16 31  1  0  0  0  0
 17  1  1  0  0  0  0
 18 14  1  0  0  0  0
 19 18  1  0  0  0  0
 20 36  1  0  0  0  0
 20 21  1  0  0  0  0
 20 35  1  0  0  0  0
 21 23  1  0  0  0  0
 21 22  1  0  0  0  0
 22 39  1  0  0  0  0
 22 38  1  0  0  0  0
 23 41  1  0  0  0  0
 23 22  1  0  0  0  0
 25  8  1  0  0  0  0
 26  9  1  0  0  0  0
 27 10  1  0  0  0  0
 29 13  1  0  0  0  0
 30 15  1  0  0  0  0
 32 19  1  0  0  0  0
 33 19  1  0  0  0  0
 34 19  1  0  0  0  0
 37 21  1  0  0  0  0
 40 23  1  0  0  0  0
M  END
$$$$
