41
rmsd113.gzmat
N          0.00000        0.00000        0.00000
C          1.43110        0.00000        0.00000
O          2.01560        0.00000        1.05620
N          2.08220        0.02490       -1.24150
C          1.41760        0.02170       -2.36400
C          2.19320        0.04860       -3.62300
C          2.11910       -1.02910       -4.50830
C          2.82370       -0.98100       -5.70850
C          3.60130        0.13470       -6.01870
C          3.68960        1.19790       -5.12180
C          2.99060        1.15530       -3.91670
C         -0.03350        0.00210       -2.41080
C         -0.74610        0.02260       -3.62470
C         -2.12260       -0.02510       -3.60190
C         -2.83710       -0.08410       -2.37890
C         -2.14960       -0.08440       -1.19140
C         -0.72710       -0.03420       -1.18140
O         -2.94690       -0.02550       -4.68600
C         -2.32230        0.06260       -5.95980
C         -0.66960       -0.11120        1.30770
C         -1.04640       -1.54980        1.60030
C         -0.02450       -2.45770        2.25260
C         -1.21080       -1.97160        3.04500
H          1.52040       -1.90410       -4.25700
H          2.77100       -1.81680       -6.40310
H          4.14470        0.17180       -6.96110
H          4.30900        2.06080       -5.35870
H          3.07180        1.97460       -3.20080
H         -0.19400        0.08210       -4.56140
H         -3.92680       -0.12540       -2.40760
H         -2.69830       -0.12350       -0.25080
H         -3.18340        0.04930       -6.64110
H         -1.67850       -0.80350       -6.14230
H         -1.76990        1.00220       -6.06140
H         -1.56480        0.55010        1.33480
H          0.02380        0.28650        2.09410
H         -1.71370       -1.98270        0.84770
H          0.97190       -2.07090        2.46960
H          0.04080       -3.49860        1.95100
H         -2.00430       -2.66380        3.31110
H         -1.06780       -1.24800        3.84250
