28
rmsd144.gzmat
Cl         0.00000        0.00000        0.00000
C          1.70870        0.00000        0.00000
C          2.37450        0.00000        1.21960
C          3.76910       -0.00210        1.21160
C          4.45920       -0.01290        0.00060
S          6.22550       -0.02270        0.00190
O          6.67680        0.56850       -1.23560
O          6.67550        0.46410        1.28930
C          6.61020       -1.74840       -0.05070
C          7.24230       -2.36320        0.95150
C          7.53980       -3.77440        0.94790
O          6.97270       -4.49810       -0.08660
C          7.37120       -5.80800        0.12290
N          6.88660       -6.75340       -0.83360
O          6.17240       -6.35040       -1.73500
O          7.22320       -7.91680       -0.67920
C          8.16370       -5.92240        1.24210
C          8.27180       -4.60050        1.77640
C          3.76900        0.00400       -1.21040
C          2.37480        0.00570       -1.21920
H          1.82810        0.00680        2.16230
H          4.30720        0.01730        2.16790
H          6.30530       -2.26700       -0.96120
H          7.57860       -1.83060        1.86000
H          8.61260       -6.81610        1.64230
H          8.82520       -4.32610        2.65350
H          4.30640        0.02920       -2.16740
H          1.82920        0.01650       -2.16270
