28
rmsd123.gzmat
Cl         0.00000        0.00000        0.00000
C          1.70860        0.00000        0.00000
C          2.37440        0.00000        1.21970
C          3.76890       -0.00600        1.21140
C          4.45870       -0.02340        0.00010
S          6.22390       -0.04290       -0.00040
O          6.67480        0.49750       -1.26140
O          6.67860        0.49210        1.26610
C          6.61330       -1.76860        0.01240
C          7.28010       -2.33070        1.02310
C          7.62600       -3.72990        1.06250
O          7.03230       -4.52090        0.09430
C          7.51560       -5.79930        0.32170
N          7.02940       -6.80430       -0.57060
O          6.23330       -6.47660       -1.43340
O          7.44890       -7.93880       -0.40520
C          8.38330       -5.82950        1.39010
C          8.45120       -4.48500        1.87140
C          3.76890       -0.00250       -1.21120
C          2.37460        0.00550       -1.21950
H          1.82820        0.00990        2.16240
H          4.30670        0.01690        2.16770
H          6.29300       -2.32870       -0.86770
H          7.62360       -1.75500        1.90260
H          8.90840       -6.68180        1.78810
H          9.04200       -4.14820        2.70120
H          4.30680        0.02090       -2.16830
H          1.82840        0.02040       -2.16280
