28
rmsd151.gzmat
Cl         0.00000        0.00000        0.00000
C          1.70870        0.00000        0.00000
C          2.37580        0.00000        1.21890
C          3.77020       -0.00490        1.20970
C          4.45920       -0.01980       -0.00210
S          6.22530       -0.03610       -0.00630
O          6.67120        0.43630       -1.30060
O          6.68280        0.56510        1.22390
C          6.60640       -1.76180        0.06320
C          7.18530       -2.39860       -0.95730
C          7.49030       -3.80780       -0.93640
O          6.97860       -4.51130        0.14050
C          7.38650       -5.82080       -0.05310
N          6.96780       -6.74610        0.95290
O          6.28630       -6.33050        1.87350
O          7.32700       -7.90550        0.82110
C          8.12810       -5.95480       -1.20480
C          8.19470       -4.64620       -1.77650
C          3.76780       -0.00140       -1.21240
C          2.37360        0.00490       -1.22000
H          1.82980        0.00720        2.16220
H          4.30850        0.01480        2.16610
H          6.34990       -2.26000        1.00020
H          7.47470       -1.88570       -1.89270
H          8.57060       -6.85350       -1.60120
H          8.70580       -4.38710       -2.68370
H          4.30420        0.02070       -2.16930
H          1.82680        0.01860       -2.16250
