28
rmsd120.gzmat
Cl         0.00000        0.00000        0.00000
C          1.70880        0.00000        0.00000
C          2.37560        0.00000        1.21900
C          3.77020       -0.00410        1.21000
C          4.46000       -0.01370       -0.00130
S          6.22600       -0.01020       -0.00290
O          6.66710        0.59670       -1.24140
O          6.66990        0.47130        1.28430
C          6.64730       -1.72510       -0.10670
C          7.24490       -2.23650       -1.18530
C          7.62120       -3.62340       -1.30140
O          7.23020       -4.44060       -0.25490
C          7.70380       -5.70110       -0.58040
N          7.41340       -6.72840        0.37050
O          6.81700       -6.42340        1.38830
O          7.78850       -7.85710        0.09520
C          8.37170       -5.69570       -1.78370
C          8.31450       -4.34600       -2.25150
C          3.76900        0.00660       -1.21190
C          2.37440        0.00700       -1.21970
H          1.82970        0.00910        2.16240
H          4.30940        0.01530        2.16660
H          6.41190       -2.32040        0.77720
H          7.50340       -1.62320       -2.06850
H          8.84440       -6.52840       -2.27800
H          8.73720       -3.98560       -3.16930
H          4.30450        0.03790       -2.16850
H          1.82850        0.01860       -2.16280
