28
rmsd112.gzmat
Cl         0.00000        0.00000        0.00000
C          1.70870        0.00000        0.00000
C          2.37510        0.00000        1.21930
C          3.76960       -0.00130        1.21050
C          4.45930       -0.01310       -0.00110
S          6.22510       -0.01140        0.00010
O          6.67300        0.47640       -1.28770
O          6.66870        0.58710        1.23700
C          6.63750       -1.73010        0.06160
C          7.33060       -2.32480       -0.91220
C          7.68270       -3.72290       -0.88820
O          7.12960       -4.45880        0.14600
C          7.59600       -5.75040       -0.03520
N          7.14200       -6.70360        0.92880
O          6.42370       -6.31480        1.83320
O          7.50770       -7.85840        0.77790
C          8.41530       -5.84180       -1.13740
C          8.46970       -4.52410       -1.69020
C          3.76850        0.00210       -1.21170
C          2.37420        0.00510       -1.21950
H          1.82920        0.00630        2.16260
H          4.30700        0.02130        2.16750
H          6.30640       -2.25890        0.95720
H          7.68650       -1.78210       -1.80750
H          8.91630       -6.71770       -1.51490
H          9.02590       -4.23540       -2.56120
H          4.30610        0.02510       -2.16800
H          1.82740        0.01670       -2.16200
