rmsd124.gzmat
 OpenBabel08211713403D

 28 29  0  0  0  0  0  0  0  0999 V2000
    0.0000    0.0000    0.0000 Cl  0  0  0  0  0  0  0  0  0  0  0  0
    1.7087    0.0000    0.0000 C   0  0  0  0  0  0  0  0  0  0  0  0
    2.3739    0.0000    1.2201 C   0  0  0  0  0  0  0  0  0  0  0  0
    3.7683   -0.0047    1.2123 C   0  0  0  0  0  0  0  0  0  0  0  0
    4.4591   -0.0200    0.0016 C   0  0  0  0  0  0  0  0  0  0  0  0
    6.2254   -0.0341    0.0047 S   0  0  0  0  0  0  0  0  0  0  0  0
    6.6793    0.5367   -1.2412 O   0  0  0  0  0  0  0  0  0  0  0  0
    6.6706    0.4712    1.2867 O   0  0  0  0  0  0  0  0  0  0  0  0
    6.6116   -1.7598   -0.0227 C   0  0  0  0  0  0  0  0  0  0  0  0
    7.1455   -2.3805    1.0316 C   0  0  0  0  0  0  0  0  0  0  0  0
    7.4649   -3.7865    1.0448 C   0  0  0  0  0  0  0  0  0  0  0  0
    7.1257   -4.4882   -0.0991 O   0  0  0  0  0  0  0  0  0  0  0  0
    7.5182   -5.7941    0.1445 C   0  0  0  0  0  0  0  0  0  0  0  0
    7.2598   -6.7173   -0.9159 N   0  0  0  0  0  0  0  0  0  0  0  0
    6.7088   -6.3045   -1.9214 O   0  0  0  0  0  0  0  0  0  0  0  0
    7.6111   -7.8730   -0.7389 O   0  0  0  0  0  0  0  0  0  0  0  0
    8.0862   -5.9273    1.3912 C   0  0  0  0  0  0  0  0  0  0  0  0
    8.0500   -4.6226    1.9740 C   0  0  0  0  0  0  0  0  0  0  0  0
    3.7697   -0.0016   -1.2097 C   0  0  0  0  0  0  0  0  0  0  0  0
    2.3752    0.0043   -1.2189 C   0  0  0  0  0  0  0  0  0  0  0  0
    1.8274    0.0089    2.1624 H   0  0  0  0  0  0  0  0  0  0  0  0
    4.3048    0.0177    2.1691 H   0  0  0  0  0  0  0  0  0  0  0  0
    6.4014   -2.2697   -0.9650 H   0  0  0  0  0  0  0  0  0  0  0  0
    7.3846   -1.8535    1.9738 H   0  0  0  0  0  0  0  0  0  0  0  0
    8.4802   -6.8225    1.8426 H   0  0  0  0  0  0  0  0  0  0  0  0
    8.4173   -4.3642    2.9483 H   0  0  0  0  0  0  0  0  0  0  0  0
    4.3079    0.0216   -2.1662 H   0  0  0  0  0  0  0  0  0  0  0  0
    1.8294    0.0163   -2.1623 H   0  0  0  0  0  0  0  0  0  0  0  0
  2  1  1  0  0  0  0
  2  3  2  0  0  0  0
  3 21  1  0  0  0  0
  4  3  1  0  0  0  0
  4 22  1  0  0  0  0
  5  6  1  0  0  0  0
  5  4  2  0  0  0  0
  6  8  2  0  0  0  0
  7  6  2  0  0  0  0
  9  6  1  0  0  0  0
  9 10  2  0  0  0  0
 10 11  1  0  0  0  0
 10 24  1  0  0  0  0
 11 18  2  0  0  0  0
 12 13  1  0  0  0  0
 12 11  1  0  0  0  0
 13 17  2  0  0  0  0
 14 16  2  0  0  0  0
 14 13  1  0  0  0  0
 15 14  2  0  0  0  0
 17 25  1  0  0  0  0
 17 18  1  0  0  0  0
 18 26  1  0  0  0  0
 19  5  1  0  0  0  0
 20 19  2  0  0  0  0
 20  2  1  0  0  0  0
 23  9  1  0  0  0  0
 27 19  1  0  0  0  0
 28 20  1  0  0  0  0
M  END
$$$$
