
     RDKit          3D

 28 29  0  0  0  0  0  0  0  0999 V2000
   -0.0955    0.2862   -0.0950 Cl  0  0  0  0  0  0  0  0  0  0  0  0
    1.6415    0.1801   -0.0515 C   0  0  0  0  0  0  0  0  0  0  0  0
    2.3099    0.3581    1.1650 C   0  0  0  0  0  0  0  0  0  0  0  0
    3.7012    0.2721    1.1982 C   0  0  0  0  0  0  0  0  0  0  0  0
    4.3959    0.0034    0.0168 C   0  0  0  0  0  0  0  0  0  0  0  0
    6.1830   -0.1092    0.0653 S   0  0  0  0  0  0  0  0  0  0  0  0
    6.6944    0.2358   -1.2700 O   0  0  0  0  0  0  0  0  0  0  0  0
    6.6412    0.5837    1.2750 O   0  0  0  0  0  0  0  0  0  0  0  0
    6.4769   -1.8488    0.3200 C   0  0  0  0  0  0  0  0  0  0  0  0
    7.1452   -2.5442   -0.6138 C   0  0  0  0  0  0  0  0  0  0  0  0
    7.5045   -3.9333   -0.5065 C   0  0  0  0  0  0  0  0  0  0  0  0
    7.1353   -4.6214    0.6100 O   0  0  0  0  0  0  0  0  0  0  0  0
    7.5850   -5.8784    0.4607 C   0  0  0  0  0  0  0  0  0  0  0  0
    7.3151   -6.8143    1.5172 N   0  0  0  0  0  0  0  0  0  0  0  0
    6.6901   -6.4128    2.4836 O   0  0  0  0  0  0  0  0  0  0  0  0
    7.7443   -7.9471    1.3444 O   0  0  0  0  0  0  0  0  0  0  0  0
    8.2466   -6.0479   -0.7291 C   0  0  0  0  0  0  0  0  0  0  0  0
    8.1931   -4.7757   -1.3618 C   0  0  0  0  0  0  0  0  0  0  0  0
    3.7327   -0.1618   -1.2018 C   0  0  0  0  0  0  0  0  0  0  0  0
    2.3425   -0.0753   -1.2368 C   0  0  0  0  0  0  0  0  0  0  0  0
    1.7400    0.5688    2.0707 H   0  0  0  0  0  0  0  0  0  0  0  0
    4.2539    0.4265    2.1265 H   0  0  0  0  0  0  0  0  0  0  0  0
    6.1378   -2.2532    1.2761 H   0  0  0  0  0  0  0  0  0  0  0  0
    7.4514   -2.0292   -1.5294 H   0  0  0  0  0  0  0  0  0  0  0  0
    8.7003   -6.9706   -1.0781 H   0  0  0  0  0  0  0  0  0  0  0  0
    8.6085   -4.4988   -2.3280 H   0  0  0  0  0  0  0  0  0  0  0  0
    4.3081   -0.3414   -2.1113 H   0  0  0  0  0  0  0  0  0  0  0  0
    1.7965   -0.1961   -2.1731 H   0  0  0  0  0  0  0  0  0  0  0  0
  1  2  1  0
  2  3  2  0
  2 20  1  0
  3  4  1  0
  3 21  1  0
  4  5  2  0
  4 22  1  0
  5  6  1  0
  5 19  1  0
  6  7  2  0
  6  8  2  0
  6  9  1  0
  9 10  2  0
  9 23  1  0
 10 11  1  0
 10 24  1  0
 11 12  1  0
 11 18  2  0
 12 13  1  0
 13 14  1  0
 13 17  2  0
 14 15  1  0
 14 16  2  0
 17 18  1  0
 17 25  1  0
 18 26  1  0
 19 20  2  0
 19 27  1  0
 20 28  1  0
M  CHG  2  14   1  15  -1
M  END

