rmsd151.gzmat
 OpenBabel08211713403D

 28 29  0  0  0  0  0  0  0  0999 V2000
    0.0000    0.0000    0.0000 Cl  0  0  0  0  0  0  0  0  0  0  0  0
    1.7087    0.0000    0.0000 C   0  0  0  0  0  0  0  0  0  0  0  0
    2.3758    0.0000    1.2189 C   0  0  0  0  0  0  0  0  0  0  0  0
    3.7702   -0.0049    1.2097 C   0  0  0  0  0  0  0  0  0  0  0  0
    4.4592   -0.0198   -0.0021 C   0  0  0  0  0  0  0  0  0  0  0  0
    6.2253   -0.0361   -0.0063 S   0  0  0  0  0  0  0  0  0  0  0  0
    6.6712    0.4363   -1.3006 O   0  0  0  0  0  0  0  0  0  0  0  0
    6.6828    0.5651    1.2239 O   0  0  0  0  0  0  0  0  0  0  0  0
    6.6064   -1.7618    0.0632 C   0  0  0  0  0  0  0  0  0  0  0  0
    7.1853   -2.3986   -0.9573 C   0  0  0  0  0  0  0  0  0  0  0  0
    7.4903   -3.8078   -0.9364 C   0  0  0  0  0  0  0  0  0  0  0  0
    6.9786   -4.5113    0.1405 O   0  0  0  0  0  0  0  0  0  0  0  0
    7.3865   -5.8208   -0.0531 C   0  0  0  0  0  0  0  0  0  0  0  0
    6.9678   -6.7461    0.9529 N   0  0  0  0  0  0  0  0  0  0  0  0
    6.2863   -6.3305    1.8735 O   0  0  0  0  0  0  0  0  0  0  0  0
    7.3270   -7.9055    0.8211 O   0  0  0  0  0  0  0  0  0  0  0  0
    8.1281   -5.9548   -1.2048 C   0  0  0  0  0  0  0  0  0  0  0  0
    8.1947   -4.6462   -1.7765 C   0  0  0  0  0  0  0  0  0  0  0  0
    3.7678   -0.0014   -1.2124 C   0  0  0  0  0  0  0  0  0  0  0  0
    2.3736    0.0049   -1.2200 C   0  0  0  0  0  0  0  0  0  0  0  0
    1.8298    0.0072    2.1622 H   0  0  0  0  0  0  0  0  0  0  0  0
    4.3085    0.0148    2.1661 H   0  0  0  0  0  0  0  0  0  0  0  0
    6.3499   -2.2600    1.0002 H   0  0  0  0  0  0  0  0  0  0  0  0
    7.4747   -1.8857   -1.8927 H   0  0  0  0  0  0  0  0  0  0  0  0
    8.5706   -6.8535   -1.6012 H   0  0  0  0  0  0  0  0  0  0  0  0
    8.7058   -4.3871   -2.6837 H   0  0  0  0  0  0  0  0  0  0  0  0
    4.3042    0.0207   -2.1693 H   0  0  0  0  0  0  0  0  0  0  0  0
    1.8268    0.0186   -2.1625 H   0  0  0  0  0  0  0  0  0  0  0  0
  1  2  1  0  0  0  0
  2  3  2  0  0  0  0
  3 21  1  0  0  0  0
  4  3  1  0  0  0  0
  4 22  1  0  0  0  0
  5  4  2  0  0  0  0
  6  5  1  0  0  0  0
  6  9  1  0  0  0  0
  6  8  2  0  0  0  0
  7  6  2  0  0  0  0
  9 23  1  0  0  0  0
 10 11  1  0  0  0  0
 10  9  2  0  0  0  0
 11 12  1  0  0  0  0
 13 12  1  0  0  0  0
 13 14  1  0  0  0  0
 14 15  2  0  0  0  0
 16 14  2  0  0  0  0
 17 13  2  0  0  0  0
 18 17  1  0  0  0  0
 18 11  2  0  0  0  0
 19  5  1  0  0  0  0
 20 19  2  0  0  0  0
 20  2  1  0  0  0  0
 24 10  1  0  0  0  0
 25 17  1  0  0  0  0
 26 18  1  0  0  0  0
 27 19  1  0  0  0  0
 28 20  1  0  0  0  0
M  END
$$$$
