28
rmsd115.gzmat
Cl         0.00000        0.00000        0.00000
C          1.70870        0.00000        0.00000
C          2.37500        0.00000        1.21910
C          3.76960       -0.00320        1.20980
C          4.45890       -0.01390       -0.00160
S          6.22440       -0.00830       -0.00390
O          6.66470        0.59160       -1.24130
O          6.67080        0.48100        1.28400
C          6.64390       -1.72550       -0.06620
C          7.32390       -2.32040        0.91640
C          7.69060       -3.71480        0.89110
O          7.14990       -4.45500       -0.14590
C          7.63680       -5.74000        0.03080
N          7.20610       -6.69260       -0.94390
O          6.50420       -6.30380       -1.86110
O          7.57690       -7.84580       -0.79210
C          8.45670       -5.82310        1.13340
C          8.48940       -4.50690        1.69090
C          3.76820        0.00280       -1.21260
C          2.37380        0.00530       -1.21990
H          1.82910        0.00890        2.16200
H          4.30800        0.01700        2.16580
H          6.33210       -2.25200       -0.97020
H          7.66020       -1.77940        1.81990
H          8.97320       -6.69190        1.50660
H          9.03940       -4.21260        2.56350
H          4.30490        0.02900       -2.16990
H          1.82620        0.01680       -2.16220
