28

Cl        -0.09550        0.28620       -0.09500
C          1.64150        0.18010       -0.05150
C          2.30990        0.35810        1.16500
C          3.70120        0.27210        1.19820
C          4.39590        0.00340        0.01680
S          6.18300       -0.10920        0.06530
O          6.69440        0.23580       -1.27000
O          6.64120        0.58370        1.27500
C          6.47690       -1.84880        0.32000
C          7.14520       -2.54420       -0.61380
C          7.50450       -3.93330       -0.50650
O          7.13530       -4.62140        0.61000
C          7.58500       -5.87840        0.46070
N          7.31510       -6.81430        1.51720
O          6.69010       -6.41280        2.48360
O          7.74430       -7.94710        1.34440
C          8.24660       -6.04790       -0.72910
C          8.19310       -4.77570       -1.36180
C          3.73270       -0.16180       -1.20180
C          2.34250       -0.07530       -1.23680
H          1.74000        0.56880        2.07070
H          4.25390        0.42650        2.12650
H          6.13780       -2.25320        1.27610
H          7.45140       -2.02920       -1.52940
H          8.70030       -6.97060       -1.07810
H          8.60850       -4.49880       -2.32800
H          4.30810       -0.34140       -2.11130
H          1.79650       -0.19610       -2.17310
