
     RDKit          3D

 24 25  0  0  0  0  0  0  0  0999 V2000
    0.1857   -0.2313   -0.0580 N   0  0  0  0  0  0  0  0  0  0  0  0
    1.5028   -0.0333   -0.0202 C   0  0  0  0  0  0  0  0  0  0  0  0
    2.2779    0.0572    1.0475 N   0  0  0  0  0  0  0  0  0  0  0  0
    1.6854   -0.0637    2.2444 C   0  0  0  0  0  0  0  0  0  0  0  0
    0.2887   -0.2777    2.3385 C   0  0  0  0  0  0  0  0  0  0  0  0
   -0.4044   -0.3501    1.1389 C   0  0  0  0  0  0  0  0  0  0  0  0
    2.4904    0.0111    3.3352 N   0  0  0  0  0  0  0  0  0  0  0  0
    2.2153    0.0776   -1.6580 S   0  0  0  0  0  0  0  0  0  0  0  0
    4.2227    0.4248   -1.2794 S   0  0  0  0  0  0  0  0  0  0  0  0
    4.8120   -1.1642   -0.7048 C   0  0  0  0  0  0  0  0  0  0  0  0
    6.1159   -1.1470   -0.4309 N   0  0  0  0  0  0  0  0  0  0  0  0
    6.6137   -2.3020    0.0305 C   0  0  0  0  0  0  0  0  0  0  0  0
    5.8435   -3.4406    0.2179 C   0  0  0  0  0  0  0  0  0  0  0  0
    4.4704   -3.3306   -0.1108 C   0  0  0  0  0  0  0  0  0  0  0  0
    3.9704   -2.1759   -0.5744 N   0  0  0  0  0  0  0  0  0  0  0  0
    3.5966   -4.3589    0.0385 N   0  0  0  0  0  0  0  0  0  0  0  0
   -0.2160   -0.3822    3.3002 H   0  0  0  0  0  0  0  0  0  0  0  0
   -1.4886   -0.5117    1.1364 H   0  0  0  0  0  0  0  0  0  0  0  0
    3.4594    0.2627    3.1861 H   0  0  0  0  0  0  0  0  0  0  0  0
    2.1031    0.0674    4.2656 H   0  0  0  0  0  0  0  0  0  0  0  0
    7.6851   -2.3157    0.2619 H   0  0  0  0  0  0  0  0  0  0  0  0
    6.2734   -4.3680    0.5995 H   0  0  0  0  0  0  0  0  0  0  0  0
    2.6553   -4.2284   -0.3103 H   0  0  0  0  0  0  0  0  0  0  0  0
    3.9204   -5.2914    0.2488 H   0  0  0  0  0  0  0  0  0  0  0  0
  1  2  2  0
  1  6  1  0
  2  3  1  0
  2  8  1  0
  3  4  2  0
  4  5  1  0
  4  7  1  0
  5  6  2  0
  5 17  1  0
  6 18  1  0
  7 19  1  0
  7 20  1  0
  8  9  1  0
  9 10  1  0
 10 11  2  0
 10 15  1  0
 11 12  1  0
 12 13  2  0
 12 21  1  0
 13 14  1  0
 13 22  1  0
 14 15  2  0
 14 16  1  0
 16 23  1  0
 16 24  1  0
M  END

