24
rmsd195.gzmat
N          0.00000        0.00000        0.00000
C          1.35250        0.00000        0.00000
N          2.14130        0.00000        1.08850
C          1.50690       -0.01500        2.30480
C          0.09250       -0.02990        2.40090
C         -0.61700       -0.01990        1.20080
N          2.32790       -0.01990        3.39860
S          2.21690       -0.00050       -1.55620
S          0.91390        0.14070       -3.04750
C          0.23870       -1.47000       -3.38920
N         -0.53360       -1.55720       -4.49800
C         -1.07550       -2.76410       -4.76950
C         -0.86600       -3.87920       -3.95920
C         -0.04250       -3.69360       -2.82050
N          0.51850       -2.47290       -2.54190
N          0.26620       -4.69740       -1.94490
H         -0.41000       -0.04800        3.35580
H         -1.71450       -0.02430        1.17050
H          3.32270        0.00930        3.27920
H          1.95990        0.00160        4.32260
H         -1.69420       -2.81060       -5.67510
H         -1.30680       -4.83700       -4.18860
H          0.82090       -4.49280       -1.13430
H         -0.15230       -5.59680       -2.02070
