rmsd173.gzmat
 OpenBabel08211713373D

 24 25  0  0  0  0  0  0  0  0999 V2000
    0.0000    0.0000    0.0000 N   0  0  0  0  0  0  0  0  0  0  0  0
    1.3535    0.0000    0.0000 C   0  0  0  0  0  0  0  0  0  0  0  0
    2.1420    0.0000    1.0869 N   0  0  0  0  0  0  0  0  0  0  0  0
    1.5164    0.0113    2.3074 C   0  0  0  0  0  0  0  0  0  0  0  0
    0.1019    0.0188    2.4051 C   0  0  0  0  0  0  0  0  0  0  0  0
   -0.6088    0.0109    1.2061 C   0  0  0  0  0  0  0  0  0  0  0  0
    2.3462    0.0002    3.3934 N   0  0  0  0  0  0  0  0  0  0  0  0
    2.1366    0.0192   -1.5984 S   0  0  0  0  0  0  0  0  0  0  0  0
    4.0955   -0.2147   -1.3440 S   0  0  0  0  0  0  0  0  0  0  0  0
    4.8267    1.3443   -0.8902 C   0  0  0  0  0  0  0  0  0  0  0  0
    4.0362    2.4384   -0.8043 N   0  0  0  0  0  0  0  0  0  0  0  0
    4.6249    3.5990   -0.4449 C   0  0  0  0  0  0  0  0  0  0  0  0
    5.9899    3.6878   -0.1764 C   0  0  0  0  0  0  0  0  0  0  0  0
    6.7422    2.4930   -0.3016 C   0  0  0  0  0  0  0  0  0  0  0  0
    6.1515    1.3093   -0.6650 N   0  0  0  0  0  0  0  0  0  0  0  0
    8.0885    2.4338   -0.0669 N   0  0  0  0  0  0  0  0  0  0  0  0
   -0.3994    0.0287    3.3608 H   0  0  0  0  0  0  0  0  0  0  0  0
   -1.7064    0.0130    1.1810 H   0  0  0  0  0  0  0  0  0  0  0  0
    3.3404    0.0239    3.2569 H   0  0  0  0  0  0  0  0  0  0  0  0
    1.9896    0.0473    4.3204 H   0  0  0  0  0  0  0  0  0  0  0  0
    3.9590    4.4698   -0.3815 H   0  0  0  0  0  0  0  0  0  0  0  0
    6.4511    4.6198    0.1124 H   0  0  0  0  0  0  0  0  0  0  0  0
    8.5799    1.5680   -0.1823 H   0  0  0  0  0  0  0  0  0  0  0  0
    8.6078    3.2468    0.1753 H   0  0  0  0  0  0  0  0  0  0  0  0
  1  2  2  0  0  0  0
  1  6  2  0  0  0  0
  2  3  2  0  0  0  0
  3  4  2  0  0  0  0
  4  5  1  0  0  0  0
  4  7  1  0  0  0  0
  5 17  1  0  0  0  0
  6  5  1  0  0  0  0
  7 20  1  0  0  0  0
  8  9  1  0  0  0  0
  8  2  1  0  0  0  0
  9 10  1  0  0  0  0
 10 11  2  0  0  0  0
 10 15  2  0  0  0  0
 11 12  2  0  0  0  0
 12 21  1  0  0  0  0
 12 13  1  0  0  0  0
 13 22  1  0  0  0  0
 14 13  1  0  0  0  0
 14 16  1  0  0  0  0
 15 14  2  0  0  0  0
 16 24  1  0  0  0  0
 18  6  1  0  0  0  0
 19  7  1  0  0  0  0
 23 16  1  0  0  0  0
M  RAD  2   5   2  13   2
M  END
$$$$
