24

N          0.18570       -0.23130       -0.05800
C          1.50280       -0.03330       -0.02020
N          2.27790        0.05720        1.04750
C          1.68540       -0.06370        2.24440
C          0.28870       -0.27770        2.33850
C         -0.40440       -0.35010        1.13890
N          2.49040        0.01110        3.33520
S          2.21530        0.07760       -1.65800
S          4.22270        0.42480       -1.27940
C          4.81200       -1.16420       -0.70480
N          6.11590       -1.14700       -0.43090
C          6.61370       -2.30200        0.03050
C          5.84350       -3.44060        0.21790
C          4.47040       -3.33060       -0.11080
N          3.97040       -2.17590       -0.57440
N          3.59660       -4.35890        0.03850
H         -0.21600       -0.38220        3.30020
H         -1.48860       -0.51170        1.13640
H          3.45940        0.26270        3.18610
H          2.10310        0.06740        4.26560
H          7.68510       -2.31570        0.26190
H          6.27340       -4.36800        0.59950
H          2.65530       -4.22840       -0.31030
H          3.92040       -5.29140        0.24880
