24
rmsd173.gzmat
N          0.00000        0.00000        0.00000
C          1.35350        0.00000        0.00000
N          2.14200        0.00000        1.08690
C          1.51640        0.01130        2.30740
C          0.10190        0.01880        2.40510
C         -0.60880        0.01090        1.20610
N          2.34620        0.00020        3.39340
S          2.13660        0.01920       -1.59840
S          4.09550       -0.21470       -1.34400
C          4.82670        1.34430       -0.89020
N          4.03620        2.43840       -0.80430
C          4.62490        3.59900       -0.44490
C          5.98990        3.68780       -0.17640
C          6.74220        2.49300       -0.30160
N          6.15150        1.30930       -0.66500
N          8.08850        2.43380       -0.06690
H         -0.39940        0.02870        3.36080
H         -1.70640        0.01300        1.18100
H          3.34040        0.02390        3.25690
H          1.98960        0.04730        4.32040
H          3.95900        4.46980       -0.38150
H          6.45110        4.61980        0.11240
H          8.57990        1.56800       -0.18230
H          8.60780        3.24680        0.17530
