35
rmsd169.gzmat
S          0.00000        0.00000        0.00000
C          1.72970        0.00000        0.00000
C          2.68920        0.00000        0.98700
O          3.96130        0.02150        0.41480
C          3.77810        0.03310       -0.95050
C          2.43830        0.02650       -1.25640
C          5.00220        0.04410       -1.71720
C          6.19310       -0.41580       -1.14270
C          7.36670       -0.41610       -1.89080
C          7.35760        0.04410       -3.20710
C          6.17290        0.50750       -3.77790
C          4.99520        0.51220       -3.03560
C          2.73390       -0.02420        2.44390
O          1.79330       -0.39950        3.10850
C          3.99980        0.41110        3.08260
C          4.42460       -0.25180        4.23560
C          5.61120        0.13330        4.85560
C          6.36490        1.18050        4.32720
C          5.93130        1.85060        3.18390
C          4.74460        1.47020        2.56170
C         -0.54010        0.10850        1.72530
H          1.99250        0.03200       -2.23060
H          6.20050       -0.77630       -0.11280
H          8.29210       -0.78000       -1.44760
H          8.27740        0.04310       -3.78910
H          6.16800        0.86510       -4.80600
H          4.07160        0.88280       -3.47790
H          3.82210       -1.06450        4.64610
H          5.94730       -0.37920        5.75430
H          7.29310        1.47860        4.81100
H          6.51870        2.67080        2.77640
H          4.40220        2.00300        1.67360
H         -1.62850        0.23890        1.72970
H         -0.09100        0.95250        2.26280
H         -0.30110       -0.80060        2.29780
