35
rmsd116.gzmat
S          0.00000        0.00000        0.00000
C          1.73170        0.00000        0.00000
C          2.69020        0.00000        0.98910
O          3.96220       -0.03590        0.41780
C          3.78060       -0.07080       -0.94730
C          2.44030       -0.05450       -1.25410
C          5.00120       -0.10850       -1.71760
C          4.95350       -0.43300       -3.07820
C          6.12850       -0.46820       -3.82360
C          7.35080       -0.18090       -3.21710
C          7.39980        0.14160       -1.86140
C          6.22910        0.17880       -1.10950
C          2.72900        0.01890        2.44560
O          1.74920        0.26690        3.11240
C          4.04000       -0.25530        3.08490
C          4.86130       -1.28890        2.63390
C          6.08830       -1.51430        3.25380
C          6.48710       -0.71290        4.32290
C          5.65690        0.30870        4.78170
C          4.42790        0.53620        4.16650
C         -0.53620        0.58950        1.62660
H          1.99410       -0.06690       -2.22830
H          3.99890       -0.65910       -3.55170
H          6.09170       -0.72050       -4.88190
H          8.26770       -0.20820       -3.80320
H          8.35500        0.36650       -1.38940
H          6.26910        0.43450       -0.04910
H          4.54610       -1.92170        1.80340
H          6.73450       -2.31620        2.90260
H          7.44790       -0.88780        4.80370
H          5.96560        0.92640        5.62210
H          3.76560        1.32490        4.52730
H         -1.59380        0.86930        1.55520
H          0.02830        1.46740        1.96890
H         -0.43220       -0.17970        2.40490
