rmsd200.gzmat
 OpenBabel08211713403D

 35 37  0  0  0  0  0  0  0  0999 V2000
    0.0000    0.0000    0.0000 S   0  0  0  0  0  0  0  0  0  0  0  0
    1.7295    0.0000    0.0000 C   0  0  0  0  0  0  0  0  0  0  0  0
    2.6969    0.0000    0.9796 C   0  0  0  0  0  0  0  0  0  0  0  0
    3.9646   -0.0334    0.3962 O   0  0  0  0  0  0  0  0  0  0  0  0
    3.7712   -0.0500   -0.9671 C   0  0  0  0  0  0  0  0  0  0  0  0
    2.4280   -0.0351   -1.2614 C   0  0  0  0  0  0  0  0  0  0  0  0
    4.9836   -0.0812   -1.7508 C   0  0  0  0  0  0  0  0  0  0  0  0
    4.9061   -0.2187   -3.1415 C   0  0  0  0  0  0  0  0  0  0  0  0
    6.0718   -0.2572   -3.9009 C   0  0  0  0  0  0  0  0  0  0  0  0
    7.3156   -0.1575   -3.2790 C   0  0  0  0  0  0  0  0  0  0  0  0
    7.3948   -0.0154   -1.8942 C   0  0  0  0  0  0  0  0  0  0  0  0
    6.2334    0.0239   -1.1280 C   0  0  0  0  0  0  0  0  0  0  0  0
    2.7577    0.0397    2.4348 C   0  0  0  0  0  0  0  0  0  0  0  0
    1.8072    0.3615    3.1126 O   0  0  0  0  0  0  0  0  0  0  0  0
    4.0603   -0.3060    3.0560 C   0  0  0  0  0  0  0  0  0  0  0  0
    4.5070    0.4602    4.1336 C   0  0  0  0  0  0  0  0  0  0  0  0
    5.7324    0.1661    4.7274 C   0  0  0  0  0  0  0  0  0  0  0  0
    6.4976   -0.8991    4.2541 C   0  0  0  0  0  0  0  0  0  0  0  0
    6.0402   -1.6743    3.1892 C   0  0  0  0  0  0  0  0  0  0  0  0
    4.8185   -1.3804    2.5880 C   0  0  0  0  0  0  0  0  0  0  0  0
   -0.5498    0.0953    1.7211 C   0  0  0  0  0  0  0  0  0  0  0  0
    1.9727   -0.0425   -2.2313 H   0  0  0  0  0  0  0  0  0  0  0  0
    3.9351   -0.2957   -3.6288 H   0  0  0  0  0  0  0  0  0  0  0  0
    6.0109   -0.3651   -4.9824 H   0  0  0  0  0  0  0  0  0  0  0  0
    8.2252   -0.1900   -3.8759 H   0  0  0  0  0  0  0  0  0  0  0  0
    8.3668    0.0662   -1.4102 H   0  0  0  0  0  0  0  0  0  0  0  0
    6.2985    0.1386   -0.0447 H   0  0  0  0  0  0  0  0  0  0  0  0
    3.8929    1.2821    4.5061 H   0  0  0  0  0  0  0  0  0  0  0  0
    6.0901    0.7657    5.5613 H   0  0  0  0  0  0  0  0  0  0  0  0
    7.4543   -1.1286    4.7199 H   0  0  0  0  0  0  0  0  0  0  0  0
    6.6365   -2.5091    2.8265 H   0  0  0  0  0  0  0  0  0  0  0  0
    4.4579   -1.9908    1.7591 H   0  0  0  0  0  0  0  0  0  0  0  0
   -1.6465    0.0918    1.7261 H   0  0  0  0  0  0  0  0  0  0  0  0
   -0.2079    1.0127    2.2224 H   0  0  0  0  0  0  0  0  0  0  0  0
   -0.2003   -0.7497    2.3277 H   0  0  0  0  0  0  0  0  0  0  0  0
  1  2  1  0  0  0  0
  1 21  1  0  0  0  0
  2  3  2  0  0  0  0
  3 13  1  0  0  0  0
  4  3  1  0  0  0  0
  5  4  1  0  0  0  0
  6  5  2  0  0  0  0
  6  2  1  0  0  0  0
  7 12  1  0  0  0  0
  7  5  1  0  0  0  0
  8  7  2  0  0  0  0
  9 10  2  0  0  0  0
  9  8  1  0  0  0  0
 10 11  1  0  0  0  0
 11 26  1  0  0  0  0
 11 12  2  0  0  0  0
 12 27  1  0  0  0  0
 13 15  1  0  0  0  0
 13 14  2  0  0  0  0
 15 16  1  0  0  0  0
 16 28  1  0  0  0  0
 16 17  2  0  0  0  0
 17 29  1  0  0  0  0
 18 30  1  0  0  0  0
 18 17  1  0  0  0  0
 19 18  2  0  0  0  0
 20 15  2  0  0  0  0
 20 19  1  0  0  0  0
 21 33  1  0  0  0  0
 21 34  1  0  0  0  0
 21 35  1  0  0  0  0
 22  6  1  0  0  0  0
 23  8  1  0  0  0  0
 24  9  1  0  0  0  0
 25 10  1  0  0  0  0
 31 19  1  0  0  0  0
 32 20  1  0  0  0  0
M  END
$$$$
