35
rmsd159.gzmat
S          0.00000        0.00000        0.00000
C          1.72940        0.00000        0.00000
C          2.69770        0.00000        0.97950
O          3.96490        0.02610        0.39400
C          3.77020        0.03530       -0.96890
C          2.42660        0.02200       -1.26200
C          4.98300        0.06000       -1.75220
C          6.23180       -0.00560       -1.12230
C          7.39550        0.02130       -1.88520
C          7.31930        0.11210       -3.27460
C          6.07660        0.17660       -3.90360
C          4.90860        0.15160       -3.14730
C          2.76210       -0.04910        2.43340
O          1.79190       -0.28560        3.11840
C          4.09700        0.17290        3.04420
C          4.52210       -0.69460        4.05130
C          5.77540       -0.51360        4.63210
C          6.59240        0.53580        4.21360
C          6.15710        1.41030        3.21840
C          4.90620        1.23220        2.63210
C         -0.54890        0.04180        1.72350
H          1.97080        0.02370       -2.23160
H          6.29420       -0.08040       -0.03520
H          8.36630       -0.02960       -1.39510
H          8.23100        0.13260       -3.86920
H          6.01910        0.24690       -4.98850
H          3.93860        0.20380       -3.63990
H          3.87130       -1.50610        4.38000
H          6.11380       -1.18910        5.41480
H          7.57110        0.67550        4.66880
H          6.79240        2.23380        2.89960
H          4.56310        1.91950        1.85810
H         -1.64250        0.12330        1.72790
H         -0.13880        0.89310        2.28180
H         -0.26960       -0.86790        2.27530
