
     RDKit          3D

 35 37  0  0  0  0  0  0  0  0999 V2000
    0.1049    0.4717    0.1797 S   0  0  0  0  0  0  0  0  0  0  0  0
    1.8417    0.2879    0.0245 C   0  0  0  0  0  0  0  0  0  0  0  0
    2.8725    0.2165    0.9627 C   0  0  0  0  0  0  0  0  0  0  0  0
    4.0643    0.0912    0.2877 O   0  0  0  0  0  0  0  0  0  0  0  0
    3.8236    0.1064   -1.0421 C   0  0  0  0  0  0  0  0  0  0  0  0
    2.4677    0.2208   -1.2585 C   0  0  0  0  0  0  0  0  0  0  0  0
    4.9708   -0.0115   -1.9335 C   0  0  0  0  0  0  0  0  0  0  0  0
    4.7906   -0.0561   -3.3287 C   0  0  0  0  0  0  0  0  0  0  0  0
    5.8887   -0.1675   -4.1789 C   0  0  0  0  0  0  0  0  0  0  0  0
    7.1834   -0.2364   -3.6530 C   0  0  0  0  0  0  0  0  0  0  0  0
    7.3711   -0.1919   -2.2683 C   0  0  0  0  0  0  0  0  0  0  0  0
    6.2765   -0.0798   -1.4120 C   0  0  0  0  0  0  0  0  0  0  0  0
    2.9072    0.3986    2.4134 C   0  0  0  0  0  0  0  0  0  0  0  0
    1.9075    0.7897    3.0096 O   0  0  0  0  0  0  0  0  0  0  0  0
    4.1800    0.1509    3.1718 C   0  0  0  0  0  0  0  0  0  0  0  0
    4.3395    0.8433    4.3840 C   0  0  0  0  0  0  0  0  0  0  0  0
    5.4709    0.6424    5.1721 C   0  0  0  0  0  0  0  0  0  0  0  0
    6.4496   -0.2730    4.7700 C   0  0  0  0  0  0  0  0  0  0  0  0
    6.2882   -0.9848    3.5781 C   0  0  0  0  0  0  0  0  0  0  0  0
    5.1639   -0.7718    2.7778 C   0  0  0  0  0  0  0  0  0  0  0  0
   -0.3283   -0.5722    1.6057 C   0  0  0  0  0  0  0  0  0  0  0  0
    1.9544    0.2372   -2.2159 H   0  0  0  0  0  0  0  0  0  0  0  0
    3.7842   -0.0056   -3.7487 H   0  0  0  0  0  0  0  0  0  0  0  0
    5.7342   -0.2016   -5.2598 H   0  0  0  0  0  0  0  0  0  0  0  0
    8.0428   -0.3237   -4.3216 H   0  0  0  0  0  0  0  0  0  0  0  0
    8.3797   -0.2426   -1.8513 H   0  0  0  0  0  0  0  0  0  0  0  0
    6.4223   -0.0388   -0.3317 H   0  0  0  0  0  0  0  0  0  0  0  0
    3.5538    1.5362    4.6893 H   0  0  0  0  0  0  0  0  0  0  0  0
    5.5900    1.1964    6.1063 H   0  0  0  0  0  0  0  0  0  0  0  0
    7.3351   -0.4360    5.3892 H   0  0  0  0  0  0  0  0  0  0  0  0
    7.0417   -1.7134    3.2696 H   0  0  0  0  0  0  0  0  0  0  0  0
    5.0462   -1.3375    1.8548 H   0  0  0  0  0  0  0  0  0  0  0  0
   -1.4268   -0.5681    1.6415 H   0  0  0  0  0  0  0  0  0  0  0  0
    0.0931   -0.1530    2.5276 H   0  0  0  0  0  0  0  0  0  0  0  0
    0.0281   -1.6001    1.4474 H   0  0  0  0  0  0  0  0  0  0  0  0
  1  2  1  0
  1 21  1  0
  2  3  2  0
  2  6  1  0
  3  4  1  0
  3 13  1  0
  4  5  1  0
  5  6  2  0
  5  7  1  0
  6 22  1  0
  7  8  2  0
  7 12  1  0
  8  9  1  0
  8 23  1  0
  9 10  2  0
  9 24  1  0
 10 11  1  0
 10 25  1  0
 11 12  2  0
 11 26  1  0
 12 27  1  0
 13 14  2  0
 13 15  1  0
 15 16  2  0
 15 20  1  0
 16 17  1  0
 16 28  1  0
 17 18  2  0
 17 29  1  0
 18 19  1  0
 18 30  1  0
 19 20  2  0
 19 31  1  0
 20 32  1  0
 21 33  1  0
 21 34  1  0
 21 35  1  0
M  END

