35
rmsd157.gzmat
S          0.00000        0.00000        0.00000
C          1.72950        0.00000        0.00000
C          2.69430        0.00000        0.98320
O          3.96370       -0.00710        0.40180
C          3.77360        0.00020       -0.96160
C          2.43080        0.00240       -1.25940
C          4.98890        0.00080       -1.74120
C          4.91810       -0.05120       -3.13810
C          6.08800       -0.05420       -3.89230
C          7.32890       -0.00670       -3.25860
C          7.40140        0.04800       -1.86710
C          6.23600        0.05410       -1.10620
C          2.75330        0.04720        2.43700
O          1.76920        0.20290        3.12440
C          4.10420       -0.06890        3.04310
C          4.49490        0.87700        3.99110
C          5.76360        0.79530        4.56120
C          6.62790       -0.23460        4.19250
C          6.22620       -1.18820        3.25770
C          4.96120       -1.10730        2.67960
C         -0.53970       -0.24790        1.70970
H          1.97780        0.00640       -2.23050
H          3.94910       -0.08850       -3.63400
H          6.03240       -0.09270       -4.97870
H          8.24240       -0.01080       -3.85070
H          8.37100        0.08780       -1.37390
H          6.29520        0.10340       -0.01740
H          3.80730        1.67160        4.28400
H          6.07670        1.53260        5.29740
H          7.61810       -0.29680        4.63960
H          6.90040       -1.99510        2.97920
H          4.64410       -1.85230        1.94970
H         -1.62310       -0.41550        1.70330
H         -0.33070        0.62480        2.34690
H         -0.06140       -1.11300        2.18690
