35
rmsd162.gzmat
S          0.00000        0.00000        0.00000
C          1.73040        0.00000        0.00000
C          2.68840        0.00000        0.98960
O          3.96110        0.00800        0.41780
C          3.78180        0.01990       -0.94730
C          2.44120        0.01650       -1.25430
C          5.00600        0.01970       -1.71350
C          6.24570       -0.00140       -1.06200
C          7.42080       -0.01460       -1.80750
C          7.36580        0.00120       -3.20060
C          6.13280        0.02780       -3.85080
C          4.95310        0.03490       -3.11200
C          2.73060        0.03890        2.44400
O          1.73290        0.15910        3.11940
C          4.07510       -0.03340        3.06940
C          4.99970       -1.00180        2.67850
C          6.25630       -1.03400        3.27890
C          6.58270       -0.10200        4.26360
C          5.65140        0.85710        4.65980
C          4.39040        0.88840        4.06850
C         -0.53990       -0.39810        1.68280
H          1.99570        0.02270       -2.22860
H          6.29270       -0.00620        0.02860
H          8.38420       -0.03660       -1.30100
H          8.28670       -0.00620       -3.78110
H          6.09200        0.04300       -4.93860
H          3.99060        0.05170       -3.62190
H          4.74250       -1.73250        1.91090
H          6.98110       -1.78800        2.97920
H          7.56670       -0.12560        4.72790
H          5.90700        1.57930        5.43220
H          3.64830        1.62420        4.38250
H         -1.61370       -0.61780        1.65110
H         -0.38070        0.43570        2.38400
H         -0.02270       -1.27140        2.10040
