35
rmsd132.gzmat
S          0.00000        0.00000        0.00000
C          1.72980        0.00000        0.00000
C          2.70060        0.00000        0.97730
O          3.96620       -0.01810        0.38770
C          3.76910       -0.03310       -0.97440
C          2.42450       -0.02240       -1.26400
C          4.98170       -0.06390       -1.75850
C          4.90540       -0.06650       -3.15600
C          6.07160       -0.11070       -3.91460
C          7.31480       -0.15020       -3.28490
C          7.39320       -0.14110       -1.89270
C          6.23130       -0.09680       -1.12760
C          2.76910        0.03550        2.43110
O          1.78480        0.16470        3.12400
C          4.12350       -0.06080        3.03360
C          5.02560       -1.04210        2.62120
C          6.29320       -1.09740        3.19660
C          6.65280       -0.17800        4.18140
C          5.74320        0.79160        4.60170
C          4.47280        0.84860        4.03270
C         -0.56010        0.14850        1.71440
H          1.96640       -0.02770       -2.23280
H          3.93510       -0.03340       -3.64950
H          6.01170       -0.11410       -5.00170
H          8.22480       -0.18680       -3.88120
H          8.36480       -0.16810       -1.40210
H          6.29640       -0.08590       -0.03790
H          4.74170       -1.76590        1.85630
H          7.00080       -1.86010        2.87760
H          7.64520       -0.22000        4.62630
H          6.02340        1.50230        5.37600
H          3.75040        1.59570        4.36550
H         -1.65600        0.19000        1.70860
H         -0.18510        1.05680        2.20540
H         -0.25250       -0.70170        2.33830
