rmsd162.gzmat
 OpenBabel08211713403D

 35 37  0  0  0  0  0  0  0  0999 V2000
    0.0000    0.0000    0.0000 S   0  0  0  0  0  0  0  0  0  0  0  0
    1.7304    0.0000    0.0000 C   0  0  0  0  0  0  0  0  0  0  0  0
    2.6884    0.0000    0.9896 C   0  0  0  0  0  0  0  0  0  0  0  0
    3.9611    0.0080    0.4178 O   0  0  0  0  0  0  0  0  0  0  0  0
    3.7818    0.0199   -0.9473 C   0  0  0  0  0  0  0  0  0  0  0  0
    2.4412    0.0165   -1.2543 C   0  0  0  0  0  0  0  0  0  0  0  0
    5.0060    0.0197   -1.7135 C   0  0  0  0  0  0  0  0  0  0  0  0
    6.2457   -0.0014   -1.0620 C   0  0  0  0  0  0  0  0  0  0  0  0
    7.4208   -0.0146   -1.8075 C   0  0  0  0  0  0  0  0  0  0  0  0
    7.3658    0.0012   -3.2006 C   0  0  0  0  0  0  0  0  0  0  0  0
    6.1328    0.0278   -3.8508 C   0  0  0  0  0  0  0  0  0  0  0  0
    4.9531    0.0349   -3.1120 C   0  0  0  0  0  0  0  0  0  0  0  0
    2.7306    0.0389    2.4440 C   0  0  0  0  0  0  0  0  0  0  0  0
    1.7329    0.1591    3.1194 O   0  0  0  0  0  0  0  0  0  0  0  0
    4.0751   -0.0334    3.0694 C   0  0  0  0  0  0  0  0  0  0  0  0
    4.9997   -1.0018    2.6785 C   0  0  0  0  0  0  0  0  0  0  0  0
    6.2563   -1.0340    3.2789 C   0  0  0  0  0  0  0  0  0  0  0  0
    6.5827   -0.1020    4.2636 C   0  0  0  0  0  0  0  0  0  0  0  0
    5.6514    0.8571    4.6598 C   0  0  0  0  0  0  0  0  0  0  0  0
    4.3904    0.8884    4.0685 C   0  0  0  0  0  0  0  0  0  0  0  0
   -0.5399   -0.3981    1.6828 C   0  0  0  0  0  0  0  0  0  0  0  0
    1.9957    0.0227   -2.2286 H   0  0  0  0  0  0  0  0  0  0  0  0
    6.2927   -0.0062    0.0286 H   0  0  0  0  0  0  0  0  0  0  0  0
    8.3842   -0.0366   -1.3010 H   0  0  0  0  0  0  0  0  0  0  0  0
    8.2867   -0.0062   -3.7811 H   0  0  0  0  0  0  0  0  0  0  0  0
    6.0920    0.0430   -4.9386 H   0  0  0  0  0  0  0  0  0  0  0  0
    3.9906    0.0517   -3.6219 H   0  0  0  0  0  0  0  0  0  0  0  0
    4.7425   -1.7325    1.9109 H   0  0  0  0  0  0  0  0  0  0  0  0
    6.9811   -1.7880    2.9792 H   0  0  0  0  0  0  0  0  0  0  0  0
    7.5667   -0.1256    4.7279 H   0  0  0  0  0  0  0  0  0  0  0  0
    5.9070    1.5793    5.4322 H   0  0  0  0  0  0  0  0  0  0  0  0
    3.6483    1.6242    4.3825 H   0  0  0  0  0  0  0  0  0  0  0  0
   -1.6137   -0.6178    1.6511 H   0  0  0  0  0  0  0  0  0  0  0  0
   -0.3807    0.4357    2.3840 H   0  0  0  0  0  0  0  0  0  0  0  0
   -0.0227   -1.2714    2.1004 H   0  0  0  0  0  0  0  0  0  0  0  0
  1  2  1  0  0  0  0
  1 21  1  0  0  0  0
  2  3  2  0  0  0  0
  3 13  1  0  0  0  0
  4  3  1  0  0  0  0
  5  4  1  0  0  0  0
  6  5  2  0  0  0  0
  6  2  1  0  0  0  0
  7  8  1  0  0  0  0
  7  5  1  0  0  0  0
  8 23  1  0  0  0  0
  9 24  1  0  0  0  0
  9  8  2  0  0  0  0
 10  9  1  0  0  0  0
 11 10  2  0  0  0  0
 11 12  1  0  0  0  0
 12  7  2  0  0  0  0
 13 15  1  0  0  0  0
 13 14  2  0  0  0  0
 15 20  1  0  0  0  0
 16 15  2  0  0  0  0
 16 17  1  0  0  0  0
 17 18  2  0  0  0  0
 18 19  1  0  0  0  0
 18 30  1  0  0  0  0
 19 31  1  0  0  0  0
 20 32  1  0  0  0  0
 20 19  2  0  0  0  0
 21 35  1  0  0  0  0
 21 34  1  0  0  0  0
 22  6  1  0  0  0  0
 25 10  1  0  0  0  0
 26 11  1  0  0  0  0
 27 12  1  0  0  0  0
 28 16  1  0  0  0  0
 29 17  1  0  0  0  0
 33 21  1  0  0  0  0
M  END
$$$$
