35

S          0.07630        0.40340        0.34890
C          1.81300        0.23160        0.11510
C          2.85700        0.13560        1.03530
O          4.03930        0.06950        0.34540
C          3.78460        0.14840       -0.98180
C          2.42370        0.25490       -1.17510
C          4.92390        0.08910       -1.88830
C          4.73910        0.22880       -3.27680
C          5.82920        0.17410       -4.14260
C          7.12020       -0.02010       -3.63960
C          7.31240       -0.16010       -2.26190
C          6.22570       -0.10740       -1.38980
C          2.88500        0.15500        2.49920
O          1.84600        0.00390        3.13410
C          4.18310        0.35230        3.22910
C          4.25140       -0.15860        4.53690
C          5.40180        0.00690        5.30500
C          6.49500        0.70810        4.78460
C          6.42780        1.24220        3.49510
C          5.28250        1.06230        2.71660
C         -0.34520       -1.07970        1.32520
H          1.89540        0.31690       -2.12230
H          3.73610        0.38520       -3.67830
H          5.67150        0.28510       -5.21780
H          7.97340       -0.06250       -4.32040
H          8.31770       -0.31380       -1.86270
H          6.37400       -0.22180       -0.31520
H          3.37980       -0.68260        4.93220
H          5.44680       -0.40650        6.31530
H          7.39630        0.84410        5.38720
H          7.27190        1.80670        3.09180
H          5.24080        1.49240        1.71760
H         -1.43110       -1.02400        1.48720
H          0.18650       -1.05160        2.28390
H         -0.10650       -1.99160        0.76000
