rmsd159.gzmat
 OpenBabel08211713403D

 35 37  0  0  0  0  0  0  0  0999 V2000
    0.0000    0.0000    0.0000 S   0  0  0  0  0  0  0  0  0  0  0  0
    1.7294    0.0000    0.0000 C   0  0  0  0  0  0  0  0  0  0  0  0
    2.6977    0.0000    0.9795 C   0  0  0  0  0  0  0  0  0  0  0  0
    3.9649    0.0261    0.3940 O   0  0  0  0  0  0  0  0  0  0  0  0
    3.7702    0.0353   -0.9689 C   0  0  0  0  0  0  0  0  0  0  0  0
    2.4266    0.0220   -1.2620 C   0  0  0  0  0  0  0  0  0  0  0  0
    4.9830    0.0600   -1.7522 C   0  0  0  0  0  0  0  0  0  0  0  0
    6.2318   -0.0056   -1.1223 C   0  0  0  0  0  0  0  0  0  0  0  0
    7.3955    0.0213   -1.8852 C   0  0  0  0  0  0  0  0  0  0  0  0
    7.3193    0.1121   -3.2746 C   0  0  0  0  0  0  0  0  0  0  0  0
    6.0766    0.1766   -3.9036 C   0  0  0  0  0  0  0  0  0  0  0  0
    4.9086    0.1516   -3.1473 C   0  0  0  0  0  0  0  0  0  0  0  0
    2.7621   -0.0491    2.4334 C   0  0  0  0  0  0  0  0  0  0  0  0
    1.7919   -0.2856    3.1184 O   0  0  0  0  0  0  0  0  0  0  0  0
    4.0970    0.1729    3.0442 C   0  0  0  0  0  0  0  0  0  0  0  0
    4.5221   -0.6946    4.0513 C   0  0  0  0  0  0  0  0  0  0  0  0
    5.7754   -0.5136    4.6321 C   0  0  0  0  0  0  0  0  0  0  0  0
    6.5924    0.5358    4.2136 C   0  0  0  0  0  0  0  0  0  0  0  0
    6.1571    1.4103    3.2184 C   0  0  0  0  0  0  0  0  0  0  0  0
    4.9062    1.2322    2.6321 C   0  0  0  0  0  0  0  0  0  0  0  0
   -0.5489    0.0418    1.7235 C   0  0  0  0  0  0  0  0  0  0  0  0
    1.9708    0.0237   -2.2316 H   0  0  0  0  0  0  0  0  0  0  0  0
    6.2942   -0.0804   -0.0352 H   0  0  0  0  0  0  0  0  0  0  0  0
    8.3663   -0.0296   -1.3951 H   0  0  0  0  0  0  0  0  0  0  0  0
    8.2310    0.1326   -3.8692 H   0  0  0  0  0  0  0  0  0  0  0  0
    6.0191    0.2469   -4.9885 H   0  0  0  0  0  0  0  0  0  0  0  0
    3.9386    0.2038   -3.6399 H   0  0  0  0  0  0  0  0  0  0  0  0
    3.8713   -1.5061    4.3800 H   0  0  0  0  0  0  0  0  0  0  0  0
    6.1138   -1.1891    5.4148 H   0  0  0  0  0  0  0  0  0  0  0  0
    7.5711    0.6755    4.6688 H   0  0  0  0  0  0  0  0  0  0  0  0
    6.7924    2.2338    2.8996 H   0  0  0  0  0  0  0  0  0  0  0  0
    4.5631    1.9195    1.8581 H   0  0  0  0  0  0  0  0  0  0  0  0
   -1.6425    0.1233    1.7279 H   0  0  0  0  0  0  0  0  0  0  0  0
   -0.1388    0.8931    2.2818 H   0  0  0  0  0  0  0  0  0  0  0  0
   -0.2696   -0.8679    2.2753 H   0  0  0  0  0  0  0  0  0  0  0  0
  1  2  1  0  0  0  0
  1 21  1  0  0  0  0
  2  3  2  0  0  0  0
  3 13  1  0  0  0  0
  4  3  1  0  0  0  0
  5  4  1  0  0  0  0
  6  5  2  0  0  0  0
  6  2  1  0  0  0  0
  7  8  1  0  0  0  0
  7  5  1  0  0  0  0
  8 23  1  0  0  0  0
  9 24  1  0  0  0  0
  9  8  2  0  0  0  0
 10  9  1  0  0  0  0
 11 10  2  0  0  0  0
 11 12  1  0  0  0  0
 12  7  2  0  0  0  0
 13 15  1  0  0  0  0
 13 14  2  0  0  0  0
 15 16  1  0  0  0  0
 16 28  1  0  0  0  0
 16 17  2  0  0  0  0
 17 29  1  0  0  0  0
 18 17  1  0  0  0  0
 18 30  1  0  0  0  0
 19 18  2  0  0  0  0
 20 15  2  0  0  0  0
 20 19  1  0  0  0  0
 21 33  1  0  0  0  0
 21 35  1  0  0  0  0
 21 34  1  0  0  0  0
 22  6  1  0  0  0  0
 25 10  1  0  0  0  0
 26 11  1  0  0  0  0
 27 12  1  0  0  0  0
 31 19  1  0  0  0  0
 32 20  1  0  0  0  0
M  END
$$$$
