rmsd181.gzmat
 OpenBabel08211713393D

 48 51  0  0  1  0  0  0  0  0999 V2000
    0.0000    0.0000    0.0000 Br  0  0  0  0  0  0  0  0  0  0  0  0
    1.8982    0.0000    0.0000 C   0  0  0  0  0  0  0  0  0  0  0  0
    2.5716    0.0000    1.2164 C   0  0  0  0  0  0  0  0  0  0  0  0
    3.9661   -0.0008    1.2116 C   0  0  0  0  0  0  0  0  0  0  0  0
    4.6518   -0.0084   -0.0018 C   0  0  0  0  0  0  0  0  0  0  0  0
    6.1420    0.0220   -0.0613 C   0  0  0  0  0  0  0  0  0  0  0  0
    6.7483    0.8084   -0.7509 O   0  0  0  0  0  0  0  0  0  0  0  0
    6.7759   -0.9441    0.7176 N   0  0  0  0  0  0  0  0  0  0  0  0
    8.1788   -1.1575    0.7091 C   0  0  0  0  0  0  0  0  0  0  0  0
    8.6760   -2.4510    0.9764 C   0  0  0  0  0  0  0  0  0  0  0  0
   10.0489   -2.6773    0.8785 C   0  0  0  0  0  0  0  0  0  0  0  0
   10.6447   -4.0487    1.0623 C   0  0  1  0  0  0  0  0  0  0  0  0
   11.2312   -4.0299    2.0194 H   0  0  0  0  0  0  0  0  0  0  0  0
    9.5607   -5.1533    1.1807 C   0  0  0  0  0  0  0  0  0  0  0  0
    8.3899   -4.7478    1.9735 N   0  0  0  0  0  0  0  0  0  0  0  0
    7.7449   -3.5783    1.3407 C   0  0  0  0  0  0  0  0  0  0  0  0
    8.7413   -4.4832    3.3845 C   0  0  0  0  0  0  0  0  0  0  0  0
   11.5452   -4.4108   -0.0872 C   0  0  0  0  0  0  0  0  0  0  0  0
   11.1495   -4.1521   -1.4021 C   0  0  0  0  0  0  0  0  0  0  0  0
   11.9792   -4.5036   -2.4626 C   0  0  0  0  0  0  0  0  0  0  0  0
   13.2052   -5.1203   -2.2153 C   0  0  0  0  0  0  0  0  0  0  0  0
   13.5977   -5.3844   -0.9049 C   0  0  0  0  0  0  0  0  0  0  0  0
   12.7709   -5.0301    0.1595 C   0  0  0  0  0  0  0  0  0  0  0  0
   10.9225   -1.6190    0.6090 C   0  0  0  0  0  0  0  0  0  0  0  0
   10.4273   -0.3374    0.4066 C   0  0  0  0  0  0  0  0  0  0  0  0
    9.0567   -0.1005    0.4478 C   0  0  0  0  0  0  0  0  0  0  0  0
    3.9615    0.0046   -1.2147 C   0  0  0  0  0  0  0  0  0  0  0  0
    2.5678    0.0057   -1.2184 C   0  0  0  0  0  0  0  0  0  0  0  0
    2.0327    0.0041    2.1641 H   0  0  0  0  0  0  0  0  0  0  0  0
    4.5113    0.0203    2.1562 H   0  0  0  0  0  0  0  0  0  0  0  0
    6.2116   -1.6179    1.2234 H   0  0  0  0  0  0  0  0  0  0  0  0
    9.1983   -5.4437    0.1677 H   0  0  0  0  0  0  0  0  0  0  0  0
    9.9984   -6.0713    1.6260 H   0  0  0  0  0  0  0  0  0  0  0  0
    6.9384   -3.2319    2.0264 H   0  0  0  0  0  0  0  0  0  0  0  0
    7.2356   -3.9521    0.4164 H   0  0  0  0  0  0  0  0  0  0  0  0
    9.2652   -5.3595    3.8003 H   0  0  0  0  0  0  0  0  0  0  0  0
    7.8112   -4.3543    3.9618 H   0  0  0  0  0  0  0  0  0  0  0  0
    9.3699   -3.5931    3.5385 H   0  0  0  0  0  0  0  0  0  0  0  0
   10.1937   -3.6655   -1.5944 H   0  0  0  0  0  0  0  0  0  0  0  0
   11.6703   -4.2945   -3.4849 H   0  0  0  0  0  0  0  0  0  0  0  0
   13.8533   -5.3937   -3.0442 H   0  0  0  0  0  0  0  0  0  0  0  0
   14.5521   -5.8688   -0.7104 H   0  0  0  0  0  0  0  0  0  0  0  0
   13.0844   -5.2375    1.1799 H   0  0  0  0  0  0  0  0  0  0  0  0
   11.9935   -1.8063    0.5452 H   0  0  0  0  0  0  0  0  0  0  0  0
   11.1113    0.4867    0.2037 H   0  0  0  0  0  0  0  0  0  0  0  0
    8.6775    0.9073    0.2672 H   0  0  0  0  0  0  0  0  0  0  0  0
    4.5154    0.0259   -2.1573 H   0  0  0  0  0  0  0  0  0  0  0  0
    2.0274    0.0174   -2.1658 H   0  0  0  0  0  0  0  0  0  0  0  0
  1  2  1  0  0  0  0
  2  3  2  0  0  0  0
  3 29  1  0  0  0  0
  4  3  1  0  0  0  0
  4 30  1  0  0  0  0
  5  4  2  0  0  0  0
  6  5  1  0  0  0  0
  6  8  1  0  0  0  0
  7  6  2  0  0  0  0
  8 31  1  0  0  0  0
  9  8  1  0  0  0  0
  9 10  2  0  0  0  0
 10 16  1  0  0  0  0
 11 10  1  0  0  0  0
 11 12  1  0  0  0  0
 12 14  1  0  0  0  0
 12 13  1  1  0  0  0
 14 33  1  0  0  0  0
 14 15  1  0  0  0  0
 15 17  1  0  0  0  0
 16 15  1  0  0  0  0
 16 34  1  0  0  0  0
 17 38  1  0  0  0  0
 17 36  1  0  0  0  0
 17 37  1  0  0  0  0
 18 23  1  0  0  0  0
 18 12  1  0  0  0  0
 19 18  2  0  0  0  0
 20 21  2  0  0  0  0
 20 19  1  0  0  0  0
 21 22  1  0  0  0  0
 22 42  1  0  0  0  0
 22 23  2  0  0  0  0
 23 43  1  0  0  0  0
 24 11  2  0  0  0  0
 25 26  2  0  0  0  0
 25 24  1  0  0  0  0
 26  9  1  0  0  0  0
 27  5  1  0  0  0  0
 28 27  2  0  0  0  0
 28  2  1  0  0  0  0
 32 14  1  0  0  0  0
 35 16  1  0  0  0  0
 39 19  1  0  0  0  0
 40 20  1  0  0  0  0
 41 21  1  0  0  0  0
 44 24  1  0  0  0  0
 45 25  1  0  0  0  0
 46 26  1  0  0  0  0
 47 27  1  0  0  0  0
 48 28  1  0  0  0  0
M  END
$$$$
