rmsd19.gzmat
 OpenBabel08211713393D

 48 51  0  0  1  0  0  0  0  0999 V2000
    0.0000    0.0000    0.0000 Br  0  0  0  0  0  0  0  0  0  0  0  0
    1.8982    0.0000    0.0000 C   0  0  0  0  0  0  0  0  0  0  0  0
    2.5703    0.0000    1.2169 C   0  0  0  0  0  0  0  0  0  0  0  0
    3.9644   -0.0004    1.2109 C   0  0  0  0  0  0  0  0  0  0  0  0
    4.6498   -0.0125   -0.0035 C   0  0  0  0  0  0  0  0  0  0  0  0
    6.1400    0.0115    0.0284 C   0  0  0  0  0  0  0  0  0  0  0  0
    6.7786    0.8685    0.5949 O   0  0  0  0  0  0  0  0  0  0  0  0
    6.7512   -1.0314   -0.6577 N   0  0  0  0  0  0  0  0  0  0  0  0
    8.1685   -1.1969   -0.6635 C   0  0  0  0  0  0  0  0  0  0  0  0
    9.0225   -0.1925   -1.1432 C   0  0  0  0  0  0  0  0  0  0  0  0
   10.4028   -0.4180   -1.1184 C   0  0  0  0  0  0  0  0  0  0  0  0
   11.3855    0.6163   -1.6022 C   0  0  1  0  0  0  0  0  0  0  0  0
   11.8886    0.1943   -2.5128 H   0  0  0  0  0  0  0  0  0  0  0  0
   10.7066    1.9531   -2.0120 C   0  0  0  0  0  0  0  0  0  0  0  0
    9.3801    1.7927   -2.6271 N   0  0  0  0  0  0  0  0  0  0  0  0
    8.4807    1.1014   -1.6831 C   0  0  0  0  0  0  0  0  0  0  0  0
    9.4464    1.0961   -3.9290 C   0  0  0  0  0  0  0  0  0  0  0  0
   12.4070    0.9152   -0.5385 C   0  0  0  0  0  0  0  0  0  0  0  0
   13.7648    0.9321   -0.8596 C   0  0  0  0  0  0  0  0  0  0  0  0
   14.7091    1.2200    0.1244 C   0  0  0  0  0  0  0  0  0  0  0  0
   14.3001    1.4923    1.4280 C   0  0  0  0  0  0  0  0  0  0  0  0
   12.9430    1.4761    1.7493 C   0  0  0  0  0  0  0  0  0  0  0  0
   11.9976    1.1897    0.7693 C   0  0  0  0  0  0  0  0  0  0  0  0
   10.9091   -1.6385   -0.6646 C   0  0  0  0  0  0  0  0  0  0  0  0
   10.0498   -2.6370   -0.2176 C   0  0  0  0  0  0  0  0  0  0  0  0
    8.6766   -2.4209   -0.2090 C   0  0  0  0  0  0  0  0  0  0  0  0
    3.9622   -0.0020   -1.2161 C   0  0  0  0  0  0  0  0  0  0  0  0
    2.5683    0.0043   -1.2184 C   0  0  0  0  0  0  0  0  0  0  0  0
    2.0319    0.0049    2.1654 H   0  0  0  0  0  0  0  0  0  0  0  0
    4.5190    0.0177    2.1522 H   0  0  0  0  0  0  0  0  0  0  0  0
    6.2024   -1.8054   -1.0088 H   0  0  0  0  0  0  0  0  0  0  0  0
   10.5782    2.6058   -1.1166 H   0  0  0  0  0  0  0  0  0  0  0  0
   11.3654    2.5115   -2.7094 H   0  0  0  0  0  0  0  0  0  0  0  0
    7.4950    0.9543   -2.1779 H   0  0  0  0  0  0  0  0  0  0  0  0
    8.2862    1.8075   -0.8304 H   0  0  0  0  0  0  0  0  0  0  0  0
   10.1295    1.6422   -4.5991 H   0  0  0  0  0  0  0  0  0  0  0  0
    8.4452    1.1173   -4.3905 H   0  0  0  0  0  0  0  0  0  0  0  0
    9.7764    0.0482   -3.8680 H   0  0  0  0  0  0  0  0  0  0  0  0
   14.0907    0.7213   -1.8753 H   0  0  0  0  0  0  0  0  0  0  0  0
   15.7677    1.2306   -0.1264 H   0  0  0  0  0  0  0  0  0  0  0  0
   15.0382    1.7148    2.1943 H   0  0  0  0  0  0  0  0  0  0  0  0
   12.6220    1.6865    2.7678 H   0  0  0  0  0  0  0  0  0  0  0  0
   10.9361    1.1704    1.0200 H   0  0  0  0  0  0  0  0  0  0  0  0
   11.9865   -1.8033   -0.6512 H   0  0  0  0  0  0  0  0  0  0  0  0
   10.4534   -3.5854    0.1346 H   0  0  0  0  0  0  0  0  0  0  0  0
    8.0046   -3.1918    0.1593 H   0  0  0  0  0  0  0  0  0  0  0  0
    4.5076    0.0135   -2.1611 H   0  0  0  0  0  0  0  0  0  0  0  0
    2.0274    0.0160   -2.1648 H   0  0  0  0  0  0  0  0  0  0  0  0
  2  1  1  0  0  0  0
  2  3  2  0  0  0  0
  3 29  1  0  0  0  0
  4  3  1  0  0  0  0
  4 30  1  0  0  0  0
  5  6  1  0  0  0  0
  5  4  2  0  0  0  0
  6  7  2  0  0  0  0
  8  6  1  0  0  0  0
  9  8  1  0  0  0  0
  9 26  2  0  0  0  0
 10 11  2  0  0  0  0
 10  9  1  0  0  0  0
 11 24  1  0  0  0  0
 12 13  1  6  0  0  0
 12 11  1  0  0  0  0
 12 18  1  0  0  0  0
 14 12  1  0  0  0  0
 14 32  1  0  0  0  0
 15 14  1  0  0  0  0
 15 16  1  0  0  0  0
 16 10  1  0  0  0  0
 16 35  1  0  0  0  0
 17 38  1  0  0  0  0
 17 15  1  0  0  0  0
 18 23  1  0  0  0  0
 19 18  2  0  0  0  0
 19 20  1  0  0  0  0
 20 21  2  0  0  0  0
 21 22  1  0  0  0  0
 21 41  1  0  0  0  0
 22 42  1  0  0  0  0
 23 43  1  0  0  0  0
 23 22  2  0  0  0  0
 24 44  1  0  0  0  0
 24 25  2  0  0  0  0
 25 26  1  0  0  0  0
 25 45  1  0  0  0  0
 26 46  1  0  0  0  0
 27  5  1  0  0  0  0
 28 27  2  0  0  0  0
 28  2  1  0  0  0  0
 31  8  1  0  0  0  0
 33 14  1  0  0  0  0
 34 16  1  0  0  0  0
 36 17  1  0  0  0  0
 37 17  1  0  0  0  0
 39 19  1  0  0  0  0
 40 20  1  0  0  0  0
 47 27  1  0  0  0  0
 48 28  1  0  0  0  0
M  END
$$$$
