
     RDKit          3D

 48 51  0  0  0  0  0  0  0  0999 V2000
   -0.1398   -0.0446   -0.1802 Br  0  0  0  0  0  0  0  0  0  0  0  0
    1.7619   -0.0631   -0.1310 C   0  0  0  0  0  0  0  0  0  0  0  0
    2.4307    0.5609    0.9273 C   0  0  0  0  0  0  0  0  0  0  0  0
    3.8232    0.5449    0.9545 C   0  0  0  0  0  0  0  0  0  0  0  0
    4.5549   -0.1005   -0.0532 C   0  0  0  0  0  0  0  0  0  0  0  0
    6.0532   -0.0647    0.0506 C   0  0  0  0  0  0  0  0  0  0  0  0
    6.6288    0.7645    0.7336 O   0  0  0  0  0  0  0  0  0  0  0  0
    6.7164   -1.0301   -0.6771 N   0  0  0  0  0  0  0  0  0  0  0  0
    8.1258   -1.2064   -0.6729 C   0  0  0  0  0  0  0  0  0  0  0  0
    8.9845   -0.1666   -1.0853 C   0  0  0  0  0  0  0  0  0  0  0  0
   10.3748   -0.3858   -1.0499 C   0  0  0  0  0  0  0  0  0  0  0  0
   11.3565    0.6959   -1.4906 C   0  0  1  0  0  0  0  0  0  0  0  0
   11.7952    0.3601   -2.4463 H   0  0  0  0  0  0  0  0  0  0  0  0
   10.6339    2.0420   -1.7539 C   0  0  0  0  0  0  0  0  0  0  0  0
    9.3640    1.8902   -2.4329 N   0  0  0  0  0  0  0  0  0  0  0  0
    8.4375    1.1593   -1.5871 C   0  0  0  0  0  0  0  0  0  0  0  0
    9.4603    1.3817   -3.7869 C   0  0  0  0  0  0  0  0  0  0  0  0
   12.5005    0.8947   -0.5183 C   0  0  0  0  0  0  0  0  0  0  0  0
   13.8221    0.9905   -0.9735 C   0  0  0  0  0  0  0  0  0  0  0  0
   14.8730    1.2323   -0.0835 C   0  0  0  0  0  0  0  0  0  0  0  0
   14.6139    1.3843    1.2803 C   0  0  0  0  0  0  0  0  0  0  0  0
   13.2980    1.2923    1.7466 C   0  0  0  0  0  0  0  0  0  0  0  0
   12.2522    1.0503    0.8553 C   0  0  0  0  0  0  0  0  0  0  0  0
   10.8750   -1.6353   -0.6568 C   0  0  0  0  0  0  0  0  0  0  0  0
   10.0153   -2.6672   -0.2885 C   0  0  0  0  0  0  0  0  0  0  0  0
    8.6382   -2.4490   -0.2852 C   0  0  0  0  0  0  0  0  0  0  0  0
    3.8645   -0.7067   -1.1134 C   0  0  0  0  0  0  0  0  0  0  0  0
    2.4696   -0.6927   -1.1580 C   0  0  0  0  0  0  0  0  0  0  0  0
    1.8639    1.0558    1.7170 H   0  0  0  0  0  0  0  0  0  0  0  0
    4.3736    1.0356    1.7590 H   0  0  0  0  0  0  0  0  0  0  0  0
    6.1706   -1.8352   -0.9605 H   0  0  0  0  0  0  0  0  0  0  0  0
   10.4472    2.5397   -0.7879 H   0  0  0  0  0  0  0  0  0  0  0  0
   11.2984    2.7037   -2.3323 H   0  0  0  0  0  0  0  0  0  0  0  0
    7.4996    0.9840   -2.1374 H   0  0  0  0  0  0  0  0  0  0  0  0
    8.1658    1.7811   -0.7184 H   0  0  0  0  0  0  0  0  0  0  0  0
   10.1603    2.0047   -4.3663 H   0  0  0  0  0  0  0  0  0  0  0  0
    8.4748    1.4421   -4.2761 H   0  0  0  0  0  0  0  0  0  0  0  0
    9.8035    0.3265   -3.8637 H   0  0  0  0  0  0  0  0  0  0  0  0
   14.0302    0.8702   -2.0406 H   0  0  0  0  0  0  0  0  0  0  0  0
   15.8976    1.2991   -0.4579 H   0  0  0  0  0  0  0  0  0  0  0  0
   15.4332    1.5708    1.9788 H   0  0  0  0  0  0  0  0  0  0  0  0
   13.0862    1.4073    2.8126 H   0  0  0  0  0  0  0  0  0  0  0  0
   11.2278    0.9678    1.2274 H   0  0  0  0  0  0  0  0  0  0  0  0
   11.9559   -1.7910   -0.6375 H   0  0  0  0  0  0  0  0  0  0  0  0
   10.4156   -3.6376    0.0137 H   0  0  0  0  0  0  0  0  0  0  0  0
    7.9510   -3.2376    0.0318 H   0  0  0  0  0  0  0  0  0  0  0  0
    4.4104   -1.1708   -1.9379 H   0  0  0  0  0  0  0  0  0  0  0  0
    1.9355   -1.1573   -1.9878 H   0  0  0  0  0  0  0  0  0  0  0  0
  1  2  1  0
  2  3  2  0
  2 28  1  0
  3  4  1  0
  3 29  1  0
  4  5  2  0
  4 30  1  0
  5  6  1  0
  5 27  1  0
  6  7  2  0
  6  8  1  0
  8  9  1  0
  8 31  1  0
  9 10  2  0
  9 26  1  0
 10 11  1  0
 10 16  1  0
 11 12  1  0
 11 24  2  0
 12 13  1  6
 12 14  1  0
 12 18  1  0
 14 15  1  0
 14 32  1  0
 14 33  1  0
 15 16  1  0
 15 17  1  0
 16 34  1  0
 16 35  1  0
 17 36  1  0
 17 37  1  0
 17 38  1  0
 18 19  2  0
 18 23  1  0
 19 20  1  0
 19 39  1  0
 20 21  2  0
 20 40  1  0
 21 22  1  0
 21 41  1  0
 22 23  2  0
 22 42  1  0
 23 43  1  0
 24 25  1  0
 24 44  1  0
 25 26  2  0
 25 45  1  0
 26 46  1  0
 27 28  2  0
 27 47  1  0
 28 48  1  0
M  END

