rmsd131.gzmat
 OpenBabel08211713393D

 48 51  0  0  1  0  0  0  0  0999 V2000
    0.0000    0.0000    0.0000 Br  0  0  0  0  0  0  0  0  0  0  0  0
    1.8994    0.0000    0.0000 C   0  0  0  0  0  0  0  0  0  0  0  0
    2.5690    0.0000    1.2185 C   0  0  0  0  0  0  0  0  0  0  0  0
    3.9625    0.0152    1.2137 C   0  0  0  0  0  0  0  0  0  0  0  0
    4.6503    0.0362   -0.0000 C   0  0  0  0  0  0  0  0  0  0  0  0
    6.1368    0.0493   -0.0239 C   0  0  0  0  0  0  0  0  0  0  0  0
    6.8063   -0.8180   -0.5441 O   0  0  0  0  0  0  0  0  0  0  0  0
    6.7950    1.1036    0.5996 N   0  0  0  0  0  0  0  0  0  0  0  0
    6.1252    2.2054    1.2015 C   0  0  0  0  0  0  0  0  0  0  0  0
    6.3725    2.5160    2.5490 C   0  0  0  0  0  0  0  0  0  0  0  0
    5.7120    3.6051    3.1211 C   0  0  0  0  0  0  0  0  0  0  0  0
    5.9234    3.9840    4.5624 C   0  0  1  0  0  0  0  0  0  0  0  0
    4.9865    3.7022    5.1157 H   0  0  0  0  0  0  0  0  0  0  0  0
    7.1079    3.2128    5.2064 C   0  0  0  0  0  0  0  0  0  0  0  0
    7.1758    1.7955    4.8187 N   0  0  0  0  0  0  0  0  0  0  0  0
    7.3325    1.6834    3.3551 C   0  0  0  0  0  0  0  0  0  0  0  0
    6.0090    1.0273    5.3004 C   0  0  0  0  0  0  0  0  0  0  0  0
    6.1845    5.4566    4.7161 C   0  0  0  0  0  0  0  0  0  0  0  0
    5.5336    6.1756    5.7195 C   0  0  0  0  0  0  0  0  0  0  0  0
    5.7824    7.5383    5.8727 C   0  0  0  0  0  0  0  0  0  0  0  0
    6.6774    8.1863    5.0244 C   0  0  0  0  0  0  0  0  0  0  0  0
    7.3295    7.4684    4.0225 C   0  0  0  0  0  0  0  0  0  0  0  0
    7.0864    6.1064    3.8696 C   0  0  0  0  0  0  0  0  0  0  0  0
    4.7978    4.3468    2.3670 C   0  0  0  0  0  0  0  0  0  0  0  0
    4.5610    4.0307    1.0338 C   0  0  0  0  0  0  0  0  0  0  0  0
    5.2307    2.9656    0.4403 C   0  0  0  0  0  0  0  0  0  0  0  0
    3.9640    0.0115   -1.2137 C   0  0  0  0  0  0  0  0  0  0  0  0
    2.5700   -0.0015   -1.2178 C   0  0  0  0  0  0  0  0  0  0  0  0
    2.0301   -0.0083    2.1661 H   0  0  0  0  0  0  0  0  0  0  0  0
    4.5111    0.0193    2.1570 H   0  0  0  0  0  0  0  0  0  0  0  0
    7.8097    1.0925    0.6300 H   0  0  0  0  0  0  0  0  0  0  0  0
    8.0740    3.6881    4.9199 H   0  0  0  0  0  0  0  0  0  0  0  0
    7.0470    3.2821    6.3132 H   0  0  0  0  0  0  0  0  0  0  0  0
    7.2593    0.6054    3.0774 H   0  0  0  0  0  0  0  0  0  0  0  0
    8.3814    1.9906    3.1168 H   0  0  0  0  0  0  0  0  0  0  0  0
    5.9041    1.1679    6.3881 H   0  0  0  0  0  0  0  0  0  0  0  0
    6.1997   -0.0456    5.1275 H   0  0  0  0  0  0  0  0  0  0  0  0
    5.0568    1.2951    4.8189 H   0  0  0  0  0  0  0  0  0  0  0  0
    4.8303    5.6772    6.3829 H   0  0  0  0  0  0  0  0  0  0  0  0
    5.2737    8.0968    6.6556 H   0  0  0  0  0  0  0  0  0  0  0  0
    6.8678    9.2503    5.1430 H   0  0  0  0  0  0  0  0  0  0  0  0
    8.0274    7.9730    3.3570 H   0  0  0  0  0  0  0  0  0  0  0  0
    7.5927    5.5463    3.0845 H   0  0  0  0  0  0  0  0  0  0  0  0
    4.2758    5.1860    2.8272 H   0  0  0  0  0  0  0  0  0  0  0  0
    3.8525    4.6194    0.4515 H   0  0  0  0  0  0  0  0  0  0  0  0
    5.0584    2.7222   -0.6065 H   0  0  0  0  0  0  0  0  0  0  0  0
    4.5170   -0.0032   -2.1555 H   0  0  0  0  0  0  0  0  0  0  0  0
    2.0311   -0.0153   -2.1653 H   0  0  0  0  0  0  0  0  0  0  0  0
  1  2  1  0  0  0  0
  2  3  2  0  0  0  0
  3 29  1  0  0  0  0
  4  3  1  0  0  0  0
  4 30  1  0  0  0  0
  5  4  2  0  0  0  0
  6  5  1  0  0  0  0
  6  8  1  0  0  0  0
  7  6  2  0  0  0  0
  8 31  1  0  0  0  0
  8  9  1  0  0  0  0
  9 10  2  0  0  0  0
 10 11  1  0  0  0  0
 10 16  1  0  0  0  0
 11 12  1  0  0  0  0
 12 18  1  0  0  0  0
 12 13  1  1  0  0  0
 12 14  1  0  0  0  0
 14 33  1  0  0  0  0
 15 14  1  0  0  0  0
 15 17  1  0  0  0  0
 16 15  1  0  0  0  0
 17 36  1  0  0  0  0
 18 19  2  0  0  0  0
 19 20  1  0  0  0  0
 19 39  1  0  0  0  0
 20 40  1  0  0  0  0
 21 41  1  0  0  0  0
 21 20  2  0  0  0  0
 22 21  1  0  0  0  0
 23 22  2  0  0  0  0
 23 18  1  0  0  0  0
 24 44  1  0  0  0  0
 24 11  2  0  0  0  0
 25 24  1  0  0  0  0
 26 25  2  0  0  0  0
 26  9  1  0  0  0  0
 27  5  1  0  0  0  0
 28 27  2  0  0  0  0
 28  2  1  0  0  0  0
 32 14  1  0  0  0  0
 34 16  1  0  0  0  0
 35 16  1  0  0  0  0
 37 17  1  0  0  0  0
 38 17  1  0  0  0  0
 42 22  1  0  0  0  0
 43 23  1  0  0  0  0
 45 25  1  0  0  0  0
 46 26  1  0  0  0  0
 47 27  1  0  0  0  0
 48 28  1  0  0  0  0
M  END
$$$$
