rmsd160.gzmat
 OpenBabel08211713393D

 48 51  0  0  1  0  0  0  0  0999 V2000
    0.0000    0.0000    0.0000 Br  0  0  0  0  0  0  0  0  0  0  0  0
    1.8984    0.0000    0.0000 C   0  0  0  0  0  0  0  0  0  0  0  0
    2.5691    0.0000    1.2180 C   0  0  0  0  0  0  0  0  0  0  0  0
    3.9632    0.0070    1.2156 C   0  0  0  0  0  0  0  0  0  0  0  0
    4.6518    0.0202    0.0035 C   0  0  0  0  0  0  0  0  0  0  0  0
    6.1411    0.0113   -0.0479 C   0  0  0  0  0  0  0  0  0  0  0  0
    6.7700   -0.7280   -0.7713 O   0  0  0  0  0  0  0  0  0  0  0  0
    6.7668    0.9186    0.7993 N   0  0  0  0  0  0  0  0  0  0  0  0
    8.1822    1.0983    0.7967 C   0  0  0  0  0  0  0  0  0  0  0  0
    9.0623    0.0356    1.0516 C   0  0  0  0  0  0  0  0  0  0  0  0
   10.4383    0.2890    1.0348 C   0  0  0  0  0  0  0  0  0  0  0  0
   11.4476   -0.7993    1.2911 C   0  0  1  0  0  0  0  0  0  0  0  0
   11.9312   -0.5719    2.2788 H   0  0  0  0  0  0  0  0  0  0  0  0
   10.7979   -2.2064    1.3930 C   0  0  0  0  0  0  0  0  0  0  0  0
    9.4949   -2.2136    2.0751 N   0  0  0  0  0  0  0  0  0  0  0  0
    8.5510   -1.3485    1.3419 C   0  0  0  0  0  0  0  0  0  0  0  0
    9.6032   -1.8265    3.4970 C   0  0  0  0  0  0  0  0  0  0  0  0
   12.4876   -0.8372    0.2054 C   0  0  0  0  0  0  0  0  0  0  0  0
   13.8401   -0.9089    0.5408 C   0  0  0  0  0  0  0  0  0  0  0  0
   14.8050   -0.9489   -0.4640 C   0  0  0  0  0  0  0  0  0  0  0  0
   14.4232   -0.9149   -1.8034 C   0  0  0  0  0  0  0  0  0  0  0  0
   13.0715   -0.8478   -2.1391 C   0  0  0  0  0  0  0  0  0  0  0  0
   12.1052   -0.8113   -1.1383 C   0  0  0  0  0  0  0  0  0  0  0  0
   10.9154    1.5828    0.8125 C   0  0  0  0  0  0  0  0  0  0  0  0
   10.0311    2.6326    0.5865 C   0  0  0  0  0  0  0  0  0  0  0  0
    8.6618    2.3958    0.5716 C   0  0  0  0  0  0  0  0  0  0  0  0
    3.9641    0.0010   -1.2106 C   0  0  0  0  0  0  0  0  0  0  0  0
    2.5701   -0.0038   -1.2173 C   0  0  0  0  0  0  0  0  0  0  0  0
    2.0285   -0.0086    2.1647 H   0  0  0  0  0  0  0  0  0  0  0  0
    4.5062   -0.0114    2.1617 H   0  0  0  0  0  0  0  0  0  0  0  0
    6.2241    1.6216    1.2850 H   0  0  0  0  0  0  0  0  0  0  0  0
   10.6421   -2.6294    0.3730 H   0  0  0  0  0  0  0  0  0  0  0  0
   11.4850   -2.9034    1.9160 H   0  0  0  0  0  0  0  0  0  0  0  0
    7.5909   -1.3153    1.9033 H   0  0  0  0  0  0  0  0  0  0  0  0
    8.3142   -1.8674    0.3726 H   0  0  0  0  0  0  0  0  0  0  0  0
   10.3336   -2.4814    3.9983 H   0  0  0  0  0  0  0  0  0  0  0  0
    8.6256   -1.9933    3.9797 H   0  0  0  0  0  0  0  0  0  0  0  0
    9.8966   -0.7796    3.6639 H   0  0  0  0  0  0  0  0  0  0  0  0
   14.1456   -0.9335    1.5837 H   0  0  0  0  0  0  0  0  0  0  0  0
   15.8584   -1.0053   -0.2004 H   0  0  0  0  0  0  0  0  0  0  0  0
   15.1779   -0.9411   -2.5852 H   0  0  0  0  0  0  0  0  0  0  0  0
   12.7703   -0.8226   -3.1844 H   0  0  0  0  0  0  0  0  0  0  0  0
   11.0477   -0.7556   -1.3994 H   0  0  0  0  0  0  0  0  0  0  0  0
   11.9897    1.7673    0.8062 H   0  0  0  0  0  0  0  0  0  0  0  0
   10.4125    3.6381    0.4131 H   0  0  0  0  0  0  0  0  0  0  0  0
    7.9691    3.2099    0.3741 H   0  0  0  0  0  0  0  0  0  0  0  0
    4.5212   -0.0194   -2.1515 H   0  0  0  0  0  0  0  0  0  0  0  0
    2.0316   -0.0146   -2.1655 H   0  0  0  0  0  0  0  0  0  0  0  0
  1  2  1  0  0  0  0
  2  3  2  0  0  0  0
  3 29  1  0  0  0  0
  4  3  1  0  0  0  0
  4 30  1  0  0  0  0
  5  4  2  0  0  0  0
  6  5  1  0  0  0  0
  6  8  1  0  0  0  0
  7  6  2  0  0  0  0
  8 31  1  0  0  0  0
  9  8  1  0  0  0  0
  9 10  2  0  0  0  0
 10 16  1  0  0  0  0
 11 10  1  0  0  0  0
 11 12  1  0  0  0  0
 12 14  1  0  0  0  0
 12 13  1  1  0  0  0
 14 33  1  0  0  0  0
 14 15  1  0  0  0  0
 15 17  1  0  0  0  0
 16 34  1  0  0  0  0
 16 15  1  0  0  0  0
 17 38  1  0  0  0  0
 17 37  1  0  0  0  0
 17 36  1  0  0  0  0
 18 19  1  0  0  0  0
 18 12  1  0  0  0  0
 19 39  1  0  0  0  0
 20 40  1  0  0  0  0
 20 19  2  0  0  0  0
 21 20  1  0  0  0  0
 22 21  2  0  0  0  0
 22 23  1  0  0  0  0
 23 18  2  0  0  0  0
 24 11  2  0  0  0  0
 25 24  1  0  0  0  0
 26 25  2  0  0  0  0
 26  9  1  0  0  0  0
 27  5  1  0  0  0  0
 28 27  2  0  0  0  0
 28  2  1  0  0  0  0
 32 14  1  0  0  0  0
 35 16  1  0  0  0  0
 41 21  1  0  0  0  0
 42 22  1  0  0  0  0
 43 23  1  0  0  0  0
 44 24  1  0  0  0  0
 45 25  1  0  0  0  0
 46 26  1  0  0  0  0
 47 27  1  0  0  0  0
 48 28  1  0  0  0  0
M  END
$$$$
