
     RDKit          3D

 48 51  0  0  0  0  0  0  0  0999 V2000
   -0.0395   -0.8523   -0.1500 Br  0  0  0  0  0  0  0  0  0  0  0  0
    1.8341   -0.5147   -0.1502 C   0  0  0  0  0  0  0  0  0  0  0  0
    2.4534   -0.0783    1.0243 C   0  0  0  0  0  0  0  0  0  0  0  0
    3.8231    0.1833    1.0159 C   0  0  0  0  0  0  0  0  0  0  0  0
    4.5777    0.0026   -0.1529 C   0  0  0  0  0  0  0  0  0  0  0  0
    6.0667    0.1911   -0.2107 C   0  0  0  0  0  0  0  0  0  0  0  0
    6.7621   -0.4882   -0.9462 O   0  0  0  0  0  0  0  0  0  0  0  0
    6.6350    1.1236    0.6352 N   0  0  0  0  0  0  0  0  0  0  0  0
    6.0358    2.2771    1.2063 C   0  0  0  0  0  0  0  0  0  0  0  0
    6.3161    2.5912    2.5512 C   0  0  0  0  0  0  0  0  0  0  0  0
    5.7381    3.7376    3.1253 C   0  0  0  0  0  0  0  0  0  0  0  0
    5.9938    4.0977    4.5849 C   0  0  1  0  0  0  0  0  0  0  0  0
    5.0699    3.8597    5.1405 H   0  0  0  0  0  0  0  0  0  0  0  0
    7.1326    3.2324    5.1822 C   0  0  0  0  0  0  0  0  0  0  0  0
    7.0575    1.8349    4.8050 N   0  0  0  0  0  0  0  0  0  0  0  0
    7.2263    1.6911    3.3716 C   0  0  0  0  0  0  0  0  0  0  0  0
    5.9036    1.1292    5.3292 C   0  0  0  0  0  0  0  0  0  0  0  0
    6.2799    5.5685    4.8049 C   0  0  0  0  0  0  0  0  0  0  0  0
    5.6513    6.2737    5.8396 C   0  0  0  0  0  0  0  0  0  0  0  0
    5.9563    7.6163    6.0830 C   0  0  0  0  0  0  0  0  0  0  0  0
    6.9004    8.2740    5.2918 C   0  0  0  0  0  0  0  0  0  0  0  0
    7.5359    7.5803    4.2564 C   0  0  0  0  0  0  0  0  0  0  0  0
    7.2280    6.2407    4.0167 C   0  0  0  0  0  0  0  0  0  0  0  0
    4.8664    4.5258    2.3597 C   0  0  0  0  0  0  0  0  0  0  0  0
    4.5859    4.2011    1.0339 C   0  0  0  0  0  0  0  0  0  0  0  0
    5.1818    3.0847    0.4477 C   0  0  0  0  0  0  0  0  0  0  0  0
    3.9414   -0.4660   -1.3107 C   0  0  0  0  0  0  0  0  0  0  0  0
    2.5697   -0.7138   -1.3220 C   0  0  0  0  0  0  0  0  0  0  0  0
    1.8691    0.0558    1.9354 H   0  0  0  0  0  0  0  0  0  0  0  0
    4.3013    0.5237    1.9345 H   0  0  0  0  0  0  0  0  0  0  0  0
    7.6513    1.0807    0.6229 H   0  0  0  0  0  0  0  0  0  0  0  0
    8.1007    3.6310    4.8346 H   0  0  0  0  0  0  0  0  0  0  0  0
    7.1249    3.3275    6.2795 H   0  0  0  0  0  0  0  0  0  0  0  0
    7.0580    0.6413    3.0858 H   0  0  0  0  0  0  0  0  0  0  0  0
    8.2825    1.9085    3.1181 H   0  0  0  0  0  0  0  0  0  0  0  0
    5.8500    1.2694    6.4202 H   0  0  0  0  0  0  0  0  0  0  0  0
    6.0084    0.0501    5.1344 H   0  0  0  0  0  0  0  0  0  0  0  0
    4.9297    1.4516    4.8990 H   0  0  0  0  0  0  0  0  0  0  0  0
    4.9094    5.7638    6.4608 H   0  0  0  0  0  0  0  0  0  0  0  0
    5.4513    8.1498    6.8921 H   0  0  0  0  0  0  0  0  0  0  0  0
    7.1389    9.3239    5.4777 H   0  0  0  0  0  0  0  0  0  0  0  0
    8.2735    8.0882    3.6300 H   0  0  0  0  0  0  0  0  0  0  0  0
    7.7183    5.7087    3.1975 H   0  0  0  0  0  0  0  0  0  0  0  0
    4.4155    5.4114    2.8126 H   0  0  0  0  0  0  0  0  0  0  0  0
    3.9114    4.8281    0.4465 H   0  0  0  0  0  0  0  0  0  0  0  0
    4.9855    2.8301   -0.5947 H   0  0  0  0  0  0  0  0  0  0  0  0
    4.5441   -0.6388   -2.2039 H   0  0  0  0  0  0  0  0  0  0  0  0
    2.0742   -1.0656   -2.2277 H   0  0  0  0  0  0  0  0  0  0  0  0
  1  2  1  0
  2  3  2  0
  2 28  1  0
  3  4  1  0
  3 29  1  0
  4  5  2  0
  4 30  1  0
  5  6  1  0
  5 27  1  0
  6  7  2  0
  6  8  1  0
  8  9  1  0
  8 31  1  0
  9 10  2  0
  9 26  1  0
 10 11  1  0
 10 16  1  0
 11 12  1  0
 11 24  2  0
 12 13  1  1
 12 14  1  0
 12 18  1  0
 14 15  1  0
 14 32  1  0
 14 33  1  0
 15 16  1  0
 15 17  1  0
 16 34  1  0
 16 35  1  0
 17 36  1  0
 17 37  1  0
 17 38  1  0
 18 19  2  0
 18 23  1  0
 19 20  1  0
 19 39  1  0
 20 21  2  0
 20 40  1  0
 21 22  1  0
 21 41  1  0
 22 23  2  0
 22 42  1  0
 23 43  1  0
 24 25  1  0
 24 44  1  0
 25 26  2  0
 25 45  1  0
 26 46  1  0
 27 28  2  0
 27 47  1  0
 28 48  1  0
M  END

