48
rmsd128.gzmat
Br         0.00000        0.00000        0.00000
C          1.89960        0.00000        0.00000
C          2.57020        0.00000        1.21730
C          3.96440       -0.01320        1.21300
C          4.65140       -0.03790       -0.00040
C          6.13780       -0.05560        0.02870
O          6.80720        0.79320        0.57920
N          6.79740       -1.09360       -0.61950
C          6.12730       -2.17110       -1.26440
C          6.36470       -2.42110       -2.62600
C          5.69860       -3.48230       -3.24200
C          5.89450       -3.79300       -4.70200
H          4.94980       -3.49570       -5.23190
C          7.06490       -2.98470       -5.32640
N          7.14140       -1.58990       -4.86570
C          7.32180       -1.55620       -3.40090
C          5.97020       -0.79350       -5.28630
C          6.16520       -5.25690       -4.91440
C          5.44640       -5.96690       -5.87700
C          5.70650       -7.32120       -6.08070
C          6.68510       -7.96720       -5.32840
C          7.40420       -7.25820       -4.36670
C          7.14450       -5.90680       -4.15860
C          4.79400       -4.26020       -2.51360
C          4.56950       -4.00580       -1.16510
C          5.24080       -2.96570       -0.53070
C          3.96330       -0.01430       -1.21360
C          2.56960        0.00170       -1.21820
H          2.03170        0.01200        2.16490
H          4.51780        0.00130        2.15420
H          7.81230       -1.08630       -0.64140
H          8.03680       -3.47160       -5.08170
H          6.98500       -2.99660       -6.43390
H          7.26580       -0.49350       -3.06600
H          8.37080       -1.88590       -3.19440
H          5.86620       -0.85130       -6.38160
H          6.15470        0.26460       -5.03270
H          5.02000       -1.10180       -4.82560
H          4.68310       -5.46840       -6.47040
H          5.14280       -7.87410       -6.82950
H          6.88840       -9.02320       -5.48980
H          8.16840       -7.76130       -3.77670
H          7.69890       -5.35410       -3.40120
H          4.27020       -5.07940       -3.00630
H          3.86890       -4.62280       -0.60320
H          5.07530       -2.76800        0.52680
H          4.51170       -0.01770       -2.15700
H          2.03070        0.01030       -2.16540
