48
rmsd160.gzmat
Br         0.00000        0.00000        0.00000
C          1.89840        0.00000        0.00000
C          2.56910        0.00000        1.21800
C          3.96320        0.00700        1.21560
C          4.65180        0.02020        0.00350
C          6.14110        0.01130       -0.04790
O          6.77000       -0.72800       -0.77130
N          6.76680        0.91860        0.79930
C          8.18220        1.09830        0.79670
C          9.06230        0.03560        1.05160
C         10.43830        0.28900        1.03480
C         11.44760       -0.79930        1.29110
H         11.93120       -0.57190        2.27880
C         10.79790       -2.20640        1.39300
N          9.49490       -2.21360        2.07510
C          8.55100       -1.34850        1.34190
C          9.60320       -1.82650        3.49700
C         12.48760       -0.83720        0.20540
C         13.84010       -0.90890        0.54080
C         14.80500       -0.94890       -0.46400
C         14.42320       -0.91490       -1.80340
C         13.07150       -0.84780       -2.13910
C         12.10520       -0.81130       -1.13830
C         10.91540        1.58280        0.81250
C         10.03110        2.63260        0.58650
C          8.66180        2.39580        0.57160
C          3.96410        0.00100       -1.21060
C          2.57010       -0.00380       -1.21730
H          2.02850       -0.00860        2.16470
H          4.50620       -0.01140        2.16170
H          6.22410        1.62160        1.28500
H         10.64210       -2.62940        0.37300
H         11.48500       -2.90340        1.91600
H          7.59090       -1.31530        1.90330
H          8.31420       -1.86740        0.37260
H         10.33360       -2.48140        3.99830
H          8.62560       -1.99330        3.97970
H          9.89660       -0.77960        3.66390
H         14.14560       -0.93350        1.58370
H         15.85840       -1.00530       -0.20040
H         15.17790       -0.94110       -2.58520
H         12.77030       -0.82260       -3.18440
H         11.04770       -0.75560       -1.39940
H         11.98970        1.76730        0.80620
H         10.41250        3.63810        0.41310
H          7.96910        3.20990        0.37410
H          4.52120       -0.01940       -2.15150
H          2.03160       -0.01460       -2.16550
