26
rmsd170.gzmat
P          0.00000        0.00000        0.00000
O          1.46490        0.00000        0.00000
O         -0.64060        0.00000       -1.46290
O         -0.64810        1.27970        0.71080
C         -0.98300       -1.27900        0.83850
C         -0.42040       -2.68290        0.66970
O         -0.92000       -3.50620       -0.06570
N          0.65110       -3.02500        1.48330
C          1.28510       -4.32400        1.30440
H          0.98020       -4.77160        0.30580
C          0.79630       -5.26390        2.40580
O          0.01340       -5.07480        3.29120
O          1.42020       -6.46310        2.25680
C          2.82110       -4.22390        1.39380
C          3.31080       -3.05590        0.58250
O          3.75930       -3.05660       -0.52890
O          3.18990       -1.92420        1.32000
H          0.04690        0.35260       -2.13230
H         -0.12850        2.11650        0.45280
H         -2.04050       -1.26700        0.41150
H         -1.08320       -1.00880        1.93580
H          1.17370       -2.33960        2.02040
H          1.13390       -7.14860        2.90800
H          3.15660       -4.12000        2.44910
H          3.28150       -5.16870        1.02310
H          3.25970       -1.08070        0.79430
