
     RDKit          3D

 26 25  0  0  0  0  0  0  0  0999 V2000
   -0.0862    0.5433    0.5110 P   0  0  0  0  0  0  0  0  0  0  0  0
    1.3109    0.9675    0.8565 O   0  0  0  0  0  0  0  0  0  0  0  0
   -0.4288    0.5750   -1.0635 O   0  0  0  0  0  0  0  0  0  0  0  0
   -1.2109    1.4784    1.1878 O   0  0  0  0  0  0  0  0  0  0  0  0
   -0.5410   -1.1719    0.9229 C   0  0  0  0  0  0  0  0  0  0  0  0
   -0.4565   -1.4751    2.4250 C   0  0  0  0  0  0  0  0  0  0  0  0
    0.3351   -2.2711    2.8889 O   0  0  0  0  0  0  0  0  0  0  0  0
   -1.3222   -0.7419    3.1846 N   0  0  0  0  0  0  0  0  0  0  0  0
   -1.1672   -0.5868    4.6214 C   0  0  2  0  0  0  0  0  0  0  0  0
   -1.2738   -1.5680    5.1145 H   0  0  0  0  0  0  0  0  0  0  0  0
   -2.2729    0.2962    5.1940 C   0  0  0  0  0  0  0  0  0  0  0  0
   -2.2747    0.7066    6.3241 O   0  0  0  0  0  0  0  0  0  0  0  0
   -3.2584    0.5492    4.3147 O   0  0  0  0  0  0  0  0  0  0  0  0
    0.2187   -0.0114    5.0274 C   0  0  0  0  0  0  0  0  0  0  0  0
    0.6105    0.9920    3.9667 C   0  0  0  0  0  0  0  0  0  0  0  0
   -0.1641    1.8699    3.5972 O   0  0  0  0  0  0  0  0  0  0  0  0
    1.7646    0.7387    3.3976 O   0  0  0  0  0  0  0  0  0  0  0  0
   -0.0077    1.3270   -1.5090 H   0  0  0  0  0  0  0  0  0  0  0  0
   -0.8555    1.8731    2.0299 H   0  0  0  0  0  0  0  0  0  0  0  0
    0.1501   -1.8460    0.4009 H   0  0  0  0  0  0  0  0  0  0  0  0
   -1.5614   -1.3351    0.5407 H   0  0  0  0  0  0  0  0  0  0  0  0
   -1.9140   -0.0591    2.7227 H   0  0  0  0  0  0  0  0  0  0  0  0
   -3.8998    1.1278    4.7623 H   0  0  0  0  0  0  0  0  0  0  0  0
    0.1202    0.4635    6.0138 H   0  0  0  0  0  0  0  0  0  0  0  0
    0.9665   -0.8097    5.0693 H   0  0  0  0  0  0  0  0  0  0  0  0
    1.7746    1.0936    2.4587 H   0  0  0  0  0  0  0  0  0  0  0  0
  1  2  2  0
  1  3  1  0
  1  4  1  0
  1  5  1  0
  3 18  1  0
  4 19  1  0
  5  6  1  0
  5 20  1  0
  5 21  1  0
  6  7  2  0
  6  8  1  0
  8  9  1  0
  8 22  1  0
  9 10  1  1
  9 11  1  0
  9 14  1  0
 11 12  2  0
 11 13  1  0
 13 23  1  0
 14 15  1  0
 14 24  1  0
 14 25  1  0
 15 16  2  0
 15 17  1  0
 17 26  1  0
M  END

