
     RDKit          3D

 26 25  0  0  0  0  0  0  0  0999 V2000
    0.2930   -0.0293    0.2657 P   0  0  0  0  0  0  0  0  0  0  0  0
    1.5323    0.1394    1.1049 O   0  0  0  0  0  0  0  0  0  0  0  0
    0.5841   -0.4968   -1.2299 O   0  0  0  0  0  0  0  0  0  0  0  0
   -0.5837    1.3131    0.1105 O   0  0  0  0  0  0  0  0  0  0  0  0
   -0.9386   -1.1743    0.9688 C   0  0  0  0  0  0  0  0  0  0  0  0
   -0.5370   -2.6261    0.7189 C   0  0  0  0  0  0  0  0  0  0  0  0
   -1.0012   -3.2718   -0.1977 O   0  0  0  0  0  0  0  0  0  0  0  0
    0.4374   -3.1050    1.5577 N   0  0  0  0  0  0  0  0  0  0  0  0
    1.1237   -4.3418    1.2709 C   0  0  2  0  0  0  0  0  0  0  0  0
    0.6069   -4.7694    0.3997 H   0  0  0  0  0  0  0  0  0  0  0  0
    1.0029   -5.3166    2.4309 C   0  0  0  0  0  0  0  0  0  0  0  0
    0.5569   -5.0521    3.5164 O   0  0  0  0  0  0  0  0  0  0  0  0
    1.4976   -6.5216    2.0994 O   0  0  0  0  0  0  0  0  0  0  0  0
    2.6350   -4.1264    0.9003 C   0  0  0  0  0  0  0  0  0  0  0  0
    2.7360   -2.7103    0.3840 C   0  0  0  0  0  0  0  0  0  0  0  0
    2.3730   -2.3983   -0.7407 O   0  0  0  0  0  0  0  0  0  0  0  0
    3.1039   -1.8612    1.3199 O   0  0  0  0  0  0  0  0  0  0  0  0
    1.3177   -1.1708   -1.2396 H   0  0  0  0  0  0  0  0  0  0  0  0
   -0.0280    2.0917   -0.0501 H   0  0  0  0  0  0  0  0  0  0  0  0
   -1.8967   -0.9966    0.4637 H   0  0  0  0  0  0  0  0  0  0  0  0
   -1.0343   -0.9390    2.0399 H   0  0  0  0  0  0  0  0  0  0  0  0
    0.7598   -2.5420    2.3364 H   0  0  0  0  0  0  0  0  0  0  0  0
    1.4215   -7.0913    2.8844 H   0  0  0  0  0  0  0  0  0  0  0  0
    3.2764   -4.2406    1.7838 H   0  0  0  0  0  0  0  0  0  0  0  0
    2.9323   -4.8508    0.1325 H   0  0  0  0  0  0  0  0  0  0  0  0
    2.7094   -0.9477    1.1371 H   0  0  0  0  0  0  0  0  0  0  0  0
  1  2  2  0
  1  3  1  0
  1  4  1  0
  1  5  1  0
  3 18  1  0
  4 19  1  0
  5  6  1  0
  5 20  1  0
  5 21  1  0
  6  7  2  0
  6  8  1  0
  8  9  1  0
  8 22  1  0
  9 10  1  6
  9 11  1  0
  9 14  1  0
 11 12  2  0
 11 13  1  0
 13 23  1  0
 14 15  1  0
 14 24  1  0
 14 25  1  0
 15 16  2  0
 15 17  1  0
 17 26  1  0
M  END

