26
rmsd135.gzmat
P          0.00000        0.00000        0.00000
O          1.45670        0.00000        0.00000
O         -0.67190        0.00000       -1.45220
O         -0.64320        1.28460        0.72360
C         -1.02960       -1.27830        0.78030
C         -0.77360       -1.45110        2.27230
O         -0.33520       -2.48250        2.73100
N         -1.16360       -0.40730        3.10260
C         -0.83590       -0.47800        4.52260
H         -0.67090       -1.55800        4.83310
C         -2.03470        0.10730        5.26870
O         -2.35560        1.26450        5.32660
O         -2.74280       -0.86850        5.86760
C          0.41270        0.36870        4.83340
C          0.97360        0.03780        6.17580
O          0.60460       -0.78810        6.96630
O          2.04020        0.83670        6.43870
H         -0.06980        0.49080       -2.11070
H         -0.10550        2.11990        0.53300
H         -0.81930       -2.27210        0.26420
H         -2.12390       -1.04660        0.59050
H         -1.39530        0.51050        2.73210
H         -3.52170       -0.53930        6.38660
H          1.19430        0.19650        4.05170
H          0.18860        1.45980        4.76490
H          2.45820        0.66130        7.31890
