rmsd46.gzmat
 OpenBabel08211713413D

 26 25  0  0  1  0  0  0  0  0999 V2000
    0.0000    0.0000    0.0000 P   0  0  0  0  0  0  0  0  0  0  0  0
    1.4577    0.0000    0.0000 O   0  0  0  0  0  0  0  0  0  0  0  0
   -0.6695    0.0000   -1.4550 O   0  0  0  0  0  0  0  0  0  0  0  0
   -0.6484    1.2799    0.7247 O   0  0  0  0  0  0  0  0  0  0  0  0
   -1.0267   -1.2892    0.7689 C   0  0  0  0  0  0  0  0  0  0  0  0
   -0.7055   -1.5288    2.2375 C   0  0  0  0  0  0  0  0  0  0  0  0
   -0.2243   -2.5724    2.6304 O   0  0  0  0  0  0  0  0  0  0  0  0
   -1.0654   -0.5379    3.1314 N   0  0  0  0  0  0  0  0  0  0  0  0
   -0.7376   -0.6883    4.5408 C   0  0  2  0  0  0  0  0  0  0  0  0
   -0.4561   -1.7694    4.7544 H   0  0  0  0  0  0  0  0  0  0  0  0
   -1.9794   -0.3619    5.3649 C   0  0  0  0  0  0  0  0  0  0  0  0
   -3.1021   -0.1456    5.0100 O   0  0  0  0  0  0  0  0  0  0  0  0
   -1.6471   -0.3981    6.6848 O   0  0  0  0  0  0  0  0  0  0  0  0
    0.4412    0.2147    4.9498 C   0  0  0  0  0  0  0  0  0  0  0  0
    0.2322    1.6779    4.7294 C   0  0  0  0  0  0  0  0  0  0  0  0
    1.0425    2.5600    4.8171 O   0  0  0  0  0  0  0  0  0  0  0  0
   -1.0600    1.9558    4.4065 O   0  0  0  0  0  0  0  0  0  0  0  0
   -0.0676    0.4941   -2.1117 H   0  0  0  0  0  0  0  0  0  0  0  0
   -0.0919    2.1100    0.5557 H   0  0  0  0  0  0  0  0  0  0  0  0
   -0.8611   -2.2637    0.2025 H   0  0  0  0  0  0  0  0  0  0  0  0
   -2.1226   -1.0251    0.6379 H   0  0  0  0  0  0  0  0  0  0  0  0
   -1.4062    0.3759    2.8443 H   0  0  0  0  0  0  0  0  0  0  0  0
   -2.4030   -0.2072    7.2920 H   0  0  0  0  0  0  0  0  0  0  0  0
    0.6841    0.0478    6.0284 H   0  0  0  0  0  0  0  0  0  0  0  0
    1.3568   -0.1013    4.3889 H   0  0  0  0  0  0  0  0  0  0  0  0
   -1.2442    2.9181    4.2731 H   0  0  0  0  0  0  0  0  0  0  0  0
  1  4  1  0  0  0  0
  1  5  1  0  0  0  0
  2  1  2  0  0  0  0
  3  1  1  0  0  0  0
  5  6  1  0  0  0  0
  6  7  2  0  0  0  0
  6  8  1  0  0  0  0
  8  9  1  0  0  0  0
  9 10  1  1  0  0  0
  9 14  1  0  0  0  0
  9 11  1  0  0  0  0
 11 13  1  0  0  0  0
 12 11  2  0  0  0  0
 13 23  1  0  0  0  0
 14 24  1  0  0  0  0
 15 16  2  0  0  0  0
 15 14  1  0  0  0  0
 17 15  1  0  0  0  0
 18  3  1  0  0  0  0
 19  4  1  0  0  0  0
 20  5  1  0  0  0  0
 21  5  1  0  0  0  0
 22  8  1  0  0  0  0
 25 14  1  0  0  0  0
 26 17  1  0  0  0  0
M  END
$$$$
