
     RDKit          3D

 26 25  0  0  0  0  0  0  0  0999 V2000
    0.3667    0.0797    0.3786 P   0  0  0  0  0  0  0  0  0  0  0  0
    1.5522    0.1741    1.2767 O   0  0  0  0  0  0  0  0  0  0  0  0
    0.5585   -0.5724   -1.0767 O   0  0  0  0  0  0  0  0  0  0  0  0
   -0.3242    1.4985    0.0257 O   0  0  0  0  0  0  0  0  0  0  0  0
   -0.9558   -0.9738    1.0934 C   0  0  0  0  0  0  0  0  0  0  0  0
   -0.2596   -2.3126    1.2562 C   0  0  0  0  0  0  0  0  0  0  0  0
    0.1433   -2.9283    0.2660 O   0  0  0  0  0  0  0  0  0  0  0  0
    0.0159   -2.6906    2.5204 N   0  0  0  0  0  0  0  0  0  0  0  0
    1.1248   -3.5908    2.7796 C   0  0  2  0  0  0  0  0  0  0  0  0
    1.0970   -4.3751    2.0069 H   0  0  0  0  0  0  0  0  0  0  0  0
    0.9997   -4.2929    4.1252 C   0  0  0  0  0  0  0  0  0  0  0  0
    1.9340   -4.7957    4.6952 O   0  0  0  0  0  0  0  0  0  0  0  0
   -0.2581   -4.3276    4.5892 O   0  0  0  0  0  0  0  0  0  0  0  0
    2.4666   -2.8560    2.6744 C   0  0  0  0  0  0  0  0  0  0  0  0
    2.5296   -1.6938    3.6374 C   0  0  0  0  0  0  0  0  0  0  0  0
    1.6376   -1.3818    4.3980 O   0  0  0  0  0  0  0  0  0  0  0  0
    3.6917   -1.0441    3.5725 O   0  0  0  0  0  0  0  0  0  0  0  0
    0.5252   -1.5535   -0.9716 H   0  0  0  0  0  0  0  0  0  0  0  0
    0.1755    2.2165    0.4430 H   0  0  0  0  0  0  0  0  0  0  0  0
   -1.7891   -1.0506    0.3813 H   0  0  0  0  0  0  0  0  0  0  0  0
   -1.3054   -0.5433    2.0415 H   0  0  0  0  0  0  0  0  0  0  0  0
   -0.1730   -2.0336    3.2715 H   0  0  0  0  0  0  0  0  0  0  0  0
   -0.2276   -4.8021    5.4382 H   0  0  0  0  0  0  0  0  0  0  0  0
    3.3006   -3.5411    2.8843 H   0  0  0  0  0  0  0  0  0  0  0  0
    2.6035   -2.4590    1.6577 H   0  0  0  0  0  0  0  0  0  0  0  0
    3.6291   -0.2811    4.1724 H   0  0  0  0  0  0  0  0  0  0  0  0
  1  2  2  0
  1  3  1  0
  1  4  1  0
  1  5  1  0
  3 18  1  0
  4 19  1  0
  5  6  1  0
  5 20  1  0
  5 21  1  0
  6  7  2  0
  6  8  1  0
  8  9  1  0
  8 22  1  0
  9 10  1  6
  9 11  1  0
  9 14  1  0
 11 12  2  0
 11 13  1  0
 13 23  1  0
 14 15  1  0
 14 24  1  0
 14 25  1  0
 15 16  2  0
 15 17  1  0
 17 26  1  0
M  END

