rmsd141.gzmat
 OpenBabel08211713413D

 26 25  0  0  1  0  0  0  0  0999 V2000
    0.0000    0.0000    0.0000 P   0  0  0  0  0  0  0  0  0  0  0  0
    1.4574    0.0000    0.0000 O   0  0  0  0  0  0  0  0  0  0  0  0
   -0.6653    0.0000   -1.4572 O   0  0  0  0  0  0  0  0  0  0  0  0
   -0.6492    1.2831    0.7171 O   0  0  0  0  0  0  0  0  0  0  0  0
   -1.0271   -1.2930    0.7626 C   0  0  0  0  0  0  0  0  0  0  0  0
   -0.8010   -1.4460    2.2601 C   0  0  0  0  0  0  0  0  0  0  0  0
   -0.2707   -2.4283    2.7377 O   0  0  0  0  0  0  0  0  0  0  0  0
   -1.3014   -0.4484    3.0754 N   0  0  0  0  0  0  0  0  0  0  0  0
   -1.0583   -0.5004    4.5082 C   0  0  2  0  0  0  0  0  0  0  0  0
   -0.6255   -1.5153    4.7865 H   0  0  0  0  0  0  0  0  0  0  0  0
   -2.3899   -0.3562    5.2386 C   0  0  0  0  0  0  0  0  0  0  0  0
   -3.5079   -0.3783    4.8117 O   0  0  0  0  0  0  0  0  0  0  0  0
   -2.1427   -0.2433    6.5728 O   0  0  0  0  0  0  0  0  0  0  0  0
   -0.0686    0.5940    4.9491 C   0  0  0  0  0  0  0  0  0  0  0  0
   -0.5010    1.9987    4.6778 C   0  0  0  0  0  0  0  0  0  0  0  0
    0.1391    3.0055    4.8174 O   0  0  0  0  0  0  0  0  0  0  0  0
   -1.7847    2.0532    4.2315 O   0  0  0  0  0  0  0  0  0  0  0  0
   -0.0624    0.4971   -2.1098 H   0  0  0  0  0  0  0  0  0  0  0  0
   -0.0836    2.1086    0.5544 H   0  0  0  0  0  0  0  0  0  0  0  0
   -0.7810   -2.2855    0.2603 H   0  0  0  0  0  0  0  0  0  0  0  0
   -2.1199   -1.0843    0.5409 H   0  0  0  0  0  0  0  0  0  0  0  0
   -1.7042    0.4138    2.7196 H   0  0  0  0  0  0  0  0  0  0  0  0
   -2.9574   -0.1581    7.1244 H   0  0  0  0  0  0  0  0  0  0  0  0
    0.1385    0.4922    6.0434 H   0  0  0  0  0  0  0  0  0  0  0  0
    0.9154    0.4228    4.4442 H   0  0  0  0  0  0  0  0  0  0  0  0
   -2.1156    2.9707    4.0671 H   0  0  0  0  0  0  0  0  0  0  0  0
  1  4  1  0  0  0  0
  1  5  1  0  0  0  0
  2  1  2  0  0  0  0
  3  1  1  0  0  0  0
  5  6  1  0  0  0  0
  6  7  2  0  0  0  0
  6  8  1  0  0  0  0
  8  9  1  0  0  0  0
  9 10  1  1  0  0  0
  9 14  1  0  0  0  0
  9 11  1  0  0  0  0
 11 13  1  0  0  0  0
 12 11  2  0  0  0  0
 13 23  1  0  0  0  0
 14 24  1  0  0  0  0
 15 16  2  0  0  0  0
 15 14  1  0  0  0  0
 17 15  1  0  0  0  0
 18  3  1  0  0  0  0
 19  4  1  0  0  0  0
 20  5  1  0  0  0  0
 21  5  1  0  0  0  0
 22  8  1  0  0  0  0
 25 14  1  0  0  0  0
 26 17  1  0  0  0  0
M  END
$$$$
