26

P         -0.23500        0.26630        0.27730
O          1.09880        0.68800        0.77840
O         -0.37480        0.25500       -1.33970
O         -1.46830        1.21460        0.79100
C         -0.86530       -1.36260        0.75750
C         -0.66220       -1.62580        2.25170
O         -0.02410       -2.57650        2.65980
N         -1.23400       -0.69570        3.07020
C         -0.87130       -0.62270        4.47700
H         -0.89720       -1.63320        4.90190
C         -1.92500        0.25270        5.14580
O         -2.08230        1.41460        4.85320
O         -2.68800       -0.40730        6.01710
C          0.53280       -0.02020        4.62970
C          0.94060        0.15270        6.06910
O          0.17820        0.14220        7.00670
O          2.26170        0.34930        6.20610
H          0.42580        0.61900       -1.74830
H         -1.16070        2.11380        0.98850
H         -0.30870       -2.12830        0.20240
H         -1.92860       -1.41740        0.47530
H         -1.61570        0.15170        2.65480
H         -3.31540        0.23480        6.39320
H          1.26430       -0.64770        4.10170
H          0.55940        0.97060        4.14600
H          2.43120        0.48060        7.15530
