26
rmsd141.gzmat
P          0.00000        0.00000        0.00000
O          1.45740        0.00000        0.00000
O         -0.66530        0.00000       -1.45720
O         -0.64920        1.28310        0.71710
C         -1.02710       -1.29300        0.76260
C         -0.80100       -1.44600        2.26010
O         -0.27070       -2.42830        2.73770
N         -1.30140       -0.44840        3.07540
C         -1.05830       -0.50040        4.50820
H         -0.62550       -1.51530        4.78650
C         -2.38990       -0.35620        5.23860
O         -3.50790       -0.37830        4.81170
O         -2.14270       -0.24330        6.57280
C         -0.06860        0.59400        4.94910
C         -0.50100        1.99870        4.67780
O          0.13910        3.00550        4.81740
O         -1.78470        2.05320        4.23150
H         -0.06240        0.49710       -2.10980
H         -0.08360        2.10860        0.55440
H         -0.78100       -2.28550        0.26030
H         -2.11990       -1.08430        0.54090
H         -1.70420        0.41380        2.71960
H         -2.95740       -0.15810        7.12440
H          0.13850        0.49220        6.04340
H          0.91540        0.42280        4.44420
H         -2.11560        2.97070        4.06710
