rmsd111.gzmat
 OpenBabel08211713413D

 26 25  0  0  1  0  0  0  0  0999 V2000
    0.0000    0.0000    0.0000 P   0  0  0  0  0  0  0  0  0  0  0  0
    1.4579    0.0000    0.0000 O   0  0  0  0  0  0  0  0  0  0  0  0
   -0.6634    0.0000   -1.4591 O   0  0  0  0  0  0  0  0  0  0  0  0
   -0.6593    1.2711    0.7230 O   0  0  0  0  0  0  0  0  0  0  0  0
   -1.0305   -1.2986    0.7473 C   0  0  0  0  0  0  0  0  0  0  0  0
   -0.7909   -1.5167    2.2333 C   0  0  0  0  0  0  0  0  0  0  0  0
   -0.3163   -2.5490    2.6634 O   0  0  0  0  0  0  0  0  0  0  0  0
   -1.2179   -0.5299    3.1029 N   0  0  0  0  0  0  0  0  0  0  0  0
   -1.0715   -0.7296    4.5338 C   0  0  2  0  0  0  0  0  0  0  0  0
   -0.4223   -1.6452    4.7301 H   0  0  0  0  0  0  0  0  0  0  0  0
   -2.4441   -1.0155    5.1430 C   0  0  0  0  0  0  0  0  0  0  0  0
   -3.5076   -1.1521    4.6114 O   0  0  0  0  0  0  0  0  0  0  0  0
   -2.3052   -1.1335    6.4905 O   0  0  0  0  0  0  0  0  0  0  0  0
   -0.4236    0.4872    5.2187 C   0  0  0  0  0  0  0  0  0  0  0  0
   -1.2094    1.7463    5.0311 C   0  0  0  0  0  0  0  0  0  0  0  0
   -1.8456    2.1034    4.0736 O   0  0  0  0  0  0  0  0  0  0  0  0
   -1.1145    2.5286    6.1335 O   0  0  0  0  0  0  0  0  0  0  0  0
   -0.0719    0.5108   -2.1094 H   0  0  0  0  0  0  0  0  0  0  0  0
   -0.0936    2.1014    0.5877 H   0  0  0  0  0  0  0  0  0  0  0  0
   -0.8156   -2.2785    0.2059 H   0  0  0  0  0  0  0  0  0  0  0  0
   -2.1245   -1.0602    0.5544 H   0  0  0  0  0  0  0  0  0  0  0  0
   -1.5862    0.3709    2.8001 H   0  0  0  0  0  0  0  0  0  0  0  0
   -3.1467   -1.3435    6.9644 H   0  0  0  0  0  0  0  0  0  0  0  0
   -0.2775    0.2731    6.3064 H   0  0  0  0  0  0  0  0  0  0  0  0
    0.6040    0.6420    4.8087 H   0  0  0  0  0  0  0  0  0  0  0  0
   -1.6191    3.3786    6.0626 H   0  0  0  0  0  0  0  0  0  0  0  0
  1  4  1  0  0  0  0
  1  5  1  0  0  0  0
  2  1  2  0  0  0  0
  3  1  1  0  0  0  0
  5  6  1  0  0  0  0
  6  7  2  0  0  0  0
  6  8  1  0  0  0  0
  8  9  1  0  0  0  0
  9 10  1  1  0  0  0
  9 11  1  0  0  0  0
  9 14  1  0  0  0  0
 11 13  1  0  0  0  0
 12 11  2  0  0  0  0
 13 23  1  0  0  0  0
 14 24  1  0  0  0  0
 15 14  1  0  0  0  0
 15 17  1  0  0  0  0
 16 15  2  0  0  0  0
 18  3  1  0  0  0  0
 19  4  1  0  0  0  0
 20  5  1  0  0  0  0
 21  5  1  0  0  0  0
 22  8  1  0  0  0  0
 25 14  1  0  0  0  0
 26 17  1  0  0  0  0
M  END
$$$$
