
     RDKit          3D

 26 25  0  0  0  0  0  0  0  0999 V2000
   -0.2350    0.2663    0.2773 P   0  0  0  0  0  0  0  0  0  0  0  0
    1.0988    0.6880    0.7784 O   0  0  0  0  0  0  0  0  0  0  0  0
   -0.3748    0.2550   -1.3397 O   0  0  0  0  0  0  0  0  0  0  0  0
   -1.4683    1.2146    0.7910 O   0  0  0  0  0  0  0  0  0  0  0  0
   -0.8653   -1.3626    0.7575 C   0  0  0  0  0  0  0  0  0  0  0  0
   -0.6622   -1.6258    2.2517 C   0  0  0  0  0  0  0  0  0  0  0  0
   -0.0241   -2.5765    2.6598 O   0  0  0  0  0  0  0  0  0  0  0  0
   -1.2340   -0.6957    3.0702 N   0  0  0  0  0  0  0  0  0  0  0  0
   -0.8713   -0.6227    4.4770 C   0  0  2  0  0  0  0  0  0  0  0  0
   -0.8972   -1.6332    4.9019 H   0  0  0  0  0  0  0  0  0  0  0  0
   -1.9250    0.2527    5.1458 C   0  0  0  0  0  0  0  0  0  0  0  0
   -2.0823    1.4146    4.8532 O   0  0  0  0  0  0  0  0  0  0  0  0
   -2.6880   -0.4073    6.0171 O   0  0  0  0  0  0  0  0  0  0  0  0
    0.5328   -0.0202    4.6297 C   0  0  0  0  0  0  0  0  0  0  0  0
    0.9406    0.1527    6.0691 C   0  0  0  0  0  0  0  0  0  0  0  0
    0.1782    0.1422    7.0067 O   0  0  0  0  0  0  0  0  0  0  0  0
    2.2617    0.3493    6.2061 O   0  0  0  0  0  0  0  0  0  0  0  0
    0.4258    0.6190   -1.7483 H   0  0  0  0  0  0  0  0  0  0  0  0
   -1.1607    2.1138    0.9885 H   0  0  0  0  0  0  0  0  0  0  0  0
   -0.3087   -2.1283    0.2024 H   0  0  0  0  0  0  0  0  0  0  0  0
   -1.9286   -1.4174    0.4753 H   0  0  0  0  0  0  0  0  0  0  0  0
   -1.6157    0.1517    2.6548 H   0  0  0  0  0  0  0  0  0  0  0  0
   -3.3154    0.2348    6.3932 H   0  0  0  0  0  0  0  0  0  0  0  0
    1.2643   -0.6477    4.1017 H   0  0  0  0  0  0  0  0  0  0  0  0
    0.5594    0.9706    4.1460 H   0  0  0  0  0  0  0  0  0  0  0  0
    2.4312    0.4806    7.1553 H   0  0  0  0  0  0  0  0  0  0  0  0
  1  2  2  0
  1  3  1  0
  1  4  1  0
  1  5  1  0
  3 18  1  0
  4 19  1  0
  5  6  1  0
  5 20  1  0
  5 21  1  0
  6  7  2  0
  6  8  1  0
  8  9  1  0
  8 22  1  0
  9 10  1  1
  9 11  1  0
  9 14  1  0
 11 12  2  0
 11 13  1  0
 13 23  1  0
 14 15  1  0
 14 24  1  0
 14 25  1  0
 15 16  2  0
 15 17  1  0
 17 26  1  0
M  END

