rmsd41.gzmat
 OpenBabel08211713393D

 50 52  0  0  0  0  0  0  0  0999 V2000
    0.0000    0.0000    0.0000 Cl  0  0  0  0  0  0  0  0  0  0  0  0
    1.7091    0.0000    0.0000 C   0  0  0  0  0  0  0  0  0  0  0  0
    2.3699    0.0000    1.2222 C   0  0  0  0  0  0  0  0  0  0  0  0
    3.7610   -0.0342    1.2173 C   0  0  0  0  0  0  0  0  0  0  0  0
    4.5022   -0.1144    2.5126 C   0  0  0  0  0  0  0  0  0  0  0  0
    4.5917    0.8317    3.2503 O   0  0  0  0  0  0  0  0  0  0  0  0
    5.1326   -1.4289    2.7696 C   0  0  0  0  0  0  0  0  0  0  0  0
    4.3977   -2.6043    2.6104 C   0  0  0  0  0  0  0  0  0  0  0  0
    5.0275   -3.8346    2.7741 C   0  0  0  0  0  0  0  0  0  0  0  0
    6.3868   -3.8857    3.0855 C   0  0  0  0  0  0  0  0  0  0  0  0
    7.1123   -2.7091    3.2612 C   0  0  0  0  0  0  0  0  0  0  0  0
    6.4823   -1.4740    3.1182 C   0  0  0  0  0  0  0  0  0  0  0  0
    4.4547   -0.0346   -0.0004 C   0  0  0  0  0  0  0  0  0  0  0  0
    5.8735   -0.0585   -0.0047 N   0  0  0  0  0  0  0  0  0  0  0  0
    6.7405    1.0159    0.2822 C   0  0  0  0  0  0  0  0  0  0  0  0
    8.0039    0.5531    0.1763 N   0  0  0  0  0  0  0  0  0  0  0  0
    7.9813   -0.7486   -0.1599 N   0  0  0  0  0  0  0  0  0  0  0  0
    6.7022   -1.1603   -0.2808 C   0  0  0  0  0  0  0  0  0  0  0  0
    6.2376   -2.5396   -0.5871 C   0  0  0  0  0  0  0  0  0  0  0  0
    5.3951   -2.5187   -1.8046 N   0  0  0  0  0  0  0  0  0  0  0  0
    4.5686   -3.7460   -1.9114 C   0  0  0  0  0  0  0  0  0  0  0  0
    3.3989   -3.6679   -0.9216 C   0  0  0  0  0  0  0  0  0  0  0  0
    6.1908   -2.2640   -3.0256 C   0  0  0  0  0  0  0  0  0  0  0  0
    7.2158   -3.3397   -3.4033 C   0  0  0  0  0  0  0  0  0  0  0  0
    6.2979    2.3729    0.6281 C   0  0  0  0  0  0  0  0  0  0  0  0
    3.7665   -0.0245   -1.2196 C   0  0  0  0  0  0  0  0  0  0  0  0
    2.3746   -0.0132   -1.2196 C   0  0  0  0  0  0  0  0  0  0  0  0
    1.8217    0.0257    2.1668 H   0  0  0  0  0  0  0  0  0  0  0  0
    3.3384   -2.5594    2.3588 H   0  0  0  0  0  0  0  0  0  0  0  0
    4.4587   -4.7551    2.6610 H   0  0  0  0  0  0  0  0  0  0  0  0
    6.8823   -4.8495    3.1947 H   0  0  0  0  0  0  0  0  0  0  0  0
    8.1739   -2.7504    3.5031 H   0  0  0  0  0  0  0  0  0  0  0  0
    7.0444   -0.5482    3.2621 H   0  0  0  0  0  0  0  0  0  0  0  0
    5.6323   -2.9237    0.2743 H   0  0  0  0  0  0  0  0  0  0  0  0
    7.1231   -3.2179   -0.6730 H   0  0  0  0  0  0  0  0  0  0  0  0
    5.1545   -4.6742   -1.7433 H   0  0  0  0  0  0  0  0  0  0  0  0
    4.1669   -3.8048   -2.9478 H   0  0  0  0  0  0  0  0  0  0  0  0
    3.7218   -3.8282    0.1122 H   0  0  0  0  0  0  0  0  0  0  0  0
    2.6393   -4.4201   -1.1553 H   0  0  0  0  0  0  0  0  0  0  0  0
    2.9181   -2.6808   -0.9657 H   0  0  0  0  0  0  0  0  0  0  0  0
    6.7129   -1.2879   -2.8845 H   0  0  0  0  0  0  0  0  0  0  0  0
    5.4695   -2.1129   -3.8598 H   0  0  0  0  0  0  0  0  0  0  0  0
    7.9968   -3.4380   -2.6387 H   0  0  0  0  0  0  0  0  0  0  0  0
    7.7217   -3.0800   -4.3405 H   0  0  0  0  0  0  0  0  0  0  0  0
    6.7515   -4.3205   -3.5394 H   0  0  0  0  0  0  0  0  0  0  0  0
    5.6913    2.8284   -0.1710 H   0  0  0  0  0  0  0  0  0  0  0  0
    7.1647    3.0386    0.7995 H   0  0  0  0  0  0  0  0  0  0  0  0
    5.6945    2.3899    1.5552 H   0  0  0  0  0  0  0  0  0  0  0  0
    4.3268   -0.0619   -2.1582 H   0  0  0  0  0  0  0  0  0  0  0  0
    1.8286   -0.0211   -2.1644 H   0  0  0  0  0  0  0  0  0  0  0  0
  2  1  1  0  0  0  0
  2  3  2  0  0  0  0
  3 28  1  0  0  0  0
  4  3  1  0  0  0  0
  4  5  1  0  0  0  0
  5  7  1  0  0  0  0
  5  6  2  0  0  0  0
  7 12  1  0  0  0  0
  8  7  2  0  0  0  0
  8  9  1  0  0  0  0
  9 10  2  0  0  0  0
 10 31  1  0  0  0  0
 10 11  1  0  0  0  0
 11 32  1  0  0  0  0
 12 11  2  0  0  0  0
 12 33  1  0  0  0  0
 13  4  2  0  0  0  0
 14 13  1  0  0  0  0
 14 15  1  0  0  0  0
 15 25  1  0  0  0  0
 16 15  2  0  0  0  0
 17 16  1  0  0  0  0
 18 17  2  0  0  0  0
 18 14  1  0  0  0  0
 19 18  1  0  0  0  0
 19 34  1  0  0  0  0
 20 19  1  0  0  0  0
 21 20  1  0  0  0  0
 21 36  1  0  0  0  0
 21 22  1  0  0  0  0
 22 38  1  0  0  0  0
 23 41  1  0  0  0  0
 23 20  1  0  0  0  0
 24 23  1  0  0  0  0
 24 43  1  0  0  0  0
 25 47  1  0  0  0  0
 25 48  1  0  0  0  0
 26 27  2  0  0  0  0
 26 13  1  0  0  0  0
 27  2  1  0  0  0  0
 29  8  1  0  0  0  0
 30  9  1  0  0  0  0
 35 19  1  0  0  0  0
 37 21  1  0  0  0  0
 39 22  1  0  0  0  0
 40 22  1  0  0  0  0
 42 23  1  0  0  0  0
 44 24  1  0  0  0  0
 45 24  1  0  0  0  0
 46 25  1  0  0  0  0
 49 26  1  0  0  0  0
 50 27  1  0  0  0  0
M  END
$$$$
