rmsd97.gzmat
 OpenBabel08211713393D

 50 52  0  0  0  0  0  0  0  0999 V2000
    0.0000    0.0000    0.0000 Cl  0  0  0  0  0  0  0  0  0  0  0  0
    1.7095    0.0000    0.0000 C   0  0  0  0  0  0  0  0  0  0  0  0
    2.3708    0.0000    1.2216 C   0  0  0  0  0  0  0  0  0  0  0  0
    3.7633   -0.0135    1.2187 C   0  0  0  0  0  0  0  0  0  0  0  0
    4.4868   -0.0639    2.5248 C   0  0  0  0  0  0  0  0  0  0  0  0
    4.4023    0.8397    3.3170 O   0  0  0  0  0  0  0  0  0  0  0  0
    5.3170   -1.2677    2.7462 C   0  0  0  0  0  0  0  0  0  0  0  0
    4.8294   -2.5359    2.4272 C   0  0  0  0  0  0  0  0  0  0  0  0
    5.6589   -3.6446    2.5687 C   0  0  0  0  0  0  0  0  0  0  0  0
    6.9691   -3.4824    3.0210 C   0  0  0  0  0  0  0  0  0  0  0  0
    7.4442   -2.2169    3.3594 C   0  0  0  0  0  0  0  0  0  0  0  0
    6.6133   -1.1051    3.2355 C   0  0  0  0  0  0  0  0  0  0  0  0
    4.4570    0.0083    0.0009 C   0  0  0  0  0  0  0  0  0  0  0  0
    5.8753    0.0406   -0.0113 N   0  0  0  0  0  0  0  0  0  0  0  0
    6.6990    1.1301    0.3402 C   0  0  0  0  0  0  0  0  0  0  0  0
    7.9801    0.7317    0.1912 N   0  0  0  0  0  0  0  0  0  0  0  0
    8.0092   -0.5441   -0.2314 N   0  0  0  0  0  0  0  0  0  0  0  0
    6.7478   -1.0022   -0.3696 C   0  0  0  0  0  0  0  0  0  0  0  0
    6.3412   -2.3786   -0.7611 C   0  0  0  0  0  0  0  0  0  0  0  0
    5.5601   -2.3356   -2.0143 N   0  0  0  0  0  0  0  0  0  0  0  0
    4.7606   -3.5614   -2.2109 C   0  0  0  0  0  0  0  0  0  0  0  0
    5.4784   -4.9007   -2.0007 C   0  0  0  0  0  0  0  0  0  0  0  0
    6.3652   -1.9267   -3.1833 C   0  0  0  0  0  0  0  0  0  0  0  0
    7.6104   -2.7579   -3.5085 C   0  0  0  0  0  0  0  0  0  0  0  0
    6.2055    2.4427    0.7774 C   0  0  0  0  0  0  0  0  0  0  0  0
    3.7676    0.0042   -1.2183 C   0  0  0  0  0  0  0  0  0  0  0  0
    2.3760   -0.0045   -1.2194 C   0  0  0  0  0  0  0  0  0  0  0  0
    1.8230    0.0158    2.1676 H   0  0  0  0  0  0  0  0  0  0  0  0
    3.8081   -2.6572    2.0671 H   0  0  0  0  0  0  0  0  0  0  0  0
    5.2869   -4.6372    2.3238 H   0  0  0  0  0  0  0  0  0  0  0  0
    7.6238   -4.3484    3.1102 H   0  0  0  0  0  0  0  0  0  0  0  0
    8.4681   -2.0913    3.7104 H   0  0  0  0  0  0  0  0  0  0  0  0
    6.9791   -0.1111    3.5016 H   0  0  0  0  0  0  0  0  0  0  0  0
    5.7048   -2.8211    0.0476 H   0  0  0  0  0  0  0  0  0  0  0  0
    7.2540   -3.0227   -0.8322 H   0  0  0  0  0  0  0  0  0  0  0  0
    4.3225   -3.5267   -3.2330 H   0  0  0  0  0  0  0  0  0  0  0  0
    3.8995   -3.4886   -1.5040 H   0  0  0  0  0  0  0  0  0  0  0  0
    6.3849   -4.9770   -2.6114 H   0  0  0  0  0  0  0  0  0  0  0  0
    4.8281   -5.7367   -2.2782 H   0  0  0  0  0  0  0  0  0  0  0  0
    5.7716   -5.0488   -0.9565 H   0  0  0  0  0  0  0  0  0  0  0  0
    6.6752   -0.8692   -2.9979 H   0  0  0  0  0  0  0  0  0  0  0  0
    5.6857   -1.9039   -4.0642 H   0  0  0  0  0  0  0  0  0  0  0  0
    8.3219   -2.7612   -2.6723 H   0  0  0  0  0  0  0  0  0  0  0  0
    8.1401   -2.3367   -4.3710 H   0  0  0  0  0  0  0  0  0  0  0  0
    7.3616   -3.7953   -3.7489 H   0  0  0  0  0  0  0  0  0  0  0  0
    5.6059    2.9403   -0.0018 H   0  0  0  0  0  0  0  0  0  0  0  0
    7.0463    3.1189    1.0218 H   0  0  0  0  0  0  0  0  0  0  0  0
    5.5779    2.3739    1.6850 H   0  0  0  0  0  0  0  0  0  0  0  0
    4.3285   -0.0208   -2.1578 H   0  0  0  0  0  0  0  0  0  0  0  0
    1.8302   -0.0144   -2.1644 H   0  0  0  0  0  0  0  0  0  0  0  0
  2  1  1  0  0  0  0
  2  3  2  0  0  0  0
  3 28  1  0  0  0  0
  4  3  1  0  0  0  0
  4  5  1  0  0  0  0
  5  7  1  0  0  0  0
  5  6  2  0  0  0  0
  7 12  2  0  0  0  0
  8  9  2  0  0  0  0
  8  7  1  0  0  0  0
  9 10  1  0  0  0  0
 10 31  1  0  0  0  0
 10 11  2  0  0  0  0
 11 32  1  0  0  0  0
 12 11  1  0  0  0  0
 12 33  1  0  0  0  0
 13  4  2  0  0  0  0
 14 13  1  0  0  0  0
 14 15  1  0  0  0  0
 15 25  1  0  0  0  0
 16 15  2  0  0  0  0
 17 16  1  0  0  0  0
 18 17  2  0  0  0  0
 18 14  1  0  0  0  0
 19 18  1  0  0  0  0
 19 34  1  0  0  0  0
 20 19  1  0  0  0  0
 21 20  1  0  0  0  0
 21 22  1  0  0  0  0
 21 37  1  0  0  0  0
 22 40  1  0  0  0  0
 23 41  1  0  0  0  0
 23 20  1  0  0  0  0
 24 23  1  0  0  0  0
 24 43  1  0  0  0  0
 25 47  1  0  0  0  0
 25 48  1  0  0  0  0
 26 13  1  0  0  0  0
 27 26  2  0  0  0  0
 27  2  1  0  0  0  0
 29  8  1  0  0  0  0
 30  9  1  0  0  0  0
 35 19  1  0  0  0  0
 36 21  1  0  0  0  0
 38 22  1  0  0  0  0
 39 22  1  0  0  0  0
 42 23  1  0  0  0  0
 44 24  1  0  0  0  0
 45 24  1  0  0  0  0
 46 25  1  0  0  0  0
 49 26  1  0  0  0  0
 50 27  1  0  0  0  0
M  END
$$$$
