
     RDKit          3D

 50 52  0  0  0  0  0  0  0  0999 V2000
   -0.1530    0.5393    0.3843 Cl  0  0  0  0  0  0  0  0  0  0  0  0
    1.5637    0.2545    0.2737 C   0  0  0  0  0  0  0  0  0  0  0  0
    2.3501    0.3303    1.4230 C   0  0  0  0  0  0  0  0  0  0  0  0
    3.7241    0.0728    1.3469 C   0  0  0  0  0  0  0  0  0  0  0  0
    4.5254    0.1214    2.6262 C   0  0  0  0  0  0  0  0  0  0  0  0
    4.4072    1.0709    3.3791 O   0  0  0  0  0  0  0  0  0  0  0  0
    5.4416   -1.0152    2.9269 C   0  0  0  0  0  0  0  0  0  0  0  0
    6.5688   -0.7813    3.7296 C   0  0  0  0  0  0  0  0  0  0  0  0
    7.4456   -1.8231    4.0222 C   0  0  0  0  0  0  0  0  0  0  0  0
    7.1868   -3.1121    3.5427 C   0  0  0  0  0  0  0  0  0  0  0  0
    6.0487   -3.3585    2.7698 C   0  0  0  0  0  0  0  0  0  0  0  0
    5.1835   -2.3111    2.4547 C   0  0  0  0  0  0  0  0  0  0  0  0
    4.3089   -0.1850    0.0918 C   0  0  0  0  0  0  0  0  0  0  0  0
    5.7170   -0.3441   -0.0205 N   0  0  0  0  0  0  0  0  0  0  0  0
    6.6990    0.5683    0.3345 C   0  0  0  0  0  0  0  0  0  0  0  0
    7.8773    0.0069    0.2060 N   0  0  0  0  0  0  0  0  0  0  0  0
    7.6948   -1.2800   -0.2310 N   0  0  0  0  0  0  0  0  0  0  0  0
    6.4103   -1.4883   -0.3740 C   0  0  0  0  0  0  0  0  0  0  0  0
    5.7792   -2.7247   -0.9240 C   0  0  0  0  0  0  0  0  0  0  0  0
    5.3811   -2.5609   -2.3149 N   0  0  0  0  0  0  0  0  0  0  0  0
    4.4028   -3.5326   -2.7785 C   0  0  0  0  0  0  0  0  0  0  0  0
    4.8429   -5.0004   -2.8681 C   0  0  0  0  0  0  0  0  0  0  0  0
    6.4443   -2.1758   -3.2429 C   0  0  0  0  0  0  0  0  0  0  0  0
    7.7275   -3.0148   -3.2309 C   0  0  0  0  0  0  0  0  0  0  0  0
    6.4471    1.9862    0.7137 C   0  0  0  0  0  0  0  0  0  0  0  0
    3.5108   -0.2527   -1.0555 C   0  0  0  0  0  0  0  0  0  0  0  0
    2.1351   -0.0499   -0.9666 C   0  0  0  0  0  0  0  0  0  0  0  0
    1.9021    0.5706    2.3876 H   0  0  0  0  0  0  0  0  0  0  0  0
    6.7482    0.2299    4.0988 H   0  0  0  0  0  0  0  0  0  0  0  0
    8.3377   -1.6325    4.6226 H   0  0  0  0  0  0  0  0  0  0  0  0
    7.8769   -3.9275    3.7716 H   0  0  0  0  0  0  0  0  0  0  0  0
    5.8403   -4.3669    2.4056 H   0  0  0  0  0  0  0  0  0  0  0  0
    4.2925   -2.4987    1.8527 H   0  0  0  0  0  0  0  0  0  0  0  0
    4.8720   -2.9633   -0.3469 H   0  0  0  0  0  0  0  0  0  0  0  0
    6.4975   -3.5485   -0.7482 H   0  0  0  0  0  0  0  0  0  0  0  0
    4.0462   -3.2001   -3.7682 H   0  0  0  0  0  0  0  0  0  0  0  0
    3.5301   -3.4653   -2.1028 H   0  0  0  0  0  0  0  0  0  0  0  0
    5.6274   -5.1469   -3.6254 H   0  0  0  0  0  0  0  0  0  0  0  0
    3.9873   -5.6376   -3.1448 H   0  0  0  0  0  0  0  0  0  0  0  0
    5.2319   -5.3672   -1.9048 H   0  0  0  0  0  0  0  0  0  0  0  0
    6.7246   -1.1285   -3.0318 H   0  0  0  0  0  0  0  0  0  0  0  0
    5.9994   -2.1758   -4.2513 H   0  0  0  0  0  0  0  0  0  0  0  0
    8.4149   -2.6488   -4.0105 H   0  0  0  0  0  0  0  0  0  0  0  0
    7.5337   -4.0802   -3.4258 H   0  0  0  0  0  0  0  0  0  0  0  0
    8.2477   -2.9189   -2.2665 H   0  0  0  0  0  0  0  0  0  0  0  0
    5.8107    2.4866   -0.0334 H   0  0  0  0  0  0  0  0  0  0  0  0
    7.4170    2.4976    0.7565 H   0  0  0  0  0  0  0  0  0  0  0  0
    5.9529    2.0900    1.6905 H   0  0  0  0  0  0  0  0  0  0  0  0
    3.9869   -0.4931   -2.0067 H   0  0  0  0  0  0  0  0  0  0  0  0
    1.5046   -0.1100   -1.8545 H   0  0  0  0  0  0  0  0  0  0  0  0
  1  2  1  0
  2  3  2  0
  2 27  1  0
  3  4  1  0
  3 28  1  0
  4  5  1  0
  4 13  2  0
  5  6  2  0
  5  7  1  0
  7  8  2  0
  7 12  1  0
  8  9  1  0
  8 29  1  0
  9 10  2  0
  9 30  1  0
 10 11  1  0
 10 31  1  0
 11 12  2  0
 11 32  1  0
 12 33  1  0
 13 14  1  0
 13 26  1  0
 14 15  1  0
 14 18  1  0
 15 16  2  0
 15 25  1  0
 16 17  1  0
 17 18  2  0
 18 19  1  0
 19 20  1  0
 19 34  1  0
 19 35  1  0
 20 21  1  0
 20 23  1  0
 21 22  1  0
 21 36  1  0
 21 37  1  0
 22 38  1  0
 22 39  1  0
 22 40  1  0
 23 24  1  0
 23 41  1  0
 23 42  1  0
 24 43  1  0
 24 44  1  0
 24 45  1  0
 25 46  1  0
 25 47  1  0
 25 48  1  0
 26 27  2  0
 26 49  1  0
 27 50  1  0
M  END

