50
rmsd80.gzmat
Cl         0.00000        0.00000        0.00000
C          1.70930        0.00000        0.00000
C          2.36980        0.00000        1.22210
C          3.76110        0.01840        1.21680
C          4.50390        0.09760        2.51080
O          4.57730       -0.84490        3.25550
C          5.15850        1.40050        2.76480
C          4.47240        2.59410        2.53440
C          5.12800        3.80860        2.71440
C          6.46490        3.82640        3.11450
C          7.14240        2.63280        3.35460
C          6.48590        1.41380        3.19270
C          4.45480        0.00060       -0.00080
N          5.87330       -0.01190       -0.00300
C          6.71190       -1.10650        0.29190
N          7.98660       -0.67670        0.18350
N          7.99750        0.62410       -0.15920
C          6.72990        1.06750       -0.28260
C          6.28950        2.45770       -0.58310
N          5.47320        2.45170       -1.81360
C          6.28810        2.30810       -3.03640
C          7.20170        3.48090       -3.40950
C          4.48600        3.54850       -1.84940
C          4.96770        4.92950       -1.38440
C          6.23120       -2.44550        0.65740
C          3.76690        0.00450       -1.22040
C          2.37500        0.00890       -1.21990
H          1.82180       -0.01510        2.16720
H          3.43080        2.57590        2.21430
H          4.59780        4.74330        2.54400
H          6.97970        4.77770        3.24260
H          8.18740        2.64730        3.66320
H          7.01110        0.47510        3.38520
H          7.18600        3.12330       -0.64920
H          5.67760        2.83970        0.27420
H          5.58330        2.09730       -3.87250
H          6.90750        1.38680       -2.90880
H          6.62930        4.37530       -3.67210
H          7.82550        3.22370       -4.27360
H          7.88300        3.73960       -2.59070
H          3.63570        3.21960       -1.20480
H          4.08180        3.61870       -2.88330
H          5.11310        4.96600       -0.29950
H          4.23490        5.70260       -1.63970
H          5.91720        5.20990       -1.85210
H          5.64330       -2.43190        1.59520
H          7.07730       -3.13880        0.82170
H          5.59330       -2.88850       -0.12430
H          4.32870        0.03460       -2.15850
H          1.82770        0.02090       -2.16390
