50
rmsd66.gzmat
Cl         0.00000        0.00000        0.00000
C          1.70940        0.00000        0.00000
C          2.37020        0.00000        1.22220
C          3.76160        0.01820        1.21710
C          4.50130        0.09720        2.51300
O          4.56410       -0.84290        3.26160
C          5.16240        1.39690        2.76590
C          4.49230        2.59450        2.50970
C          5.15710        3.80460        2.68470
C          6.48730        3.81460        3.10740
C          7.14710        2.61770        3.37750
C          6.48130        1.40340        3.21900
C          4.45570        0.00040       -0.00030
N          5.87430       -0.01430       -0.00290
C          6.71180       -1.11100        0.28780
N          7.98700       -0.68530        0.17010
N          7.99940        0.61470       -0.17510
C          6.73230        1.06180       -0.29090
C          6.29420        2.45270       -0.59100
N          5.48500        2.45010       -1.82630
C          6.30710        2.31390       -3.04510
C          7.21510        3.49290       -3.41250
C          4.49440        3.54360       -1.86260
C          4.96910        4.92820       -1.40040
C          6.23090       -2.44830        0.65850
C          3.76730        0.00510       -1.21980
C          2.37570        0.00980       -1.21950
H          1.82200       -0.01480        2.16730
H          3.45600        2.58260        2.17280
H          4.63970        4.74200        2.49210
H          7.01030        4.76230        3.22930
H          8.18590        2.62580        3.70640
H          6.99310        0.46210        3.43360
H          7.19110        3.11850       -0.65080
H          5.67700        2.83230        0.26380
H          5.60730        2.10050       -3.88490
H          6.93150        1.39620       -2.91690
H          6.63780        4.38560       -3.67090
H          7.83950        3.24320       -4.27850
H          7.89510        3.75210       -2.59260
H          3.64450        3.21140       -1.21860
H          4.09070        3.61250       -2.89730
H          5.20190        4.94660       -0.33040
H          4.19260        5.68050       -1.57600
H          5.86760        5.25150       -1.93650
H          5.64630       -2.43250        1.59790
H          7.07750       -3.14140        0.82100
H          5.59030       -2.89230       -0.12020
H          4.32920        0.03600       -2.15840
H          1.82870        0.02190       -2.16380
