50
rmsd111.gzmat
Cl         0.00000        0.00000        0.00000
C          1.70910        0.00000        0.00000
C          2.37050        0.00000        1.22170
C          3.76230       -0.01460        1.21730
C          4.49520       -0.07560        2.51760
O          4.47120        0.84560        3.29300
C          5.26450       -1.31780        2.74910
C          6.56760       -1.21550        3.23560
C          7.34050       -2.36680        3.37620
C          6.80170       -3.61070        3.05440
C          5.48570       -3.71130        2.60070
C          4.71430       -2.56350        2.44380
C          4.45610        0.00660       -0.00060
N          5.87430        0.02570       -0.00840
C          6.71230        1.10560        0.33770
N          7.98750        0.68610        0.19800
N          7.99960       -0.59380       -0.21480
C          6.73240       -1.03340       -0.35490
C          6.29380       -2.40200       -0.74400
N          5.54830       -2.32650       -2.01710
C          4.57650       -3.42670       -2.17530
C          5.04400       -4.83010       -1.76670
C          6.42990       -2.10460       -3.18040
C          7.35950       -3.25510       -3.58190
C          6.23510        2.42690        0.76610
C          3.76680        0.00260       -1.21960
C          2.37520       -0.00600       -1.21960
H          1.82290        0.01450        2.16750
H          6.98290       -0.23770        3.48990
H          8.36810       -2.28900        3.72960
H          7.40960       -4.50850        3.15890
H          5.06240       -4.68650        2.36990
H          3.68790       -2.63720        2.08510
H          5.62890       -2.81620        0.05590
H          7.18560       -3.07540       -0.79250
H          4.23570       -3.44010       -3.23460
H          3.68580       -3.14170       -1.56510
H          5.98660       -5.10280       -2.25280
H          4.29960       -5.58250       -2.04910
H          5.19560       -4.91390       -0.68570
H          7.04330       -1.19730       -2.95860
H          5.77240       -1.83370       -4.03740
H          8.05150       -2.93500       -4.37050
H          6.80050       -4.11480       -3.96320
H          7.97220       -3.59320       -2.73770
H          5.56850        2.89060        0.02140
H          7.08220        3.12040        0.92480
H          5.67910        2.38010        1.72130
H          4.32920       -0.02370       -2.15890
H          1.82850       -0.01690       -2.16390
