rmsd111.gzmat
 OpenBabel08211713393D

 50 52  0  0  0  0  0  0  0  0999 V2000
    0.0000    0.0000    0.0000 Cl  0  0  0  0  0  0  0  0  0  0  0  0
    1.7091    0.0000    0.0000 C   0  0  0  0  0  0  0  0  0  0  0  0
    2.3705    0.0000    1.2217 C   0  0  0  0  0  0  0  0  0  0  0  0
    3.7623   -0.0146    1.2173 C   0  0  0  0  0  0  0  0  0  0  0  0
    4.4952   -0.0756    2.5176 C   0  0  0  0  0  0  0  0  0  0  0  0
    4.4712    0.8456    3.2930 O   0  0  0  0  0  0  0  0  0  0  0  0
    5.2645   -1.3178    2.7491 C   0  0  0  0  0  0  0  0  0  0  0  0
    6.5676   -1.2155    3.2356 C   0  0  0  0  0  0  0  0  0  0  0  0
    7.3405   -2.3668    3.3762 C   0  0  0  0  0  0  0  0  0  0  0  0
    6.8017   -3.6107    3.0544 C   0  0  0  0  0  0  0  0  0  0  0  0
    5.4857   -3.7113    2.6007 C   0  0  0  0  0  0  0  0  0  0  0  0
    4.7143   -2.5635    2.4438 C   0  0  0  0  0  0  0  0  0  0  0  0
    4.4561    0.0066   -0.0006 C   0  0  0  0  0  0  0  0  0  0  0  0
    5.8743    0.0257   -0.0084 N   0  0  0  0  0  0  0  0  0  0  0  0
    6.7123    1.1056    0.3377 C   0  0  0  0  0  0  0  0  0  0  0  0
    7.9875    0.6861    0.1980 N   0  0  0  0  0  0  0  0  0  0  0  0
    7.9996   -0.5938   -0.2148 N   0  0  0  0  0  0  0  0  0  0  0  0
    6.7324   -1.0334   -0.3549 C   0  0  0  0  0  0  0  0  0  0  0  0
    6.2938   -2.4020   -0.7440 C   0  0  0  0  0  0  0  0  0  0  0  0
    5.5483   -2.3265   -2.0171 N   0  0  0  0  0  0  0  0  0  0  0  0
    4.5765   -3.4267   -2.1753 C   0  0  0  0  0  0  0  0  0  0  0  0
    5.0440   -4.8301   -1.7667 C   0  0  0  0  0  0  0  0  0  0  0  0
    6.4299   -2.1046   -3.1804 C   0  0  0  0  0  0  0  0  0  0  0  0
    7.3595   -3.2551   -3.5819 C   0  0  0  0  0  0  0  0  0  0  0  0
    6.2351    2.4269    0.7661 C   0  0  0  0  0  0  0  0  0  0  0  0
    3.7668    0.0026   -1.2196 C   0  0  0  0  0  0  0  0  0  0  0  0
    2.3752   -0.0060   -1.2196 C   0  0  0  0  0  0  0  0  0  0  0  0
    1.8229    0.0145    2.1675 H   0  0  0  0  0  0  0  0  0  0  0  0
    6.9829   -0.2377    3.4899 H   0  0  0  0  0  0  0  0  0  0  0  0
    8.3681   -2.2890    3.7296 H   0  0  0  0  0  0  0  0  0  0  0  0
    7.4096   -4.5085    3.1589 H   0  0  0  0  0  0  0  0  0  0  0  0
    5.0624   -4.6865    2.3699 H   0  0  0  0  0  0  0  0  0  0  0  0
    3.6879   -2.6372    2.0851 H   0  0  0  0  0  0  0  0  0  0  0  0
    5.6289   -2.8162    0.0559 H   0  0  0  0  0  0  0  0  0  0  0  0
    7.1856   -3.0754   -0.7925 H   0  0  0  0  0  0  0  0  0  0  0  0
    4.2357   -3.4401   -3.2346 H   0  0  0  0  0  0  0  0  0  0  0  0
    3.6858   -3.1417   -1.5651 H   0  0  0  0  0  0  0  0  0  0  0  0
    5.9866   -5.1028   -2.2528 H   0  0  0  0  0  0  0  0  0  0  0  0
    4.2996   -5.5825   -2.0491 H   0  0  0  0  0  0  0  0  0  0  0  0
    5.1956   -4.9139   -0.6857 H   0  0  0  0  0  0  0  0  0  0  0  0
    7.0433   -1.1973   -2.9586 H   0  0  0  0  0  0  0  0  0  0  0  0
    5.7724   -1.8337   -4.0374 H   0  0  0  0  0  0  0  0  0  0  0  0
    8.0515   -2.9350   -4.3705 H   0  0  0  0  0  0  0  0  0  0  0  0
    6.8005   -4.1148   -3.9632 H   0  0  0  0  0  0  0  0  0  0  0  0
    7.9722   -3.5932   -2.7377 H   0  0  0  0  0  0  0  0  0  0  0  0
    5.5685    2.8906    0.0214 H   0  0  0  0  0  0  0  0  0  0  0  0
    7.0822    3.1204    0.9248 H   0  0  0  0  0  0  0  0  0  0  0  0
    5.6791    2.3801    1.7213 H   0  0  0  0  0  0  0  0  0  0  0  0
    4.3292   -0.0237   -2.1589 H   0  0  0  0  0  0  0  0  0  0  0  0
    1.8285   -0.0169   -2.1639 H   0  0  0  0  0  0  0  0  0  0  0  0
  2  1  1  0  0  0  0
  2  3  2  0  0  0  0
  3 28  1  0  0  0  0
  4  3  1  0  0  0  0
  4  5  1  0  0  0  0
  5  7  1  0  0  0  0
  5  6  2  0  0  0  0
  7  8  2  0  0  0  0
  8  9  1  0  0  0  0
  8 29  1  0  0  0  0
  9 30  1  0  0  0  0
 10 31  1  0  0  0  0
 10  9  2  0  0  0  0
 11 10  1  0  0  0  0
 12 11  2  0  0  0  0
 12  7  1  0  0  0  0
 13  4  2  0  0  0  0
 14 13  1  0  0  0  0
 14 15  1  0  0  0  0
 15 25  1  0  0  0  0
 16 15  2  0  0  0  0
 17 16  1  0  0  0  0
 18 17  2  0  0  0  0
 18 14  1  0  0  0  0
 19 18  1  0  0  0  0
 19 34  1  0  0  0  0
 20 19  1  0  0  0  0
 21 20  1  0  0  0  0
 21 22  1  0  0  0  0
 21 37  1  0  0  0  0
 22 40  1  0  0  0  0
 23 41  1  0  0  0  0
 23 20  1  0  0  0  0
 24 23  1  0  0  0  0
 24 45  1  0  0  0  0
 25 47  1  0  0  0  0
 25 48  1  0  0  0  0
 26 13  1  0  0  0  0
 27 26  2  0  0  0  0
 27  2  1  0  0  0  0
 32 11  1  0  0  0  0
 33 12  1  0  0  0  0
 35 19  1  0  0  0  0
 36 21  1  0  0  0  0
 38 22  1  0  0  0  0
 39 22  1  0  0  0  0
 42 23  1  0  0  0  0
 43 24  1  0  0  0  0
 44 24  1  0  0  0  0
 46 25  1  0  0  0  0
 49 26  1  0  0  0  0
 50 27  1  0  0  0  0
M  END
$$$$
