rmsd65.gzmat
 OpenBabel08211713393D

 50 52  0  0  0  0  0  0  0  0999 V2000
    0.0000    0.0000    0.0000 Cl  0  0  0  0  0  0  0  0  0  0  0  0
    1.7090    0.0000    0.0000 C   0  0  0  0  0  0  0  0  0  0  0  0
    2.3710    0.0000    1.2212 C   0  0  0  0  0  0  0  0  0  0  0  0
    3.7629   -0.0216    1.2167 C   0  0  0  0  0  0  0  0  0  0  0  0
    4.4926   -0.0764    2.5190 C   0  0  0  0  0  0  0  0  0  0  0  0
    4.4672    0.8477    3.2905 O   0  0  0  0  0  0  0  0  0  0  0  0
    5.2521   -1.3231    2.7583 C   0  0  0  0  0  0  0  0  0  0  0  0
    4.6649   -2.5648    2.5117 C   0  0  0  0  0  0  0  0  0  0  0  0
    5.4171   -3.7241    2.6783 C   0  0  0  0  0  0  0  0  0  0  0  0
    6.7498   -3.6380    3.0837 C   0  0  0  0  0  0  0  0  0  0  0  0
    7.3281   -2.3965    3.3401 C   0  0  0  0  0  0  0  0  0  0  0  0
    6.5751   -1.2333    3.1905 C   0  0  0  0  0  0  0  0  0  0  0  0
    4.4563   -0.0144   -0.0012 C   0  0  0  0  0  0  0  0  0  0  0  0
    5.8750   -0.0119   -0.0118 N   0  0  0  0  0  0  0  0  0  0  0  0
    6.7182    1.0724    0.3096 C   0  0  0  0  0  0  0  0  0  0  0  0
    7.9915    0.6511    0.1597 N   0  0  0  0  0  0  0  0  0  0  0  0
    7.9979   -0.6340   -0.2350 N   0  0  0  0  0  0  0  0  0  0  0  0
    6.7284   -1.0766   -0.3519 C   0  0  0  0  0  0  0  0  0  0  0  0
    6.3040   -2.4610   -0.6931 C   0  0  0  0  0  0  0  0  0  0  0  0
    5.4272   -2.4369   -1.8856 N   0  0  0  0  0  0  0  0  0  0  0  0
    4.6102   -3.6718   -1.9838 C   0  0  0  0  0  0  0  0  0  0  0  0
    3.4733   -3.6262   -0.9547 C   0  0  0  0  0  0  0  0  0  0  0  0
    6.1906   -2.1659   -3.1242 C   0  0  0  0  0  0  0  0  0  0  0  0
    7.1825   -3.2521   -3.5577 C   0  0  0  0  0  0  0  0  0  0  0  0
    6.2464    2.3981    0.7312 C   0  0  0  0  0  0  0  0  0  0  0  0
    3.7662   -0.0087   -1.2201 C   0  0  0  0  0  0  0  0  0  0  0  0
    2.3742   -0.0072   -1.2201 C   0  0  0  0  0  0  0  0  0  0  0  0
    1.8234    0.0200    2.1673 H   0  0  0  0  0  0  0  0  0  0  0  0
    3.6254   -2.6257    2.1891 H   0  0  0  0  0  0  0  0  0  0  0  0
    4.9663   -4.6968    2.4925 H   0  0  0  0  0  0  0  0  0  0  0  0
    7.3399   -4.5460    3.2012 H   0  0  0  0  0  0  0  0  0  0  0  0
    8.3711   -2.3299    3.6486 H   0  0  0  0  0  0  0  0  0  0  0  0
    7.0211   -0.2575    3.3948 H   0  0  0  0  0  0  0  0  0  0  0  0
    5.7415   -2.8937    0.1737 H   0  0  0  0  0  0  0  0  0  0  0  0
    7.2113   -3.1021   -0.8260 H   0  0  0  0  0  0  0  0  0  0  0  0
    5.2124   -4.5954   -1.8502 H   0  0  0  0  0  0  0  0  0  0  0  0
    4.1749   -3.7177   -3.0073 H   0  0  0  0  0  0  0  0  0  0  0  0
    3.8319   -3.8096    0.0633 H   0  0  0  0  0  0  0  0  0  0  0  0
    2.7118   -4.3789   -1.1806 H   0  0  0  0  0  0  0  0  0  0  0  0
    2.9826   -2.6430   -0.9585 H   0  0  0  0  0  0  0  0  0  0  0  0
    6.7348   -1.2030   -2.9770 H   0  0  0  0  0  0  0  0  0  0  0  0
    5.4467   -1.9837   -3.9319 H   0  0  0  0  0  0  0  0  0  0  0  0
    7.9780   -3.3911   -2.8153 H   0  0  0  0  0  0  0  0  0  0  0  0
    7.6718   -2.9770   -4.4997 H   0  0  0  0  0  0  0  0  0  0  0  0
    6.6922   -4.2179   -3.7102 H   0  0  0  0  0  0  0  0  0  0  0  0
    5.6178    2.8796   -0.0349 H   0  0  0  0  0  0  0  0  0  0  0  0
    7.0980    3.0762    0.9278 H   0  0  0  0  0  0  0  0  0  0  0  0
    5.6531    2.3531    1.6636 H   0  0  0  0  0  0  0  0  0  0  0  0
    4.3263   -0.0377   -2.1593 H   0  0  0  0  0  0  0  0  0  0  0  0
    1.8276   -0.0137   -2.1646 H   0  0  0  0  0  0  0  0  0  0  0  0
  2  1  1  0  0  0  0
  2  3  2  0  0  0  0
  3 28  1  0  0  0  0
  4  3  1  0  0  0  0
  4  5  1  0  0  0  0
  5  7  1  0  0  0  0
  5  6  2  0  0  0  0
  7 12  2  0  0  0  0
  8  9  2  0  0  0  0
  8  7  1  0  0  0  0
  9 10  1  0  0  0  0
 10 31  1  0  0  0  0
 10 11  2  0  0  0  0
 11 32  1  0  0  0  0
 12 11  1  0  0  0  0
 12 33  1  0  0  0  0
 13  4  2  0  0  0  0
 14 13  1  0  0  0  0
 14 15  1  0  0  0  0
 15 25  1  0  0  0  0
 16 15  2  0  0  0  0
 17 16  1  0  0  0  0
 18 17  2  0  0  0  0
 18 14  1  0  0  0  0
 19 18  1  0  0  0  0
 19 34  1  0  0  0  0
 20 19  1  0  0  0  0
 21 20  1  0  0  0  0
 21 36  1  0  0  0  0
 21 22  1  0  0  0  0
 22 38  1  0  0  0  0
 23 41  1  0  0  0  0
 23 20  1  0  0  0  0
 24 23  1  0  0  0  0
 24 43  1  0  0  0  0
 25 47  1  0  0  0  0
 25 48  1  0  0  0  0
 26 27  2  0  0  0  0
 26 13  1  0  0  0  0
 27  2  1  0  0  0  0
 29  8  1  0  0  0  0
 30  9  1  0  0  0  0
 35 19  1  0  0  0  0
 37 21  1  0  0  0  0
 39 22  1  0  0  0  0
 40 22  1  0  0  0  0
 42 23  1  0  0  0  0
 44 24  1  0  0  0  0
 45 24  1  0  0  0  0
 46 25  1  0  0  0  0
 49 26  1  0  0  0  0
 50 27  1  0  0  0  0
M  END
$$$$
