rmsd80.gzmat
 OpenBabel08211713393D

 50 52  0  0  0  0  0  0  0  0999 V2000
    0.0000    0.0000    0.0000 Cl  0  0  0  0  0  0  0  0  0  0  0  0
    1.7093    0.0000    0.0000 C   0  0  0  0  0  0  0  0  0  0  0  0
    2.3698    0.0000    1.2221 C   0  0  0  0  0  0  0  0  0  0  0  0
    3.7611    0.0184    1.2168 C   0  0  0  0  0  0  0  0  0  0  0  0
    4.5039    0.0976    2.5108 C   0  0  0  0  0  0  0  0  0  0  0  0
    4.5773   -0.8449    3.2555 O   0  0  0  0  0  0  0  0  0  0  0  0
    5.1585    1.4005    2.7648 C   0  0  0  0  0  0  0  0  0  0  0  0
    4.4724    2.5941    2.5344 C   0  0  0  0  0  0  0  0  0  0  0  0
    5.1280    3.8086    2.7144 C   0  0  0  0  0  0  0  0  0  0  0  0
    6.4649    3.8264    3.1145 C   0  0  0  0  0  0  0  0  0  0  0  0
    7.1424    2.6328    3.3546 C   0  0  0  0  0  0  0  0  0  0  0  0
    6.4859    1.4138    3.1927 C   0  0  0  0  0  0  0  0  0  0  0  0
    4.4548    0.0006   -0.0008 C   0  0  0  0  0  0  0  0  0  0  0  0
    5.8733   -0.0119   -0.0030 N   0  0  0  0  0  0  0  0  0  0  0  0
    6.7119   -1.1065    0.2919 C   0  0  0  0  0  0  0  0  0  0  0  0
    7.9866   -0.6767    0.1835 N   0  0  0  0  0  0  0  0  0  0  0  0
    7.9975    0.6241   -0.1592 N   0  0  0  0  0  0  0  0  0  0  0  0
    6.7299    1.0675   -0.2826 C   0  0  0  0  0  0  0  0  0  0  0  0
    6.2895    2.4577   -0.5831 C   0  0  0  0  0  0  0  0  0  0  0  0
    5.4732    2.4517   -1.8136 N   0  0  0  0  0  0  0  0  0  0  0  0
    6.2881    2.3081   -3.0364 C   0  0  0  0  0  0  0  0  0  0  0  0
    7.2017    3.4809   -3.4095 C   0  0  0  0  0  0  0  0  0  0  0  0
    4.4860    3.5485   -1.8494 C   0  0  0  0  0  0  0  0  0  0  0  0
    4.9677    4.9295   -1.3844 C   0  0  0  0  0  0  0  0  0  0  0  0
    6.2312   -2.4455    0.6574 C   0  0  0  0  0  0  0  0  0  0  0  0
    3.7669    0.0045   -1.2204 C   0  0  0  0  0  0  0  0  0  0  0  0
    2.3750    0.0089   -1.2199 C   0  0  0  0  0  0  0  0  0  0  0  0
    1.8218   -0.0151    2.1672 H   0  0  0  0  0  0  0  0  0  0  0  0
    3.4308    2.5759    2.2143 H   0  0  0  0  0  0  0  0  0  0  0  0
    4.5978    4.7433    2.5440 H   0  0  0  0  0  0  0  0  0  0  0  0
    6.9797    4.7777    3.2426 H   0  0  0  0  0  0  0  0  0  0  0  0
    8.1874    2.6473    3.6632 H   0  0  0  0  0  0  0  0  0  0  0  0
    7.0111    0.4751    3.3852 H   0  0  0  0  0  0  0  0  0  0  0  0
    7.1860    3.1233   -0.6492 H   0  0  0  0  0  0  0  0  0  0  0  0
    5.6776    2.8397    0.2742 H   0  0  0  0  0  0  0  0  0  0  0  0
    5.5833    2.0973   -3.8725 H   0  0  0  0  0  0  0  0  0  0  0  0
    6.9075    1.3868   -2.9088 H   0  0  0  0  0  0  0  0  0  0  0  0
    6.6293    4.3753   -3.6721 H   0  0  0  0  0  0  0  0  0  0  0  0
    7.8255    3.2237   -4.2736 H   0  0  0  0  0  0  0  0  0  0  0  0
    7.8830    3.7396   -2.5907 H   0  0  0  0  0  0  0  0  0  0  0  0
    3.6357    3.2196   -1.2048 H   0  0  0  0  0  0  0  0  0  0  0  0
    4.0818    3.6187   -2.8833 H   0  0  0  0  0  0  0  0  0  0  0  0
    5.1131    4.9660   -0.2995 H   0  0  0  0  0  0  0  0  0  0  0  0
    4.2349    5.7026   -1.6397 H   0  0  0  0  0  0  0  0  0  0  0  0
    5.9172    5.2099   -1.8521 H   0  0  0  0  0  0  0  0  0  0  0  0
    5.6433   -2.4319    1.5952 H   0  0  0  0  0  0  0  0  0  0  0  0
    7.0773   -3.1388    0.8217 H   0  0  0  0  0  0  0  0  0  0  0  0
    5.5933   -2.8885   -0.1243 H   0  0  0  0  0  0  0  0  0  0  0  0
    4.3287    0.0346   -2.1585 H   0  0  0  0  0  0  0  0  0  0  0  0
    1.8277    0.0209   -2.1639 H   0  0  0  0  0  0  0  0  0  0  0  0
  1  2  1  0  0  0  0
  2  3  2  0  0  0  0
  3 28  1  0  0  0  0
  4  3  1  0  0  0  0
  4  5  1  0  0  0  0
  5  7  1  0  0  0  0
  5  6  2  0  0  0  0
  7 12  2  0  0  0  0
  8  9  2  0  0  0  0
  8  7  1  0  0  0  0
  9 10  1  0  0  0  0
 10 31  1  0  0  0  0
 10 11  2  0  0  0  0
 11 32  1  0  0  0  0
 12 11  1  0  0  0  0
 12 33  1  0  0  0  0
 13  4  2  0  0  0  0
 14 13  1  0  0  0  0
 14 15  1  0  0  0  0
 15 25  1  0  0  0  0
 16 15  2  0  0  0  0
 17 16  1  0  0  0  0
 18 17  2  0  0  0  0
 18 14  1  0  0  0  0
 19 18  1  0  0  0  0
 19 35  1  0  0  0  0
 20 19  1  0  0  0  0
 21 37  1  0  0  0  0
 21 20  1  0  0  0  0
 22 21  1  0  0  0  0
 22 40  1  0  0  0  0
 23 20  1  0  0  0  0
 23 24  1  0  0  0  0
 23 41  1  0  0  0  0
 24 43  1  0  0  0  0
 25 47  1  0  0  0  0
 25 46  1  0  0  0  0
 26 27  2  0  0  0  0
 26 13  1  0  0  0  0
 27  2  1  0  0  0  0
 29  8  1  0  0  0  0
 30  9  1  0  0  0  0
 34 19  1  0  0  0  0
 36 21  1  0  0  0  0
 38 22  1  0  0  0  0
 39 22  1  0  0  0  0
 42 23  1  0  0  0  0
 44 24  1  0  0  0  0
 45 24  1  0  0  0  0
 48 25  1  0  0  0  0
 49 26  1  0  0  0  0
 50 27  1  0  0  0  0
M  END
$$$$
