50
rmsd182.gzmat
Cl         0.00000        0.00000        0.00000
C          1.70900        0.00000        0.00000
C          2.36890        0.00000        1.22260
C          3.76010       -0.02800        1.21810
C          4.49860       -0.10640        2.51470
O          4.58060        0.83990        3.25320
C          5.13400       -1.41720        2.77770
C          4.40980       -2.59870        2.61220
C          5.04470       -3.82390        2.79380
C          6.39930       -3.86460        3.12700
C          7.11490       -2.68200        3.30430
C          6.47880       -1.45200        3.14480
C          4.45440       -0.02090        0.00090
N          5.87310       -0.02290       -0.00040
C          6.71990        1.06830        0.28430
N          7.99140        0.62860        0.17920
N          7.99250       -0.67500       -0.15160
C          6.72120       -1.11080       -0.27030
C          6.27550       -2.49950       -0.56110
N          5.43210       -2.50310       -1.77800
C          4.61240       -3.73650       -1.86610
C          3.44740       -3.65450       -0.87120
C          6.22780       -2.26420       -3.00230
C          7.27510       -3.32950       -3.34690
C          6.24680        2.41290        0.63880
C          3.76700       -0.01870       -1.21910
C          2.37500       -0.01320       -1.21950
H          1.82020        0.02290        2.16720
H          3.35460       -2.56180        2.34290
H          4.48480       -4.74960        2.67710
H          6.89790       -4.82490        3.25270
H          8.17330       -2.71410        3.56180
H          7.03280       -0.52180        3.29260
H          5.67540       -2.88090        0.30540
H          7.16910       -3.16800       -0.63840
H          5.20500       -4.65900       -1.69070
H          4.20500       -3.80900       -2.89950
H          3.78070       -3.77680        0.16460
H          2.70340       -4.43020       -1.07600
H          2.94460       -2.68020       -0.94090
H          6.73020       -1.27530       -2.88180
H          5.50880       -2.14800       -3.84390
H          8.05420       -3.39080       -2.57590
H          7.78050       -3.08770       -4.28940
H          6.83010       -4.32230       -3.45580
H          5.60310        2.84850       -0.14240
H          7.09680        3.10490        0.78800
H          5.66680        2.41160        1.58190
H          4.32790       -0.05530       -2.15740
H          1.82890       -0.02260       -2.16430
