
     RDKit          3D

 50 52  0  0  0  0  0  0  0  0999 V2000
   -0.1144    0.2905    0.1514 Cl  0  0  0  0  0  0  0  0  0  0  0  0
    1.6211    0.1464    0.0887 C   0  0  0  0  0  0  0  0  0  0  0  0
    2.3548    0.1328    1.2764 C   0  0  0  0  0  0  0  0  0  0  0  0
    3.7442   -0.0152    1.2309 C   0  0  0  0  0  0  0  0  0  0  0  0
    4.5322   -0.0128    2.5213 C   0  0  0  0  0  0  0  0  0  0  0  0
    4.4239    0.9216    3.2929 O   0  0  0  0  0  0  0  0  0  0  0  0
    5.4418   -1.1619    2.7807 C   0  0  0  0  0  0  0  0  0  0  0  0
    6.5997   -0.9510    3.5452 C   0  0  0  0  0  0  0  0  0  0  0  0
    7.4741   -2.0071    3.7893 C   0  0  0  0  0  0  0  0  0  0  0  0
    7.1777   -3.2875    3.3081 C   0  0  0  0  0  0  0  0  0  0  0  0
    6.0098   -3.5095    2.5728 C   0  0  0  0  0  0  0  0  0  0  0  0
    5.1522   -2.4453    2.2933 C   0  0  0  0  0  0  0  0  0  0  0  0
    4.3967   -0.0848   -0.0143 C   0  0  0  0  0  0  0  0  0  0  0  0
    5.8179   -0.1372   -0.0530 N   0  0  0  0  0  0  0  0  0  0  0  0
    6.6821    0.8666    0.3633 C   0  0  0  0  0  0  0  0  0  0  0  0
    7.9100    0.4096    0.3553 N   0  0  0  0  0  0  0  0  0  0  0  0
    7.8785   -0.9000   -0.0525 N   0  0  0  0  0  0  0  0  0  0  0  0
    6.6353   -1.2297   -0.3038 C   0  0  0  0  0  0  0  0  0  0  0  0
    6.1794   -2.5573   -0.8518 C   0  0  0  0  0  0  0  0  0  0  0  0
    6.6689   -2.9105   -2.1717 N   0  0  0  0  0  0  0  0  0  0  0  0
    8.1088   -3.1199   -2.2987 C   0  0  0  0  0  0  0  0  0  0  0  0
    8.6720   -4.0980   -1.2743 C   0  0  0  0  0  0  0  0  0  0  0  0
    6.0625   -2.2021   -3.2863 C   0  0  0  0  0  0  0  0  0  0  0  0
    6.5473   -0.7706   -3.5698 C   0  0  0  0  0  0  0  0  0  0  0  0
    6.2597    2.2537    0.7022 C   0  0  0  0  0  0  0  0  0  0  0  0
    3.6520   -0.0422   -1.1969 C   0  0  0  0  0  0  0  0  0  0  0  0
    2.2618    0.0552   -1.1511 C   0  0  0  0  0  0  0  0  0  0  0  0
    1.8502    0.2256    2.2387 H   0  0  0  0  0  0  0  0  0  0  0  0
    6.8077    0.0533    3.9174 H   0  0  0  0  0  0  0  0  0  0  0  0
    8.3923   -1.8348    4.3546 H   0  0  0  0  0  0  0  0  0  0  0  0
    7.8627   -4.1154    3.5049 H   0  0  0  0  0  0  0  0  0  0  0  0
    5.7740   -4.5113    2.2071 H   0  0  0  0  0  0  0  0  0  0  0  0
    4.2482   -2.6106    1.7033 H   0  0  0  0  0  0  0  0  0  0  0  0
    5.0792   -2.5791   -0.8701 H   0  0  0  0  0  0  0  0  0  0  0  0
    6.4946   -3.3312   -0.1395 H   0  0  0  0  0  0  0  0  0  0  0  0
    8.6796   -2.1735   -2.2228 H   0  0  0  0  0  0  0  0  0  0  0  0
    8.2764   -3.5164   -3.3156 H   0  0  0  0  0  0  0  0  0  0  0  0
    8.6845   -3.6555   -0.2670 H   0  0  0  0  0  0  0  0  0  0  0  0
    9.7126   -4.3492   -1.5314 H   0  0  0  0  0  0  0  0  0  0  0  0
    8.0855   -5.0309   -1.2526 H   0  0  0  0  0  0  0  0  0  0  0  0
    4.9705   -2.1959   -3.1223 H   0  0  0  0  0  0  0  0  0  0  0  0
    6.2268   -2.8084   -4.1955 H   0  0  0  0  0  0  0  0  0  0  0  0
    6.3896   -0.0955   -2.7159 H   0  0  0  0  0  0  0  0  0  0  0  0
    6.0104   -0.3534   -4.4376 H   0  0  0  0  0  0  0  0  0  0  0  0
    7.6223   -0.7489   -3.8031 H   0  0  0  0  0  0  0  0  0  0  0  0
    5.7083    2.7152   -0.1326 H   0  0  0  0  0  0  0  0  0  0  0  0
    7.1642    2.8431    0.8988 H   0  0  0  0  0  0  0  0  0  0  0  0
    5.6125    2.2914    1.5914 H   0  0  0  0  0  0  0  0  0  0  0  0
    4.1708   -0.0712   -2.1549 H   0  0  0  0  0  0  0  0  0  0  0  0
    1.6740    0.0796   -2.0692 H   0  0  0  0  0  0  0  0  0  0  0  0
  1  2  1  0
  2  3  2  0
  2 27  1  0
  3  4  1  0
  3 28  1  0
  4  5  1  0
  4 13  2  0
  5  6  2  0
  5  7  1  0
  7  8  2  0
  7 12  1  0
  8  9  1  0
  8 29  1  0
  9 10  2  0
  9 30  1  0
 10 11  1  0
 10 31  1  0
 11 12  2  0
 11 32  1  0
 12 33  1  0
 13 14  1  0
 13 26  1  0
 14 15  1  0
 14 18  1  0
 15 16  2  0
 15 25  1  0
 16 17  1  0
 17 18  2  0
 18 19  1  0
 19 20  1  0
 19 34  1  0
 19 35  1  0
 20 21  1  0
 20 23  1  0
 21 22  1  0
 21 36  1  0
 21 37  1  0
 22 38  1  0
 22 39  1  0
 22 40  1  0
 23 24  1  0
 23 41  1  0
 23 42  1  0
 24 43  1  0
 24 44  1  0
 24 45  1  0
 25 46  1  0
 25 47  1  0
 25 48  1  0
 26 27  2  0
 26 49  1  0
 27 50  1  0
M  END

