rmsd182.gzmat
 OpenBabel08211713393D

 50 52  0  0  0  0  0  0  0  0999 V2000
    0.0000    0.0000    0.0000 Cl  0  0  0  0  0  0  0  0  0  0  0  0
    1.7090    0.0000    0.0000 C   0  0  0  0  0  0  0  0  0  0  0  0
    2.3689    0.0000    1.2226 C   0  0  0  0  0  0  0  0  0  0  0  0
    3.7601   -0.0280    1.2181 C   0  0  0  0  0  0  0  0  0  0  0  0
    4.4986   -0.1064    2.5147 C   0  0  0  0  0  0  0  0  0  0  0  0
    4.5806    0.8399    3.2532 O   0  0  0  0  0  0  0  0  0  0  0  0
    5.1340   -1.4172    2.7777 C   0  0  0  0  0  0  0  0  0  0  0  0
    4.4098   -2.5987    2.6122 C   0  0  0  0  0  0  0  0  0  0  0  0
    5.0447   -3.8239    2.7938 C   0  0  0  0  0  0  0  0  0  0  0  0
    6.3993   -3.8646    3.1270 C   0  0  0  0  0  0  0  0  0  0  0  0
    7.1149   -2.6820    3.3043 C   0  0  0  0  0  0  0  0  0  0  0  0
    6.4788   -1.4520    3.1448 C   0  0  0  0  0  0  0  0  0  0  0  0
    4.4544   -0.0209    0.0009 C   0  0  0  0  0  0  0  0  0  0  0  0
    5.8731   -0.0229   -0.0004 N   0  0  0  0  0  0  0  0  0  0  0  0
    6.7199    1.0683    0.2843 C   0  0  0  0  0  0  0  0  0  0  0  0
    7.9914    0.6286    0.1792 N   0  0  0  0  0  0  0  0  0  0  0  0
    7.9925   -0.6750   -0.1516 N   0  0  0  0  0  0  0  0  0  0  0  0
    6.7212   -1.1108   -0.2703 C   0  0  0  0  0  0  0  0  0  0  0  0
    6.2755   -2.4995   -0.5611 C   0  0  0  0  0  0  0  0  0  0  0  0
    5.4321   -2.5031   -1.7780 N   0  0  0  0  0  0  0  0  0  0  0  0
    4.6124   -3.7365   -1.8661 C   0  0  0  0  0  0  0  0  0  0  0  0
    3.4474   -3.6545   -0.8712 C   0  0  0  0  0  0  0  0  0  0  0  0
    6.2278   -2.2642   -3.0023 C   0  0  0  0  0  0  0  0  0  0  0  0
    7.2751   -3.3295   -3.3469 C   0  0  0  0  0  0  0  0  0  0  0  0
    6.2468    2.4129    0.6388 C   0  0  0  0  0  0  0  0  0  0  0  0
    3.7670   -0.0187   -1.2191 C   0  0  0  0  0  0  0  0  0  0  0  0
    2.3750   -0.0132   -1.2195 C   0  0  0  0  0  0  0  0  0  0  0  0
    1.8202    0.0229    2.1672 H   0  0  0  0  0  0  0  0  0  0  0  0
    3.3546   -2.5618    2.3429 H   0  0  0  0  0  0  0  0  0  0  0  0
    4.4848   -4.7496    2.6771 H   0  0  0  0  0  0  0  0  0  0  0  0
    6.8979   -4.8249    3.2527 H   0  0  0  0  0  0  0  0  0  0  0  0
    8.1733   -2.7141    3.5618 H   0  0  0  0  0  0  0  0  0  0  0  0
    7.0328   -0.5218    3.2926 H   0  0  0  0  0  0  0  0  0  0  0  0
    5.6754   -2.8809    0.3054 H   0  0  0  0  0  0  0  0  0  0  0  0
    7.1691   -3.1680   -0.6384 H   0  0  0  0  0  0  0  0  0  0  0  0
    5.2050   -4.6590   -1.6907 H   0  0  0  0  0  0  0  0  0  0  0  0
    4.2050   -3.8090   -2.8995 H   0  0  0  0  0  0  0  0  0  0  0  0
    3.7807   -3.7768    0.1646 H   0  0  0  0  0  0  0  0  0  0  0  0
    2.7034   -4.4302   -1.0760 H   0  0  0  0  0  0  0  0  0  0  0  0
    2.9446   -2.6802   -0.9409 H   0  0  0  0  0  0  0  0  0  0  0  0
    6.7302   -1.2753   -2.8818 H   0  0  0  0  0  0  0  0  0  0  0  0
    5.5088   -2.1480   -3.8439 H   0  0  0  0  0  0  0  0  0  0  0  0
    8.0542   -3.3908   -2.5759 H   0  0  0  0  0  0  0  0  0  0  0  0
    7.7805   -3.0877   -4.2894 H   0  0  0  0  0  0  0  0  0  0  0  0
    6.8301   -4.3223   -3.4558 H   0  0  0  0  0  0  0  0  0  0  0  0
    5.6031    2.8485   -0.1424 H   0  0  0  0  0  0  0  0  0  0  0  0
    7.0968    3.1049    0.7880 H   0  0  0  0  0  0  0  0  0  0  0  0
    5.6668    2.4116    1.5819 H   0  0  0  0  0  0  0  0  0  0  0  0
    4.3279   -0.0553   -2.1574 H   0  0  0  0  0  0  0  0  0  0  0  0
    1.8289   -0.0226   -2.1643 H   0  0  0  0  0  0  0  0  0  0  0  0
  2  1  1  0  0  0  0
  2  3  2  0  0  0  0
  3 28  1  0  0  0  0
  4  3  1  0  0  0  0
  4  5  1  0  0  0  0
  5  7  1  0  0  0  0
  5  6  2  0  0  0  0
  7 12  1  0  0  0  0
  8  7  2  0  0  0  0
  8  9  1  0  0  0  0
  9 10  2  0  0  0  0
 10 31  1  0  0  0  0
 10 11  1  0  0  0  0
 11 32  1  0  0  0  0
 12 33  1  0  0  0  0
 12 11  2  0  0  0  0
 13  4  2  0  0  0  0
 14 13  1  0  0  0  0
 14 15  1  0  0  0  0
 15 25  1  0  0  0  0
 16 15  2  0  0  0  0
 17 16  1  0  0  0  0
 18 17  2  0  0  0  0
 18 14  1  0  0  0  0
 19 18  1  0  0  0  0
 19 34  1  0  0  0  0
 20 19  1  0  0  0  0
 21 20  1  0  0  0  0
 21 36  1  0  0  0  0
 21 22  1  0  0  0  0
 22 38  1  0  0  0  0
 23 41  1  0  0  0  0
 23 20  1  0  0  0  0
 24 23  1  0  0  0  0
 24 43  1  0  0  0  0
 25 47  1  0  0  0  0
 25 48  1  0  0  0  0
 26 13  1  0  0  0  0
 27 26  2  0  0  0  0
 27  2  1  0  0  0  0
 29  8  1  0  0  0  0
 30  9  1  0  0  0  0
 35 19  1  0  0  0  0
 37 21  1  0  0  0  0
 39 22  1  0  0  0  0
 40 22  1  0  0  0  0
 42 23  1  0  0  0  0
 44 24  1  0  0  0  0
 45 24  1  0  0  0  0
 46 25  1  0  0  0  0
 49 26  1  0  0  0  0
 50 27  1  0  0  0  0
M  END
$$$$
