16
rmsd137.gzmat
C          0.00000        0.00000        0.00000
O          1.19650        0.00000        0.00000
O         -0.73880        0.00000       -1.13120
C         -0.94050       -0.03380        1.20290
O         -1.14180        0.96550        1.83130
C         -1.52000       -1.38010        1.49260
C         -2.56100       -1.29590        2.60490
C         -3.00640       -2.66880        2.99370
O         -2.55260       -3.73060        2.65830
O         -4.06410       -2.59580        3.84120
H         -0.20240        0.05040       -1.96440
H         -0.70990       -2.09940        1.76910
H         -1.96780       -1.81710        0.56820
H         -3.43230       -0.67350        2.29480
H         -2.15460       -0.76180        3.49760
H         -4.39960       -3.47820        4.13690
