rmsd137.gzmat
 OpenBabel08211713423D

 16 15  0  0  0  0  0  0  0  0999 V2000
    0.0000    0.0000    0.0000 C   0  0  0  0  0  0  0  0  0  0  0  0
    1.1965    0.0000    0.0000 O   0  0  0  0  0  0  0  0  0  0  0  0
   -0.7388    0.0000   -1.1312 O   0  0  0  0  0  0  0  0  0  0  0  0
   -0.9405   -0.0338    1.2029 C   0  0  0  0  0  0  0  0  0  0  0  0
   -1.1418    0.9655    1.8313 O   0  0  0  0  0  0  0  0  0  0  0  0
   -1.5200   -1.3801    1.4926 C   0  0  0  0  0  0  0  0  0  0  0  0
   -2.5610   -1.2959    2.6049 C   0  0  0  0  0  0  0  0  0  0  0  0
   -3.0064   -2.6688    2.9937 C   0  0  0  0  0  0  0  0  0  0  0  0
   -2.5526   -3.7306    2.6583 O   0  0  0  0  0  0  0  0  0  0  0  0
   -4.0641   -2.5958    3.8412 O   0  0  0  0  0  0  0  0  0  0  0  0
   -0.2024    0.0504   -1.9644 H   0  0  0  0  0  0  0  0  0  0  0  0
   -0.7099   -2.0994    1.7691 H   0  0  0  0  0  0  0  0  0  0  0  0
   -1.9678   -1.8171    0.5682 H   0  0  0  0  0  0  0  0  0  0  0  0
   -3.4323   -0.6735    2.2948 H   0  0  0  0  0  0  0  0  0  0  0  0
   -2.1546   -0.7618    3.4976 H   0  0  0  0  0  0  0  0  0  0  0  0
   -4.3996   -3.4782    4.1369 H   0  0  0  0  0  0  0  0  0  0  0  0
  1  2  2  0  0  0  0
  1  4  1  0  0  0  0
  3  1  1  0  0  0  0
  4  6  1  0  0  0  0
  4  5  2  0  0  0  0
  6 12  1  0  0  0  0
  6  7  1  0  0  0  0
  7  8  1  0  0  0  0
  7 15  1  0  0  0  0
  8 10  1  0  0  0  0
  9  8  2  0  0  0  0
 10 16  1  0  0  0  0
 11  3  1  0  0  0  0
 13  6  1  0  0  0  0
 14  7  1  0  0  0  0
M  END
$$$$
