16
rmsd95.gzmat
C          0.00000        0.00000        0.00000
O          1.19750        0.00000        0.00000
O         -0.74000        0.00000       -1.12830
C         -0.92860        0.02900        1.21200
O         -1.26470       -0.99700        1.73060
C         -1.32230        1.40010        1.65860
C         -2.05680        1.34040        2.99490
C         -2.63780        2.67640        3.32850
O         -2.66300        3.67640        2.66150
O         -3.18950        2.64670        4.56890
H         -0.20440       -0.04950       -1.96270
H         -1.96620        1.87970        0.87820
H         -0.43430        2.07070        1.72710
H         -1.38120        0.99470        3.81110
H         -2.86660        0.57050        2.97330
H         -3.60100        3.50320        4.84420
