16
rmsd83.gzmat
C          0.00000        0.00000        0.00000
O          1.19700        0.00000        0.00000
O         -0.73990        0.00000       -1.12990
C         -0.93530        0.03390        1.20710
O         -1.14480       -0.96800        1.82880
C         -1.50360        1.38270        1.50740
C         -2.22740        1.38190        2.85060
C         -2.88910        2.70370        3.07550
O         -3.06070        3.60280        2.29570
O         -3.32290        2.79670        4.35820
H         -0.20580       -0.04720       -1.96480
H         -2.20230        1.68380        0.68520
H         -0.71130        2.16600        1.48910
H         -1.52870        1.14450        3.68690
H         -2.98880        0.56550        2.89650
H         -3.77840        3.65080        4.56530
