16
rmsd183.gzmat
C          0.00000        0.00000        0.00000
O          1.19640        0.00000        0.00000
O         -0.73660        0.00000       -1.13350
C         -0.94760        0.02380        1.19830
O         -1.05490       -0.94890        1.88840
C         -1.66690        1.31790        1.39660
C         -2.60890        1.23870        2.59400
C         -3.40360        2.49940        2.70780
O         -3.37590        3.47470        2.00550
O         -4.23750        2.42980        3.77700
H         -0.19910       -0.05310       -1.96550
H         -2.23060        1.58540        0.46740
H         -0.94370        2.15750        1.52000
H         -2.04790        1.04850        3.53900
H         -3.29270        0.36040        2.50930
H         -4.79540        3.23740        3.90230
