16
rmsd90.gzmat
C          0.00000        0.00000        0.00000
O          1.19680        0.00000        0.00000
O         -0.73880        0.00000       -1.13110
C         -0.93920       -0.03640        1.20410
O         -1.11170        0.95390        1.85520
C         -1.55820       -1.37100        1.46320
C         -2.43140       -1.33270        2.71370
C         -3.01050       -2.68550        2.97560
O         -2.83950       -3.70850        2.36760
O         -3.81870       -2.64520        4.06550
H         -0.20240        0.05520       -1.96410
H         -0.77460       -2.16040        1.55690
H         -2.15690       -1.69030        0.57430
H         -3.24430       -0.57560        2.61430
H         -1.85060       -0.98530        3.60110
H         -4.22740       -3.51730        4.29230
