16

C         -0.19070        0.19400       -0.23660
O          0.43190        1.17540       -0.55750
O         -0.13610       -0.98010       -0.86640
C         -1.15220        0.16450        0.97410
O         -1.69940       -0.85920        1.30100
C         -1.33260        1.49280        1.66090
C         -2.16540        1.39370        2.92760
C         -2.61380        2.74540        3.43070
O         -2.57700        3.77490        2.80320
O         -3.09690        2.67350        4.68570
H          0.48680       -0.87870       -1.60710
H         -1.79960        2.18910        0.94180
H         -0.34000        1.93610        1.84330
H         -1.63010        0.86950        3.73410
H         -3.06940        0.78760        2.74680
H         -3.39170        3.56920        4.92470
