16
rmsd88.gzmat
C          0.00000        0.00000        0.00000
O          1.19670        0.00000        0.00000
O         -0.73900        0.00000       -1.13060
C         -0.93720       -0.02970        1.20570
O         -1.18200        0.98340        1.79540
C         -1.45430       -1.38810        1.55260
C         -2.42860       -1.31500        2.72460
C         -2.80880       -2.69210        3.16480
O         -2.33680       -3.74680        2.83190
O         -3.82480       -2.63110        4.06300
H         -0.20230        0.05090       -1.96380
H         -0.60740       -2.07800        1.79040
H         -1.94360       -1.85330        0.66390
H         -3.33560       -0.72400        2.45860
H         -1.98550       -0.75300        3.58200
H         -4.11330       -3.51530        4.40100
