16

C         -0.13620        0.21380       -0.08570
O          0.41870        1.22800       -0.40230
O         -0.14390       -0.91200       -0.82290
C         -0.93590        0.04520        1.23300
O         -1.00370        0.98700        1.98120
C         -1.57910       -1.29390        1.49250
C         -2.33210       -1.33730        2.81110
C         -2.97170       -2.68090        3.06570
O         -2.91320       -3.63670        2.33180
O         -3.63590       -2.69980        4.23700
H          0.37190       -0.73770       -1.62970
H         -0.80010       -2.07370        1.44630
H         -2.23830       -1.53850        0.64240
H         -3.11720       -0.56480        2.85000
H         -1.66910       -1.10100        3.65910
H         -4.01690       -3.58980        4.33030
