rmsd76.gzmat
 OpenBabel08211713423D

 16 15  0  0  0  0  0  0  0  0999 V2000
    0.0000    0.0000    0.0000 C   0  0  0  0  0  0  0  0  0  0  0  0
    1.1977    0.0000    0.0000 O   0  0  0  0  0  0  0  0  0  0  0  0
   -0.7399    0.0000   -1.1281 O   0  0  0  0  0  0  0  0  0  0  0  0
   -0.9300    0.0381    1.2110 C   0  0  0  0  0  0  0  0  0  0  0  0
   -1.2744   -0.9819    1.7353 O   0  0  0  0  0  0  0  0  0  0  0  0
   -1.3130    1.4162    1.6434 C   0  0  0  0  0  0  0  0  0  0  0  0
   -2.1039    1.3787    2.9479 C   0  0  0  0  0  0  0  0  0  0  0  0
   -2.6954    2.7228    3.2277 C   0  0  0  0  0  0  0  0  0  0  0  0
   -2.8093    3.6649    2.4891 O   0  0  0  0  0  0  0  0  0  0  0  0
   -3.1403    2.7806    4.5089 O   0  0  0  0  0  0  0  0  0  0  0  0
   -0.2046   -0.0500   -1.9630 H   0  0  0  0  0  0  0  0  0  0  0  0
   -1.9117    1.9111    0.8360 H   0  0  0  0  0  0  0  0  0  0  0  0
   -0.4119    2.0633    1.7488 H   0  0  0  0  0  0  0  0  0  0  0  0
   -1.4668    1.0424    3.7982 H   0  0  0  0  0  0  0  0  0  0  0  0
   -2.9181    0.6144    2.9027 H   0  0  0  0  0  0  0  0  0  0  0  0
   -3.5546    3.6470    4.7486 H   0  0  0  0  0  0  0  0  0  0  0  0
  1  2  2  0  0  0  0
  1  4  1  0  0  0  0
  3  1  1  0  0  0  0
  4  6  1  0  0  0  0
  4  5  2  0  0  0  0
  6 13  1  0  0  0  0
  6  7  1  0  0  0  0
  7  8  1  0  0  0  0
  7 14  1  0  0  0  0
  8 10  1  0  0  0  0
  9  8  2  0  0  0  0
 10 16  1  0  0  0  0
 11  3  1  0  0  0  0
 12  6  1  0  0  0  0
 15  7  1  0  0  0  0
M  END
$$$$
