rmsd90.gzmat
 OpenBabel08211713423D

 16 15  0  0  0  0  0  0  0  0999 V2000
    0.0000    0.0000    0.0000 C   0  0  0  0  0  0  0  0  0  0  0  0
    1.1968    0.0000    0.0000 O   0  0  0  0  0  0  0  0  0  0  0  0
   -0.7388    0.0000   -1.1311 O   0  0  0  0  0  0  0  0  0  0  0  0
   -0.9392   -0.0364    1.2041 C   0  0  0  0  0  0  0  0  0  0  0  0
   -1.1117    0.9539    1.8552 O   0  0  0  0  0  0  0  0  0  0  0  0
   -1.5582   -1.3710    1.4632 C   0  0  0  0  0  0  0  0  0  0  0  0
   -2.4314   -1.3327    2.7137 C   0  0  0  0  0  0  0  0  0  0  0  0
   -3.0105   -2.6855    2.9756 C   0  0  0  0  0  0  0  0  0  0  0  0
   -2.8395   -3.7085    2.3676 O   0  0  0  0  0  0  0  0  0  0  0  0
   -3.8187   -2.6452    4.0655 O   0  0  0  0  0  0  0  0  0  0  0  0
   -0.2024    0.0552   -1.9641 H   0  0  0  0  0  0  0  0  0  0  0  0
   -0.7746   -2.1604    1.5569 H   0  0  0  0  0  0  0  0  0  0  0  0
   -2.1569   -1.6903    0.5743 H   0  0  0  0  0  0  0  0  0  0  0  0
   -3.2443   -0.5756    2.6143 H   0  0  0  0  0  0  0  0  0  0  0  0
   -1.8506   -0.9853    3.6011 H   0  0  0  0  0  0  0  0  0  0  0  0
   -4.2274   -3.5173    4.2923 H   0  0  0  0  0  0  0  0  0  0  0  0
  1  2  2  0  0  0  0
  1  4  1  0  0  0  0
  3  1  1  0  0  0  0
  4  6  1  0  0  0  0
  4  5  2  0  0  0  0
  6 12  1  0  0  0  0
  6  7  1  0  0  0  0
  7  8  1  0  0  0  0
  7 15  1  0  0  0  0
  8 10  1  0  0  0  0
  9  8  2  0  0  0  0
 10 16  1  0  0  0  0
 11  3  1  0  0  0  0
 13  6  1  0  0  0  0
 14  7  1  0  0  0  0
M  END
$$$$
