42
rmsd232.gzmat
N          0.00000        0.00000        0.00000
O          1.39950        0.00000        0.00000
C          2.02220        0.00000        1.23600
O          1.41550        0.05180        2.27160
C          3.47650       -0.08900        1.03200
C          4.00160       -0.93450        0.05450
C          5.38270       -1.03400       -0.09280
C          6.22590       -0.28490        0.72790
C          5.69440        0.55940        1.70270
C          4.31430        0.65760        1.86170
C         -0.56140       -1.23530        0.44160
O         -1.74330       -1.30130        0.66850
C          0.36920       -2.39170        0.44270
C          0.60160       -3.06500        1.64110
C          1.49340       -4.13560        1.66040
C          2.13450       -4.53100        0.48710
C          1.88240       -3.86430       -0.71180
C          0.99630       -2.78980       -0.73770
C         -0.53100        1.26650        0.40250
C         -1.33380        1.39610        1.54150
C         -1.88820        2.63210        1.85620
C         -1.62710        3.73860        1.05000
C         -0.81350        3.61280       -0.07250
C         -0.25570        2.37930       -0.41490
C          0.61440        2.26050       -1.61720
H          3.33640       -1.52240       -0.58260
H          5.80260       -1.69790       -0.84600
H          7.30610       -0.36160        0.60900
H          6.35830        1.13700        2.34360
H          3.88690        1.30470        2.63100
H          0.09700       -2.74870        2.55600
H          1.69000       -4.66070        2.59350
H          2.83390       -5.36520        0.50720
H          2.37550       -4.18410       -1.62700
H          0.79570       -2.25900       -1.66960
H         -1.52740        0.53300        2.18240
H         -2.52150        2.73300        2.73540
H         -2.05930        4.70590        1.30000
H         -0.61100        4.48520       -0.69060
H          0.39790        1.33790       -2.18260
H          1.67640        2.20640       -1.33170
H          0.50040        3.10270       -2.31050
