rmsd215.gzmat
 OpenBabel08211713383D

 42 44  0  0  0  0  0  0  0  0999 V2000
    0.0000    0.0000    0.0000 N   0  0  0  0  0  0  0  0  0  0  0  0
    1.4008    0.0000    0.0000 O   0  0  0  0  0  0  0  0  0  0  0  0
    2.0225    0.0000    1.2351 C   0  0  0  0  0  0  0  0  0  0  0  0
    1.4119   -0.0085    2.2711 O   0  0  0  0  0  0  0  0  0  0  0  0
    3.4792   -0.0046    1.0353 C   0  0  0  0  0  0  0  0  0  0  0  0
    4.2742    0.7471    1.9015 C   0  0  0  0  0  0  0  0  0  0  0  0
    5.6571    0.7390    1.7363 C   0  0  0  0  0  0  0  0  0  0  0  0
    6.2332   -0.0208    0.7184 C   0  0  0  0  0  0  0  0  0  0  0  0
    5.4323   -0.7726   -0.1410 C   0  0  0  0  0  0  0  0  0  0  0  0
    4.0484   -0.7648    0.0132 C   0  0  0  0  0  0  0  0  0  0  0  0
   -0.5711   -1.1954    0.5398 C   0  0  0  0  0  0  0  0  0  0  0  0
   -1.7361   -1.2053    0.8463 O   0  0  0  0  0  0  0  0  0  0  0  0
    0.3228   -2.3791    0.5342 C   0  0  0  0  0  0  0  0  0  0  0  0
    0.9470   -2.7841   -0.6456 C   0  0  0  0  0  0  0  0  0  0  0  0
    1.8074   -3.8786   -0.6236 C   0  0  0  0  0  0  0  0  0  0  0  0
    2.0380   -4.5598    0.5714 C   0  0  0  0  0  0  0  0  0  0  0  0
    1.4005   -4.1579    1.7443 C   0  0  0  0  0  0  0  0  0  0  0  0
    0.5335   -3.0673    1.7286 C   0  0  0  0  0  0  0  0  0  0  0  0
   -0.5060    1.2893    0.3743 C   0  0  0  0  0  0  0  0  0  0  0  0
   -0.9946    1.5421    1.6604 C   0  0  0  0  0  0  0  0  0  0  0  0
   -1.4833    2.8060    1.9730 C   0  0  0  0  0  0  0  0  0  0  0  0
   -1.4717    3.8138    1.0098 C   0  0  0  0  0  0  0  0  0  0  0  0
   -0.9877    3.5591   -0.2705 C   0  0  0  0  0  0  0  0  0  0  0  0
   -0.5012    2.2944   -0.6094 C   0  0  0  0  0  0  0  0  0  0  0  0
    0.0123    2.0246   -1.9801 C   0  0  0  0  0  0  0  0  0  0  0  0
    3.8119    1.3313    2.7005 H   0  0  0  0  0  0  0  0  0  0  0  0
    6.2871    1.3251    2.4034 H   0  0  0  0  0  0  0  0  0  0  0  0
    7.3156   -0.0265    0.5942 H   0  0  0  0  0  0  0  0  0  0  0  0
    5.8875   -1.3655   -0.9321 H   0  0  0  0  0  0  0  0  0  0  0  0
    3.4146   -1.3520   -0.6543 H   0  0  0  0  0  0  0  0  0  0  0  0
    0.7649   -2.2410   -1.5744 H   0  0  0  0  0  0  0  0  0  0  0  0
    2.2998   -4.2009   -1.5381 H   0  0  0  0  0  0  0  0  0  0  0  0
    2.7180   -5.4102    0.5876 H   0  0  0  0  0  0  0  0  0  0  0  0
    1.5810   -4.6927    2.6747 H   0  0  0  0  0  0  0  0  0  0  0  0
    0.0326   -2.7451    2.6435 H   0  0  0  0  0  0  0  0  0  0  0  0
   -0.9872    0.7505    2.4141 H   0  0  0  0  0  0  0  0  0  0  0  0
   -1.8707    3.0074    2.9695 H   0  0  0  0  0  0  0  0  0  0  0  0
   -1.8439    4.8062    1.2601 H   0  0  0  0  0  0  0  0  0  0  0  0
   -0.9889    4.3524   -1.0150 H   0  0  0  0  0  0  0  0  0  0  0  0
   -0.3908    1.0780   -2.3784 H   0  0  0  0  0  0  0  0  0  0  0  0
    1.1083    1.9136   -1.9748 H   0  0  0  0  0  0  0  0  0  0  0  0
   -0.2399    2.8146   -2.6970 H   0  0  0  0  0  0  0  0  0  0  0  0
  1  2  1  0  0  0  0
  1 19  1  0  0  0  0
  1 11  1  0  0  0  0
  2  3  1  0  0  0  0
  3  4  2  0  0  0  0
  5  3  1  0  0  0  0
  5  6  2  0  0  0  0
  6 26  1  0  0  0  0
  7  6  1  0  0  0  0
  7 27  1  0  0  0  0
  8  7  2  0  0  0  0
  9 10  2  0  0  0  0
  9  8  1  0  0  0  0
 10  5  1  0  0  0  0
 11 12  2  0  0  0  0
 13 11  1  0  0  0  0
 13 18  2  0  0  0  0
 14 15  2  0  0  0  0
 14 13  1  0  0  0  0
 15 16  1  0  0  0  0
 16 33  1  0  0  0  0
 16 17  2  0  0  0  0
 17 34  1  0  0  0  0
 18 17  1  0  0  0  0
 18 35  1  0  0  0  0
 19 20  2  0  0  0  0
 20 21  1  0  0  0  0
 20 36  1  0  0  0  0
 21 37  1  0  0  0  0
 22 38  1  0  0  0  0
 22 21  2  0  0  0  0
 23 22  1  0  0  0  0
 24 23  2  0  0  0  0
 24 19  1  0  0  0  0
 25 41  1  0  0  0  0
 25 24  1  0  0  0  0
 28  8  1  0  0  0  0
 29  9  1  0  0  0  0
 30 10  1  0  0  0  0
 31 14  1  0  0  0  0
 32 15  1  0  0  0  0
 39 23  1  0  0  0  0
 40 25  1  0  0  0  0
 42 25  1  0  0  0  0
M  END
$$$$
