rmsd232.gzmat
 OpenBabel08211713383D

 42 44  0  0  0  0  0  0  0  0999 V2000
    0.0000    0.0000    0.0000 N   0  0  0  0  0  0  0  0  0  0  0  0
    1.3995    0.0000    0.0000 O   0  0  0  0  0  0  0  0  0  0  0  0
    2.0222    0.0000    1.2360 C   0  0  0  0  0  0  0  0  0  0  0  0
    1.4155    0.0518    2.2716 O   0  0  0  0  0  0  0  0  0  0  0  0
    3.4765   -0.0890    1.0320 C   0  0  0  0  0  0  0  0  0  0  0  0
    4.0016   -0.9345    0.0545 C   0  0  0  0  0  0  0  0  0  0  0  0
    5.3827   -1.0340   -0.0928 C   0  0  0  0  0  0  0  0  0  0  0  0
    6.2259   -0.2849    0.7279 C   0  0  0  0  0  0  0  0  0  0  0  0
    5.6944    0.5594    1.7027 C   0  0  0  0  0  0  0  0  0  0  0  0
    4.3143    0.6576    1.8617 C   0  0  0  0  0  0  0  0  0  0  0  0
   -0.5614   -1.2353    0.4416 C   0  0  0  0  0  0  0  0  0  0  0  0
   -1.7433   -1.3013    0.6685 O   0  0  0  0  0  0  0  0  0  0  0  0
    0.3692   -2.3917    0.4427 C   0  0  0  0  0  0  0  0  0  0  0  0
    0.6016   -3.0650    1.6411 C   0  0  0  0  0  0  0  0  0  0  0  0
    1.4934   -4.1356    1.6604 C   0  0  0  0  0  0  0  0  0  0  0  0
    2.1345   -4.5310    0.4871 C   0  0  0  0  0  0  0  0  0  0  0  0
    1.8824   -3.8643   -0.7118 C   0  0  0  0  0  0  0  0  0  0  0  0
    0.9963   -2.7898   -0.7377 C   0  0  0  0  0  0  0  0  0  0  0  0
   -0.5310    1.2665    0.4025 C   0  0  0  0  0  0  0  0  0  0  0  0
   -1.3338    1.3961    1.5415 C   0  0  0  0  0  0  0  0  0  0  0  0
   -1.8882    2.6321    1.8562 C   0  0  0  0  0  0  0  0  0  0  0  0
   -1.6271    3.7386    1.0500 C   0  0  0  0  0  0  0  0  0  0  0  0
   -0.8135    3.6128   -0.0725 C   0  0  0  0  0  0  0  0  0  0  0  0
   -0.2557    2.3793   -0.4149 C   0  0  0  0  0  0  0  0  0  0  0  0
    0.6144    2.2605   -1.6172 C   0  0  0  0  0  0  0  0  0  0  0  0
    3.3364   -1.5224   -0.5826 H   0  0  0  0  0  0  0  0  0  0  0  0
    5.8026   -1.6979   -0.8460 H   0  0  0  0  0  0  0  0  0  0  0  0
    7.3061   -0.3616    0.6090 H   0  0  0  0  0  0  0  0  0  0  0  0
    6.3583    1.1370    2.3436 H   0  0  0  0  0  0  0  0  0  0  0  0
    3.8869    1.3047    2.6310 H   0  0  0  0  0  0  0  0  0  0  0  0
    0.0970   -2.7487    2.5560 H   0  0  0  0  0  0  0  0  0  0  0  0
    1.6900   -4.6607    2.5935 H   0  0  0  0  0  0  0  0  0  0  0  0
    2.8339   -5.3652    0.5072 H   0  0  0  0  0  0  0  0  0  0  0  0
    2.3755   -4.1841   -1.6270 H   0  0  0  0  0  0  0  0  0  0  0  0
    0.7957   -2.2590   -1.6696 H   0  0  0  0  0  0  0  0  0  0  0  0
   -1.5274    0.5330    2.1824 H   0  0  0  0  0  0  0  0  0  0  0  0
   -2.5215    2.7330    2.7354 H   0  0  0  0  0  0  0  0  0  0  0  0
   -2.0593    4.7059    1.3000 H   0  0  0  0  0  0  0  0  0  0  0  0
   -0.6110    4.4852   -0.6906 H   0  0  0  0  0  0  0  0  0  0  0  0
    0.3979    1.3379   -2.1826 H   0  0  0  0  0  0  0  0  0  0  0  0
    1.6764    2.2064   -1.3317 H   0  0  0  0  0  0  0  0  0  0  0  0
    0.5004    3.1027   -2.3105 H   0  0  0  0  0  0  0  0  0  0  0  0
  1  2  1  0  0  0  0
  1 19  1  0  0  0  0
  1 11  1  0  0  0  0
  2  3  1  0  0  0  0
  3  4  2  0  0  0  0
  5  3  1  0  0  0  0
  5 10  2  0  0  0  0
  6  5  1  0  0  0  0
  7  6  2  0  0  0  0
  7  8  1  0  0  0  0
  8  9  2  0  0  0  0
  9 10  1  0  0  0  0
  9 29  1  0  0  0  0
 10 30  1  0  0  0  0
 11 13  1  0  0  0  0
 11 12  2  0  0  0  0
 13 14  2  0  0  0  0
 14 15  1  0  0  0  0
 14 31  1  0  0  0  0
 15 32  1  0  0  0  0
 16 33  1  0  0  0  0
 16 15  2  0  0  0  0
 17 16  1  0  0  0  0
 18 17  2  0  0  0  0
 18 13  1  0  0  0  0
 19 20  2  0  0  0  0
 20 21  1  0  0  0  0
 20 36  1  0  0  0  0
 21 37  1  0  0  0  0
 22 38  1  0  0  0  0
 22 21  2  0  0  0  0
 23 22  1  0  0  0  0
 24 23  2  0  0  0  0
 24 19  1  0  0  0  0
 25 41  1  0  0  0  0
 25 24  1  0  0  0  0
 26  6  1  0  0  0  0
 27  7  1  0  0  0  0
 28  8  1  0  0  0  0
 34 17  1  0  0  0  0
 35 18  1  0  0  0  0
 39 23  1  0  0  0  0
 40 25  1  0  0  0  0
 42 25  1  0  0  0  0
M  END
$$$$
