42
rmsd100.gzmat
N          0.00000        0.00000        0.00000
O          1.39940        0.00000        0.00000
C          2.02240        0.00000        1.23550
O          1.40680       -0.02050        2.26880
C          3.48010        0.01860        1.04800
C          4.06090       -0.40870       -0.14710
C          5.44650       -0.37900       -0.28270
C          6.24120        0.07150        0.77160
C          5.65610        0.48980        1.96630
C          4.27100        0.46370        2.10880
C         -0.57660       -1.20430        0.51020
O         -1.75910       -1.22980        0.74400
C          0.32220       -2.38130        0.58240
C          0.41070       -3.07160        1.79110
C          1.25950       -4.17210        1.88930
C          2.00370       -4.57950        0.78320
C          1.89890       -3.89370       -0.42670
C          1.05610       -2.78980       -0.53100
C         -0.51160        1.28410        0.37990
C         -1.18870        1.47500        1.58950
C         -1.71380        2.72620        1.89390
C         -1.55020        3.78530        1.00260
C         -0.86320        3.59790       -0.19330
C         -0.33320        2.34850       -0.52290
C          0.41040        2.16350       -1.79920
H          3.43790       -0.76800       -0.96800
H          5.90890       -0.70810       -1.21110
H          7.32490        0.09610        0.66120
H          6.28090        0.83490        2.78810
H          3.79970        0.78500        3.04150
H         -0.17310       -2.74360        2.65360
H          1.34090       -4.71150        2.83100
H          2.66880       -5.43760        0.86400
H          2.47630       -4.21980       -1.28860
H          0.97240       -2.24530       -1.47230
H         -1.30300        0.64610        2.29190
H         -2.24760        2.87630        2.83010
H         -1.95990        4.76510        1.24320
H         -0.73850        4.43260       -0.87980
H          0.14560        1.20910       -2.28510
H          1.49640        2.13050       -1.61970
H          0.21910        2.96380       -2.52400
