rmsd5.gzmat
 OpenBabel08211713383D

 42 44  0  0  0  0  0  0  0  0999 V2000
    0.0000    0.0000    0.0000 N   0  0  0  0  0  0  0  0  0  0  0  0
    1.4000    0.0000    0.0000 O   0  0  0  0  0  0  0  0  0  0  0  0
    2.0244    0.0000    1.2339 C   0  0  0  0  0  0  0  0  0  0  0  0
    1.4154    0.0403    2.2704 O   0  0  0  0  0  0  0  0  0  0  0  0
    3.4790   -0.0778    1.0346 C   0  0  0  0  0  0  0  0  0  0  0  0
    4.0103   -0.7959   -0.0377 C   0  0  0  0  0  0  0  0  0  0  0  0
    5.3925   -0.8751   -0.1880 C   0  0  0  0  0  0  0  0  0  0  0  0
    6.2310   -0.2419    0.7294 C   0  0  0  0  0  0  0  0  0  0  0  0
    5.6936    0.4707    1.8011 C   0  0  0  0  0  0  0  0  0  0  0  0
    4.3125    0.5541    1.9588 C   0  0  0  0  0  0  0  0  0  0  0  0
   -0.5667   -1.2019    0.5281 C   0  0  0  0  0  0  0  0  0  0  0  0
   -1.7424   -1.2329    0.7891 O   0  0  0  0  0  0  0  0  0  0  0  0
    0.3488   -2.3694    0.5691 C   0  0  0  0  0  0  0  0  0  0  0  0
    0.6462   -2.9493    1.8014 C   0  0  0  0  0  0  0  0  0  0  0  0
    1.5221   -4.0318    1.8519 C   0  0  0  0  0  0  0  0  0  0  0  0
    2.0833   -4.5312    0.6775 C   0  0  0  0  0  0  0  0  0  0  0  0
    1.7708   -3.9533   -0.5528 C   0  0  0  0  0  0  0  0  0  0  0  0
    0.9005   -2.8674   -0.6105 C   0  0  0  0  0  0  0  0  0  0  0  0
   -0.5215    1.2832    0.3701 C   0  0  0  0  0  0  0  0  0  0  0  0
   -1.1177    1.4995    1.6171 C   0  0  0  0  0  0  0  0  0  0  0  0
   -1.6581    2.7462    1.9144 C   0  0  0  0  0  0  0  0  0  0  0  0
   -1.5888    3.7756    0.9772 C   0  0  0  0  0  0  0  0  0  0  0  0
   -0.9830    3.5625   -0.2580 C   0  0  0  0  0  0  0  0  0  0  0  0
   -0.4410    2.3165   -0.5811 C   0  0  0  0  0  0  0  0  0  0  0  0
    0.1939    2.0944   -1.9089 C   0  0  0  0  0  0  0  0  0  0  0  0
    3.3496   -1.2987   -0.7474 H   0  0  0  0  0  0  0  0  0  0  0  0
    5.8171   -1.4317   -1.0209 H   0  0  0  0  0  0  0  0  0  0  0  0
    7.3120   -0.3063    0.6089 H   0  0  0  0  0  0  0  0  0  0  0  0
    6.3534    0.9586    2.5169 H   0  0  0  0  0  0  0  0  0  0  0  0
    3.8792    1.1017    2.7991 H   0  0  0  0  0  0  0  0  0  0  0  0
    0.2064   -2.5494    2.7172 H   0  0  0  0  0  0  0  0  0  0  0  0
    1.7693   -4.4850    2.8101 H   0  0  0  0  0  0  0  0  0  0  0  0
    2.7685   -5.3760    0.7205 H   0  0  0  0  0  0  0  0  0  0  0  0
    2.2054   -4.3506   -1.4671 H   0  0  0  0  0  0  0  0  0  0  0  0
    0.6539   -2.4055   -1.5672 H   0  0  0  0  0  0  0  0  0  0  0  0
   -1.1572    0.6928    2.3529 H   0  0  0  0  0  0  0  0  0  0  0  0
   -2.1317    2.9160    2.8790 H   0  0  0  0  0  0  0  0  0  0  0  0
   -2.0092    4.7524    1.2124 H   0  0  0  0  0  0  0  0  0  0  0  0
   -0.9329    4.3738   -0.9809 H   0  0  0  0  0  0  0  0  0  0  0  0
   -0.3515    1.3222   -2.4767 H   0  0  0  0  0  0  0  0  0  0  0  0
    1.2278    1.7284   -1.8057 H   0  0  0  0  0  0  0  0  0  0  0  0
    0.2260    2.9988   -2.5274 H   0  0  0  0  0  0  0  0  0  0  0  0
  1  2  1  0  0  0  0
  1 19  1  0  0  0  0
  1 11  1  0  0  0  0
  2  3  1  0  0  0  0
  3  4  2  0  0  0  0
  5  3  1  0  0  0  0
  5 10  2  0  0  0  0
  6  5  1  0  0  0  0
  7  6  2  0  0  0  0
  7  8  1  0  0  0  0
  8  9  2  0  0  0  0
  9 10  1  0  0  0  0
  9 29  1  0  0  0  0
 10 30  1  0  0  0  0
 11 13  1  0  0  0  0
 11 12  2  0  0  0  0
 13 14  2  0  0  0  0
 14 15  1  0  0  0  0
 14 31  1  0  0  0  0
 15 32  1  0  0  0  0
 16 33  1  0  0  0  0
 16 15  2  0  0  0  0
 17 16  1  0  0  0  0
 18 17  2  0  0  0  0
 18 13  1  0  0  0  0
 19 20  2  0  0  0  0
 20 21  1  0  0  0  0
 20 36  1  0  0  0  0
 21 37  1  0  0  0  0
 22 38  1  0  0  0  0
 22 21  2  0  0  0  0
 23 22  1  0  0  0  0
 24 23  2  0  0  0  0
 24 19  1  0  0  0  0
 25 41  1  0  0  0  0
 25 24  1  0  0  0  0
 26  6  1  0  0  0  0
 27  7  1  0  0  0  0
 28  8  1  0  0  0  0
 34 17  1  0  0  0  0
 35 18  1  0  0  0  0
 39 23  1  0  0  0  0
 40 25  1  0  0  0  0
 42 25  1  0  0  0  0
M  END
$$$$
