42
rmsd5.gzmat
N          0.00000        0.00000        0.00000
O          1.40000        0.00000        0.00000
C          2.02440        0.00000        1.23390
O          1.41540        0.04030        2.27040
C          3.47900       -0.07780        1.03460
C          4.01030       -0.79590       -0.03770
C          5.39250       -0.87510       -0.18800
C          6.23100       -0.24190        0.72940
C          5.69360        0.47070        1.80110
C          4.31250        0.55410        1.95880
C         -0.56670       -1.20190        0.52810
O         -1.74240       -1.23290        0.78910
C          0.34880       -2.36940        0.56910
C          0.64620       -2.94930        1.80140
C          1.52210       -4.03180        1.85190
C          2.08330       -4.53120        0.67750
C          1.77080       -3.95330       -0.55280
C          0.90050       -2.86740       -0.61050
C         -0.52150        1.28320        0.37010
C         -1.11770        1.49950        1.61710
C         -1.65810        2.74620        1.91440
C         -1.58880        3.77560        0.97720
C         -0.98300        3.56250       -0.25800
C         -0.44100        2.31650       -0.58110
C          0.19390        2.09440       -1.90890
H          3.34960       -1.29870       -0.74740
H          5.81710       -1.43170       -1.02090
H          7.31200       -0.30630        0.60890
H          6.35340        0.95860        2.51690
H          3.87920        1.10170        2.79910
H          0.20640       -2.54940        2.71720
H          1.76930       -4.48500        2.81010
H          2.76850       -5.37600        0.72050
H          2.20540       -4.35060       -1.46710
H          0.65390       -2.40550       -1.56720
H         -1.15720        0.69280        2.35290
H         -2.13170        2.91600        2.87900
H         -2.00920        4.75240        1.21240
H         -0.93290        4.37380       -0.98090
H         -0.35150        1.32220       -2.47670
H          1.22780        1.72840       -1.80570
H          0.22600        2.99880       -2.52740
