42
rmsd138.gzmat
N          0.00000        0.00000        0.00000
O          1.39890        0.00000        0.00000
C          2.02640        0.00000        1.23360
O          1.42750        0.02490        2.27370
C          3.48020       -0.04810        1.00640
C          4.02090       -1.00870        0.15220
C          5.40050       -1.06280       -0.02940
C          6.22540       -0.15350        0.63200
C          5.67670        0.80750        1.48100
C          4.29860        0.86040        1.67670
C         -0.56440       -1.24230        0.41300
O         -1.74870       -1.31320        0.62590
C          0.36670       -2.39840        0.39830
C          0.60540       -3.08850        1.58580
C          1.49760       -4.15910        1.58440
C          2.13420       -4.53580        0.40280
C          1.87630       -3.85150       -0.78500
C          0.98790       -2.77890       -0.79080
C         -0.53100        1.26310        0.41110
C         -1.36770        1.37640        1.52730
C         -1.91570        2.61160        1.85580
C         -1.61700        3.73440        1.08600
C         -0.77500        3.62290       -0.01680
C         -0.22100        2.39090       -0.37170
C          0.68510        2.29770       -1.54930
H          3.36890       -1.71800       -0.36270
H          5.83300       -1.81420       -0.68720
H          7.30400       -0.19560        0.48540
H          6.32610        1.51480        1.99360
H          3.86110        1.59900        2.35100
H          0.10580       -2.78580        2.50830
H          1.69950       -4.69920        2.50760
H          2.83480       -5.36880        0.40720
H          2.36660       -4.15590       -1.70720
H          0.78250       -2.23410       -1.71350
H         -1.59250        0.50030        2.13970
H         -2.57450        2.69870        2.71780
H         -2.04170        4.70180        1.34920
H         -0.54530        4.50410       -0.61240
H          0.54330        1.35280       -2.10070
H          1.74020        2.32100       -1.23590
H          0.53520        3.11450       -2.26590
