38
rmsd123.gzmat
O          0.00000        0.00000        0.00000
C          1.20270        0.00000        0.00000
O          1.94420        0.00000        1.15810
C          3.36280        0.05240        0.87880
C          3.46100        0.03920       -0.68430
N          2.05470       -0.00950       -1.08930
C          3.95390       -1.18470        1.53460
C          3.90430        1.32600        1.46350
C          5.25300        1.64400        1.30440
C          5.76720        2.81170        1.85740
C          4.92830        3.67900        2.56690
O          5.58130        4.76890        3.04200
C          4.87900        5.63430        3.92530
C          3.56120        3.36660        2.70240
C          3.06010        2.18540        2.16460
O          2.80560        4.24540        3.42180
C          1.42420        4.34250        3.07790
C          1.25440        4.89480        1.66360
C         -0.22500        5.01760        1.31430
H          3.96110        0.95090       -1.07340
H          4.01680       -0.84190       -1.06090
H          1.76910        0.01890       -2.04290
H          3.51080       -2.10490        1.13310
H          3.74820       -1.18170        2.61690
H          5.04040       -1.23800        1.40850
H          5.91460        0.97950        0.75240
H          6.81960        3.06730        1.74510
H          5.67140        6.31920        4.25330
H          4.46650        5.08410        4.77810
H          4.09260        6.17320        3.38680
H          2.00530        1.92890        2.29390
H          1.07130        5.04700        3.85530
H          0.92300        3.36980        3.21960
H          1.76660        4.23510        0.93400
H          1.76080        5.87480        1.57590
H         -0.72410        4.03990        1.32350
H         -0.36070        5.43820        0.31060
H         -0.75640        5.66990        2.01560
