rmsd220.gzmat
 OpenBabel08211713373D

 38 39  0  0  1  0  0  0  0  0999 V2000
    0.0000    0.0000    0.0000 O   0  0  0  0  0  0  0  0  0  0  0  0
    1.2029    0.0000    0.0000 C   0  0  0  0  0  0  0  0  0  0  0  0
    1.9443    0.0000    1.1584 O   0  0  0  0  0  0  0  0  0  0  0  0
    3.3612    0.0897    0.8793 C   0  0  2  0  0  0  0  0  0  0  0  0
    3.4603    0.0517   -0.6848 C   0  0  0  0  0  0  0  0  0  0  0  0
    2.0543   -0.0120   -1.0901 N   0  0  0  0  0  0  0  0  0  0  0  0
    3.9872   -1.1180    1.5551 C   0  0  0  0  0  0  0  0  0  0  0  0
    3.8641    1.3971    1.4247 C   0  0  0  0  0  0  0  0  0  0  0  0
    5.2122    1.7245    1.2950 C   0  0  0  0  0  0  0  0  0  0  0  0
    5.6804    2.9527    1.7523 C   0  0  0  0  0  0  0  0  0  0  0  0
    4.7974    3.8646    2.3368 C   0  0  0  0  0  0  0  0  0  0  0  0
    5.4096    5.0047    2.7482 O   0  0  0  0  0  0  0  0  0  0  0  0
    4.5884    6.1311    3.0303 C   0  0  0  0  0  0  0  0  0  0  0  0
    3.4356    3.5226    2.4820 C   0  0  0  0  0  0  0  0  0  0  0  0
    2.9795    2.2880    2.0326 C   0  0  0  0  0  0  0  0  0  0  0  0
    2.6609    4.4608    3.0909 O   0  0  0  0  0  0  0  0  0  0  0  0
    1.2482    4.2683    3.0922 C   0  0  0  0  0  0  0  0  0  0  0  0
    0.6619    4.5347    1.7062 C   0  0  0  0  0  0  0  0  0  0  0  0
   -0.7802    4.0418    1.6376 C   0  0  0  0  0  0  0  0  0  0  0  0
    3.9589    0.9576   -1.0878 H   0  0  0  0  0  0  0  0  0  0  0  0
    4.0182   -0.8357   -1.0445 H   0  0  0  0  0  0  0  0  0  0  0  0
    1.7674    0.0487   -2.0428 H   0  0  0  0  0  0  0  0  0  0  0  0
    3.5656   -2.0563    1.1713 H   0  0  0  0  0  0  0  0  0  0  0  0
    3.7872   -1.1004    2.6381 H   0  0  0  0  0  0  0  0  0  0  0  0
    5.0743   -1.1479    1.4243 H   0  0  0  0  0  0  0  0  0  0  0  0
    5.9081    1.0281    0.8325 H   0  0  0  0  0  0  0  0  0  0  0  0
    6.7318    3.2197    1.6563 H   0  0  0  0  0  0  0  0  0  0  0  0
    5.3300    6.9330    3.1415 H   0  0  0  0  0  0  0  0  0  0  0  0
    4.0411    5.9765    3.9677 H   0  0  0  0  0  0  0  0  0  0  0  0
    3.9036    6.3460    2.2048 H   0  0  0  0  0  0  0  0  0  0  0  0
    1.9298    2.0082    2.1534 H   0  0  0  0  0  0  0  0  0  0  0  0
    0.9415    5.0322    3.8331 H   0  0  0  0  0  0  0  0  0  0  0  0
    0.9933    3.2690    3.4847 H   0  0  0  0  0  0  0  0  0  0  0  0
    1.2747    4.0343    0.9291 H   0  0  0  0  0  0  0  0  0  0  0  0
    0.7187    5.6135    1.4676 H   0  0  0  0  0  0  0  0  0  0  0  0
   -0.8413    2.9511    1.7576 H   0  0  0  0  0  0  0  0  0  0  0  0
   -1.2355    4.2783    0.6680 H   0  0  0  0  0  0  0  0  0  0  0  0
   -1.4050    4.4979    2.4133 H   0  0  0  0  0  0  0  0  0  0  0  0
  1  2  2  0  0  0  0
  2  3  1  0  0  0  0
  4  3  1  0  0  0  0
  4  8  1  0  0  0  0
  4  7  1  1  0  0  0
  5  4  1  0  0  0  0
  6  5  1  0  0  0  0
  6  2  1  0  0  0  0
  7 24  1  0  0  0  0
  8 15  1  0  0  0  0
  9  8  2  0  0  0  0
  9 10  1  0  0  0  0
 10 11  2  0  0  0  0
 11 14  1  0  0  0  0
 11 12  1  0  0  0  0
 12 13  1  0  0  0  0
 13 28  1  0  0  0  0
 13 29  1  0  0  0  0
 14 16  1  0  0  0  0
 15 31  1  0  0  0  0
 15 14  2  0  0  0  0
 16 17  1  0  0  0  0
 17 33  1  0  0  0  0
 17 32  1  0  0  0  0
 18 17  1  0  0  0  0
 19 18  1  0  0  0  0
 19 36  1  0  0  0  0
 19 38  1  0  0  0  0
 20  5  1  0  0  0  0
 21  5  1  0  0  0  0
 22  6  1  0  0  0  0
 23  7  1  0  0  0  0
 25  7  1  0  0  0  0
 26  9  1  0  0  0  0
 27 10  1  0  0  0  0
 30 13  1  0  0  0  0
 34 18  1  0  0  0  0
 35 18  1  0  0  0  0
 37 19  1  0  0  0  0
M  END
$$$$
