38

O          0.29570       -0.16590        1.91650
C          1.34430       -0.11020        1.32900
O          2.55020       -0.40550        1.90280
C          3.63050        0.03970        1.05270
C          2.95940        0.06880       -0.35140
N          1.58100        0.26070        0.03250
C          4.75890       -0.97390        1.16250
C          4.05090        1.44490        1.48520
C          5.17830        2.06900        0.94130
C          5.52160        3.36040        1.35000
C          4.74800        4.06240        2.27700
O          5.10360        5.34000        2.58920
C          5.37810        5.62590        3.95290
C          3.58850        3.44710        2.80560
C          3.27320        2.14050        2.41650
O          2.82520        4.18280        3.65300
C          1.56050        3.66970        4.06260
C          1.64810        2.67790        5.22130
C          0.32530        1.94000        5.42750
H          3.34660        0.89470       -0.96450
H          3.11980       -0.88370       -0.89110
H          0.81000        0.39260       -0.60790
H          4.38690       -1.97930        0.91670
H          5.15860       -0.98290        2.18620
H          5.57750       -0.72170        0.47290
H          5.80180        1.55810        0.20440
H          6.40160        3.86520        0.94680
H          5.72870        6.66660        3.99000
H          6.17570        4.96620        4.34100
H          4.48220        5.51760        4.58220
H          2.41050        1.64380        2.84680
H          1.04840        3.21230        3.19800
H          0.97440        4.55280        4.35950
H          1.94690        3.22020        6.13410
H          2.44920        1.94910        5.02030
H         -0.50980        2.64330        5.58530
H          0.37160        1.27830        6.30570
H          0.08180        1.31650        4.55100
