rmsd30.gzmat
 OpenBabel08211713373D

 38 39  0  0  1  0  0  0  0  0999 V2000
    0.0000    0.0000    0.0000 O   0  0  0  0  0  0  0  0  0  0  0  0
    1.2026    0.0000    0.0000 C   0  0  0  0  0  0  0  0  0  0  0  0
    1.9448    0.0000    1.1579 O   0  0  0  0  0  0  0  0  0  0  0  0
    3.3603    0.1017    0.8780 C   0  0  2  0  0  0  0  0  0  0  0  0
    3.4602    0.0399   -0.6841 C   0  0  0  0  0  0  0  0  0  0  0  0
    2.0544   -0.0135   -1.0897 N   0  0  0  0  0  0  0  0  0  0  0  0
    4.0042   -1.0849    1.5755 C   0  0  0  0  0  0  0  0  0  0  0  0
    3.8495    1.4135    1.4245 C   0  0  0  0  0  0  0  0  0  0  0  0
    5.1515    1.8329    1.1564 C   0  0  0  0  0  0  0  0  0  0  0  0
    5.6124    3.0461    1.6561 C   0  0  0  0  0  0  0  0  0  0  0  0
    4.7669    3.8531    2.4253 C   0  0  0  0  0  0  0  0  0  0  0  0
    5.3699    4.9984    2.8312 O   0  0  0  0  0  0  0  0  0  0  0  0
    4.6000    5.9389    3.5683 C   0  0  0  0  0  0  0  0  0  0  0  0
    3.4515    3.4228    2.6975 C   0  0  0  0  0  0  0  0  0  0  0  0
    3.0033    2.2029    2.2016 C   0  0  0  0  0  0  0  0  0  0  0  0
    2.7090    4.2441    3.4908 O   0  0  0  0  0  0  0  0  0  0  0  0
    1.2898    4.1167    3.4345 C   0  0  0  0  0  0  0  0  0  0  0  0
    0.7547    4.5407    2.0678 C   0  0  0  0  0  0  0  0  0  0  0  0
   -0.7705    4.5628    2.0842 C   0  0  0  0  0  0  0  0  0  0  0  0
    3.9703    0.9312   -1.1045 H   0  0  0  0  0  0  0  0  0  0  0  0
    4.0069   -0.8610   -1.0276 H   0  0  0  0  0  0  0  0  0  0  0  0
    1.7685    0.0521   -2.0419 H   0  0  0  0  0  0  0  0  0  0  0  0
    3.5830   -2.0371    1.2283 H   0  0  0  0  0  0  0  0  0  0  0  0
    3.8245   -1.0377    2.6612 H   0  0  0  0  0  0  0  0  0  0  0  0
    5.0885   -1.1081    1.4229 H   0  0  0  0  0  0  0  0  0  0  0  0
    5.8170    1.2163    0.5562 H   0  0  0  0  0  0  0  0  0  0  0  0
    6.6271    3.3848    1.4522 H   0  0  0  0  0  0  0  0  0  0  0  0
    5.3140    6.7622    3.7027 H   0  0  0  0  0  0  0  0  0  0  0  0
    4.3027    5.5190    4.5359 H   0  0  0  0  0  0  0  0  0  0  0  0
    3.7281    6.2710    2.9962 H   0  0  0  0  0  0  0  0  0  0  0  0
    1.9892    1.8579    2.4187 H   0  0  0  0  0  0  0  0  0  0  0  0
    0.9939    4.8186    4.2387 H   0  0  0  0  0  0  0  0  0  0  0  0
    0.9834    3.0959    3.7189 H   0  0  0  0  0  0  0  0  0  0  0  0
    1.1204    3.8512    1.2806 H   0  0  0  0  0  0  0  0  0  0  0  0
    1.1569    5.5353    1.7957 H   0  0  0  0  0  0  0  0  0  0  0  0
   -1.1864    3.5812    2.3449 H   0  0  0  0  0  0  0  0  0  0  0  0
   -1.1727    4.8284    1.0988 H   0  0  0  0  0  0  0  0  0  0  0  0
   -1.1569    5.2922    2.8039 H   0  0  0  0  0  0  0  0  0  0  0  0
  1  2  2  0  0  0  0
  2  3  1  0  0  0  0
  4  3  1  0  0  0  0
  4  8  1  0  0  0  0
  4  7  1  1  0  0  0
  5  4  1  0  0  0  0
  6  5  1  0  0  0  0
  6  2  1  0  0  0  0
  7 24  1  0  0  0  0
  8 15  1  0  0  0  0
  9  8  2  0  0  0  0
  9 10  1  0  0  0  0
 10 11  2  0  0  0  0
 11 14  1  0  0  0  0
 11 12  1  0  0  0  0
 12 13  1  0  0  0  0
 13 28  1  0  0  0  0
 13 29  1  0  0  0  0
 14 16  1  0  0  0  0
 15 31  1  0  0  0  0
 15 14  2  0  0  0  0
 17 16  1  0  0  0  0
 17 33  1  0  0  0  0
 17 32  1  0  0  0  0
 18 19  1  0  0  0  0
 18 17  1  0  0  0  0
 19 36  1  0  0  0  0
 19 38  1  0  0  0  0
 20  5  1  0  0  0  0
 21  5  1  0  0  0  0
 22  6  1  0  0  0  0
 23  7  1  0  0  0  0
 25  7  1  0  0  0  0
 26  9  1  0  0  0  0
 27 10  1  0  0  0  0
 30 13  1  0  0  0  0
 34 18  1  0  0  0  0
 35 18  1  0  0  0  0
 37 19  1  0  0  0  0
M  END
$$$$
