
     RDKit          3D

 38 39  0  0  0  0  0  0  0  0999 V2000
    0.2957   -0.1659    1.9165 O   0  0  0  0  0  0  0  0  0  0  0  0
    1.3443   -0.1102    1.3290 C   0  0  0  0  0  0  0  0  0  0  0  0
    2.5502   -0.4055    1.9028 O   0  0  0  0  0  0  0  0  0  0  0  0
    3.6305    0.0397    1.0527 C   0  0  2  0  0  0  0  0  0  0  0  0
    2.9594    0.0688   -0.3514 C   0  0  0  0  0  0  0  0  0  0  0  0
    1.5810    0.2607    0.0325 N   0  0  0  0  0  0  0  0  0  0  0  0
    4.7589   -0.9739    1.1625 C   0  0  0  0  0  0  0  0  0  0  0  0
    4.0509    1.4449    1.4852 C   0  0  0  0  0  0  0  0  0  0  0  0
    5.1783    2.0690    0.9413 C   0  0  0  0  0  0  0  0  0  0  0  0
    5.5216    3.3604    1.3500 C   0  0  0  0  0  0  0  0  0  0  0  0
    4.7480    4.0624    2.2770 C   0  0  0  0  0  0  0  0  0  0  0  0
    5.1036    5.3400    2.5892 O   0  0  0  0  0  0  0  0  0  0  0  0
    5.3781    5.6259    3.9529 C   0  0  0  0  0  0  0  0  0  0  0  0
    3.5885    3.4471    2.8056 C   0  0  0  0  0  0  0  0  0  0  0  0
    3.2732    2.1405    2.4165 C   0  0  0  0  0  0  0  0  0  0  0  0
    2.8252    4.1828    3.6530 O   0  0  0  0  0  0  0  0  0  0  0  0
    1.5605    3.6697    4.0626 C   0  0  0  0  0  0  0  0  0  0  0  0
    1.6481    2.6779    5.2213 C   0  0  0  0  0  0  0  0  0  0  0  0
    0.3253    1.9400    5.4275 C   0  0  0  0  0  0  0  0  0  0  0  0
    3.3466    0.8947   -0.9645 H   0  0  0  0  0  0  0  0  0  0  0  0
    3.1198   -0.8837   -0.8911 H   0  0  0  0  0  0  0  0  0  0  0  0
    0.8100    0.3926   -0.6079 H   0  0  0  0  0  0  0  0  0  0  0  0
    4.3869   -1.9793    0.9167 H   0  0  0  0  0  0  0  0  0  0  0  0
    5.1586   -0.9829    2.1862 H   0  0  0  0  0  0  0  0  0  0  0  0
    5.5775   -0.7217    0.4729 H   0  0  0  0  0  0  0  0  0  0  0  0
    5.8018    1.5581    0.2044 H   0  0  0  0  0  0  0  0  0  0  0  0
    6.4016    3.8652    0.9468 H   0  0  0  0  0  0  0  0  0  0  0  0
    5.7287    6.6666    3.9900 H   0  0  0  0  0  0  0  0  0  0  0  0
    6.1757    4.9662    4.3410 H   0  0  0  0  0  0  0  0  0  0  0  0
    4.4822    5.5176    4.5822 H   0  0  0  0  0  0  0  0  0  0  0  0
    2.4105    1.6438    2.8468 H   0  0  0  0  0  0  0  0  0  0  0  0
    1.0484    3.2123    3.1980 H   0  0  0  0  0  0  0  0  0  0  0  0
    0.9744    4.5528    4.3595 H   0  0  0  0  0  0  0  0  0  0  0  0
    1.9469    3.2202    6.1341 H   0  0  0  0  0  0  0  0  0  0  0  0
    2.4492    1.9491    5.0203 H   0  0  0  0  0  0  0  0  0  0  0  0
   -0.5098    2.6433    5.5853 H   0  0  0  0  0  0  0  0  0  0  0  0
    0.3716    1.2783    6.3057 H   0  0  0  0  0  0  0  0  0  0  0  0
    0.0818    1.3165    4.5510 H   0  0  0  0  0  0  0  0  0  0  0  0
  1  2  2  0
  2  3  1  0
  2  6  1  0
  3  4  1  0
  4  5  1  0
  4  7  1  6
  4  8  1  0
  5  6  1  0
  5 20  1  0
  5 21  1  0
  6 22  1  0
  7 23  1  0
  7 24  1  0
  7 25  1  0
  8  9  2  0
  8 15  1  0
  9 10  1  0
  9 26  1  0
 10 11  2  0
 10 27  1  0
 11 12  1  0
 11 14  1  0
 12 13  1  0
 13 28  1  0
 13 29  1  0
 13 30  1  0
 14 15  2  0
 14 16  1  0
 15 31  1  0
 16 17  1  0
 17 18  1  0
 17 32  1  0
 17 33  1  0
 18 19  1  0
 18 34  1  0
 18 35  1  0
 19 36  1  0
 19 37  1  0
 19 38  1  0
M  END

