38
rmsd221.gzmat
O          0.00000        0.00000        0.00000
C          1.20250        0.00000        0.00000
O          1.94310        0.00000        1.15940
C          3.36120        0.04740        0.88020
C          3.45930        0.05570       -0.68330
N          2.05500       -0.01600       -1.08940
C          3.94470       -1.20520        1.51440
C          3.91560        1.30800        1.48100
C          5.27090        1.59990        1.33750
C          5.79520        2.76970        1.87780
C          4.96560        3.65020        2.57940
O          5.63340        4.74040        3.03420
C          4.89090        5.76050        3.68830
C          3.59920        3.33900        2.74350
C          3.08000        2.17760        2.18100
O          2.86230        4.25560        3.42910
C          1.61100        3.83820        3.97030
C          1.78480        2.79970        5.07610
C          2.58810        3.36420        6.24470
H          3.94640        0.97920       -1.06050
H          4.02810       -0.81380       -1.06760
H          1.76840        0.06020       -2.04120
H          3.48710       -2.11400        1.10300
H          3.75080       -1.21660        2.59820
H          5.02890       -1.26890        1.37480
H          5.92940        0.91800        0.80370
H          6.85100        3.01240        1.76610
H          5.65860        6.52700        3.85770
H          4.48720        5.39530        4.63860
H          4.09500        6.14650        3.04240
H          2.01810        1.94200        2.28350
H          0.94550        3.48950        3.16160
H          1.23430        4.80570        4.35730
H          2.29120        1.89790        4.67450
H          0.79040        2.45470        5.42150
H          3.56060        3.74550        5.90630
H          2.78510        2.59660        7.00140
H          2.06360        4.19010        6.73650
