rmsd11.gzmat
 OpenBabel08211713373D

 38 39  0  0  1  0  0  0  0  0999 V2000
    0.0000    0.0000    0.0000 O   0  0  0  0  0  0  0  0  0  0  0  0
    1.2021    0.0000    0.0000 C   0  0  0  0  0  0  0  0  0  0  0  0
    1.9442    0.0000    1.1582 O   0  0  0  0  0  0  0  0  0  0  0  0
    3.3591    0.1087    0.8792 C   0  0  2  0  0  0  0  0  0  0  0  0
    3.4590    0.0581   -0.6829 C   0  0  0  0  0  0  0  0  0  0  0  0
    2.0547   -0.0226   -1.0899 N   0  0  0  0  0  0  0  0  0  0  0  0
    4.0046   -1.0819    1.5690 C   0  0  0  0  0  0  0  0  0  0  0  0
    3.8425    1.4158    1.4424 C   0  0  0  0  0  0  0  0  0  0  0  0
    5.1233    1.8754    1.1382 C   0  0  0  0  0  0  0  0  0  0  0  0
    5.5674    3.0925    1.6435 C   0  0  0  0  0  0  0  0  0  0  0  0
    4.7324    3.8563    2.4672 C   0  0  0  0  0  0  0  0  0  0  0  0
    5.3079    5.0217    2.8548 O   0  0  0  0  0  0  0  0  0  0  0  0
    4.5723    5.8780    3.7191 C   0  0  0  0  0  0  0  0  0  0  0  0
    3.4472    3.3763    2.7912 C   0  0  0  0  0  0  0  0  0  0  0  0
    3.0101    2.1599    2.2770 C   0  0  0  0  0  0  0  0  0  0  0  0
    2.6773    4.1962    3.5619 O   0  0  0  0  0  0  0  0  0  0  0  0
    1.6657    3.5901    4.3630 C   0  0  0  0  0  0  0  0  0  0  0  0
    2.2872    2.7302    5.4624 C   0  0  0  0  0  0  0  0  0  0  0  0
    1.1981    2.0849    6.3132 C   0  0  0  0  0  0  0  0  0  0  0  0
    3.9535    0.9604   -1.0981 H   0  0  0  0  0  0  0  0  0  0  0  0
    4.0201   -0.8318   -1.0324 H   0  0  0  0  0  0  0  0  0  0  0  0
    1.7672    0.0810   -2.0390 H   0  0  0  0  0  0  0  0  0  0  0  0
    3.5846   -2.0314    1.2124 H   0  0  0  0  0  0  0  0  0  0  0  0
    3.8213   -1.0449    2.6538 H   0  0  0  0  0  0  0  0  0  0  0  0
    5.0891   -1.1013    1.4189 H   0  0  0  0  0  0  0  0  0  0  0  0
    5.7857    1.2875    0.5059 H   0  0  0  0  0  0  0  0  0  0  0  0
    6.5629    3.4659    1.4088 H   0  0  0  0  0  0  0  0  0  0  0  0
    5.2744    6.7082    3.8703 H   0  0  0  0  0  0  0  0  0  0  0  0
    4.3482    5.3799    4.6673 H   0  0  0  0  0  0  0  0  0  0  0  0
    3.6558    6.2284    3.2306 H   0  0  0  0  0  0  0  0  0  0  0  0
    2.0110    1.7882    2.5183 H   0  0  0  0  0  0  0  0  0  0  0  0
    0.9544    3.0317    3.7308 H   0  0  0  0  0  0  0  0  0  0  0  0
    1.1612    4.4902    4.7656 H   0  0  0  0  0  0  0  0  0  0  0  0
    2.9588    3.3464    6.0903 H   0  0  0  0  0  0  0  0  0  0  0  0
    2.9375    1.9515    5.0150 H   0  0  0  0  0  0  0  0  0  0  0  0
    0.5484    2.8344    6.7790 H   0  0  0  0  0  0  0  0  0  0  0  0
    1.6321    1.4828    7.1206 H   0  0  0  0  0  0  0  0  0  0  0  0
    0.5622    1.4170    5.7185 H   0  0  0  0  0  0  0  0  0  0  0  0
  1  2  2  0  0  0  0
  2  3  1  0  0  0  0
  4  3  1  0  0  0  0
  4  8  1  0  0  0  0
  4  7  1  1  0  0  0
  5  4  1  0  0  0  0
  6  5  1  0  0  0  0
  6  2  1  0  0  0  0
  7 24  1  0  0  0  0
  8 15  1  0  0  0  0
  9  8  2  0  0  0  0
  9 10  1  0  0  0  0
 10 11  2  0  0  0  0
 11 14  1  0  0  0  0
 11 12  1  0  0  0  0
 12 13  1  0  0  0  0
 13 28  1  0  0  0  0
 13 29  1  0  0  0  0
 14 16  1  0  0  0  0
 15 31  1  0  0  0  0
 15 14  2  0  0  0  0
 16 17  1  0  0  0  0
 17 33  1  0  0  0  0
 17 18  1  0  0  0  0
 18 34  1  0  0  0  0
 18 19  1  0  0  0  0
 19 36  1  0  0  0  0
 19 37  1  0  0  0  0
 20  5  1  0  0  0  0
 21  5  1  0  0  0  0
 22  6  1  0  0  0  0
 23  7  1  0  0  0  0
 25  7  1  0  0  0  0
 26  9  1  0  0  0  0
 27 10  1  0  0  0  0
 30 13  1  0  0  0  0
 32 17  1  0  0  0  0
 35 18  1  0  0  0  0
 38 19  1  0  0  0  0
M  END
$$$$
