38

O          0.07120        0.40540        0.96800
C          1.23340        0.30740        0.68220
O          2.19100       -0.15030        1.54750
C          3.50900        0.05760        0.99730
C          3.22590        0.16180       -0.52800
N          1.85610        0.61680       -0.50020
C          4.36570       -1.14390        1.37240
C          4.08320        1.36240        1.54890
C          5.33940        1.81790        1.13600
C          5.85200        3.00920        1.65390
C          5.13830        3.75850        2.59030
O          5.70960        4.88640        3.10050
C          5.04710        6.11780        2.85580
C          3.87110        3.29640        3.01920
C          3.36150        2.10420        2.49050
O          3.22690        4.06040        3.93680
C          1.95650        3.65770        4.43480
C          2.05340        2.59640        5.52600
C          0.67570        2.19090        6.04690
H          3.89930        0.87960       -1.01650
H          3.33540       -0.82260       -1.02130
H          1.29710        0.80210       -1.32230
H          3.89290       -2.07270        1.02030
H          4.48100       -1.19510        2.46420
H          5.36630       -1.05930        0.92380
H          5.92630        1.25460        0.40650
H          6.82910        3.38670        1.34630
H          5.69730        6.90880        3.25500
H          4.06780        6.16230        3.35580
H          4.90810        6.28310        1.77160
H          2.39890        1.72280        2.81960
H          1.30850        3.31850        3.60720
H          1.50790        4.57640        4.84310
H          2.67810        2.99640        6.34210
H          2.58180        1.71220        5.13500
H          0.12580        3.05730        6.45130
H          0.75880        1.44520        6.85190
H          0.05970        1.74900        5.24650
