48
rmsd155.gzmat
O          0.00000        0.00000        0.00000
N          1.31100        0.00000        0.00000
C          1.85440        0.00000        1.42150
C          3.21060       -0.71330        1.37120
C          3.30260       -1.38430       -0.01210
C          1.90480       -1.26410       -0.63830
H          1.92970       -1.14000       -1.74750
C          1.14010       -2.58080       -0.37970
O          1.68300       -3.62490       -0.69790
N         -0.08550       -2.52340        0.20770
C         -0.91790       -3.72690        0.31610
H         -0.23390       -4.61720        0.42890
C         -1.81070       -3.60210        1.56060
C         -1.78210       -3.89240       -0.91880
C         -1.82760       -5.13320       -1.55520
C         -2.61930       -5.30620       -2.68870
C         -3.36370       -4.24010       -3.18980
C         -3.31400       -2.99900       -2.55680
C         -2.52500       -2.82400       -1.42230
C          1.78610        1.21530       -0.79410
C          1.49110        2.49740       -0.07410
C          2.53470        3.36540        0.25280
C          2.26190        4.55730        0.91970
C          0.95050        4.88080        1.26480
C         -0.09140        4.01690        0.93170
C          0.17590        2.82820        0.25730
H          1.91350        1.02980        1.81740
H          1.12160       -0.53730        2.06300
H          3.28620       -1.46360        2.17910
H          4.04590       -0.01180        1.53050
H          3.61260       -2.44760        0.06950
H          4.07120       -0.90840       -0.64300
H         -0.52350       -1.58880        0.34340
H         -2.47550       -2.73170        1.49740
H         -1.20830       -3.49360        2.46970
H         -2.44210       -4.49060        1.67400
H         -1.23650       -5.96510       -1.17550
H         -2.65120       -6.27370       -3.18490
H         -3.98020       -4.37510       -4.07510
H         -3.88970       -2.16380       -2.95030
H         -2.48130       -1.84870       -0.93750
H          2.86870        1.10760       -1.01130
H          1.23600        1.20520       -1.76830
H          3.56020        3.11850       -0.01100
H          3.07350        5.23640        1.17140
H          0.74090        5.80900        1.79250
H         -1.11630        4.26960        1.19770
H         -0.63670        2.13690        0.00070
