48
rmsd90.gzmat
O          0.00000        0.00000        0.00000
N          1.30660        0.00000        0.00000
C          1.83500        0.00000        1.42530
C          3.21030       -0.66830        1.37290
C          3.25670       -1.46520        0.05540
C          1.90600       -1.26160       -0.64560
H          2.02200       -1.09450       -1.74330
C          1.02200       -2.51790       -0.49200
O          1.52510       -3.59160       -0.21600
N         -0.28970       -2.37270       -0.84500
C         -1.22640       -3.49760       -0.68440
H         -0.74800       -4.40790       -1.14640
C         -1.50900       -3.79000        0.79840
C         -2.50440       -3.13190       -1.40910
C         -3.26100       -2.03100       -1.00210
C         -4.42160       -1.68930       -1.69180
C         -4.83130       -2.44710       -2.78800
C         -4.07900       -3.54870       -3.19140
C         -2.91570       -3.89150       -2.50480
C          1.79930        1.21670       -0.78410
C          1.43250        2.49800       -0.09700
C          2.43490        3.38030        0.31030
C          2.09310        4.57440        0.94050
C          0.75320        4.88710        1.16610
C         -0.24700        4.00610        0.75810
C          0.08990        2.81320        0.12320
H          1.85390        1.02720        1.83240
H          1.11270       -0.57030        2.05140
H          3.35780       -1.33290        2.24340
H          4.02480        0.07420        1.41820
H          3.43970       -2.54490        0.25280
H          4.09440       -1.14050       -0.58240
H         -0.68460       -1.41270       -0.84050
H         -1.84560       -2.89510        1.33310
H         -0.59780       -4.14860        1.29730
H         -2.28000       -4.55900        0.90800
H         -2.94200       -1.43320       -0.14730
H         -5.00580       -0.82730       -1.37550
H         -5.73520       -2.17880       -3.32920
H         -4.39740       -4.14000       -4.04690
H         -2.32780       -4.74780       -2.82980
H          2.89510        1.12920       -0.93420
H          1.31000        1.18510       -1.78810
H          3.48170        3.14230        0.13720
H          2.87280        5.26350        1.25720
H          0.48860        5.81930        1.66110
H         -1.29350        4.24720        0.93670
H         -0.69000        2.10580       -0.18500
