48
rmsd156.gzmat
O          0.00000        0.00000        0.00000
N          1.31080        0.00000        0.00000
C          1.85430        0.00000        1.42110
C          3.21570       -0.70260        1.36710
C          3.30600       -1.37840       -0.01410
C          1.90700       -1.26330       -0.63900
H          1.93120       -1.13760       -1.74810
C          1.14650       -2.58290       -0.38300
O          1.70530       -3.62710       -0.67450
N         -0.09690       -2.52710        0.16240
C         -0.92140       -3.73400        0.28310
H         -0.23800       -4.63250        0.27060
C         -1.68220       -3.68970        1.61820
C         -1.90850       -3.81990       -0.86450
C         -2.02750       -5.01830       -1.56900
C         -2.93710       -5.12300       -2.61920
C         -3.72470       -4.02890       -2.97240
C         -3.60040       -2.82910       -2.27380
C         -2.69550       -2.72370       -1.22000
C          1.78840        1.21370       -0.79520
C          1.50120        2.50230       -0.08340
C          2.54680        3.38220        0.20340
C          2.28130        4.58910        0.84590
C          0.97500        4.91650        1.20620
C         -0.06850        4.03790        0.91900
C          0.19170        2.83380        0.26980
H          1.90590        1.02930        1.81910
H          1.12610       -0.54500        2.06130
H          3.30160       -1.44910        2.17730
H          4.04580        0.00660        1.51970
H          3.61750       -2.44090        0.07140
H          4.07280       -0.90350       -0.64790
H         -0.53670       -1.59350        0.29800
H         -2.31510       -2.79790        1.69590
H         -0.98750       -3.67780        2.46560
H         -2.33210       -4.56570        1.72210
H         -1.40380       -5.87110       -1.30660
H         -3.02850       -6.05900       -3.16570
H         -4.43310       -4.10960       -3.79310
H         -4.20930       -1.97160       -2.55240
H         -2.59850       -1.78080       -0.68260
H          2.87060        1.10130       -1.01330
H          1.23680        1.20350       -1.76890
H          3.56820        3.13380       -0.07460
H          3.09440        5.27760        1.06610
H          0.77050        5.85920        1.70990
H         -1.08890        4.29180        1.20070
H         -0.62230        2.13190        0.04680
