48
rmsd189.gzmat
O          0.00000        0.00000        0.00000
N          1.31060        0.00000        0.00000
C          1.85750        0.00000        1.41960
C          3.23230       -0.67500        1.35190
C          3.30580       -1.38260       -0.01490
C          1.90670       -1.26250       -0.63940
H          1.93220       -1.13520       -1.74830
C          1.14240       -2.58050       -0.38640
O          1.69510       -3.62540       -0.68680
N         -0.09660       -2.52390        0.17070
C         -0.92660       -3.72870        0.27720
H         -0.24150       -4.62270        0.34660
C         -1.77940       -3.63310        1.55210
C         -1.83210       -3.86570       -0.93150
C         -1.94430       -5.10770       -1.55760
C         -2.77580       -5.25740       -2.66570
C         -3.49190       -4.16620       -3.15450
C         -3.37660       -2.92420       -2.53210
C         -2.55060       -2.77310       -1.42060
C          1.78920        1.21640       -0.79050
C          1.45570        2.49790       -0.08650
C          2.47780        3.37230        0.28710
C          2.16690        4.56680        0.93270
C          0.83830        4.88710        1.20840
C         -0.18150        4.01440        0.83280
C          0.12440        2.82230        0.18120
H          1.88940        1.02730        1.82550
H          1.14280       -0.56430        2.05810
H          3.35390       -1.39800        2.17850
H          4.04990        0.05600        1.46650
H          3.60180       -2.44780        0.09340
H          4.07800       -0.93480       -0.66190
H         -0.53480       -1.58990        0.30870
H         -2.48730       -2.79690        1.50330
H         -1.15050       -3.48410        2.43730
H         -2.36130       -4.55000        1.69830
H         -1.37480       -5.95950       -1.18980
H         -2.86150       -6.22640       -3.15230
H         -4.13760       -4.28250       -4.02140
H         -3.93070       -2.06970       -2.91500
H         -2.46070       -1.79740       -0.94250
H          2.87880        1.12180       -0.97640
H          1.26720        1.19200       -1.77910
H          3.51620        3.12940        0.07470
H          2.96180        5.25040        1.22190
H          0.59760        5.81950        1.71500
H         -1.21930        4.26270        1.04790
H         -0.67100        2.12390       -0.10740
