rmsd90.gzmat
 OpenBabel08211713363D

 48 50  0  0  1  0  0  0  0  0999 V2000
    0.0000    0.0000    0.0000 O   0  0  0  0  0  0  0  0  0  0  0  0
    1.3066    0.0000    0.0000 N   0  0  0  0  0  0  0  0  0  0  0  0
    1.8350    0.0000    1.4253 C   0  0  0  0  0  0  0  0  0  0  0  0
    3.2103   -0.6683    1.3729 C   0  0  0  0  0  0  0  0  0  0  0  0
    3.2567   -1.4652    0.0554 C   0  0  0  0  0  0  0  0  0  0  0  0
    1.9060   -1.2616   -0.6456 C   0  0  1  0  0  0  0  0  0  0  0  0
    2.0220   -1.0945   -1.7433 H   0  0  0  0  0  0  0  0  0  0  0  0
    1.0220   -2.5179   -0.4920 C   0  0  0  0  0  0  0  0  0  0  0  0
    1.5251   -3.5916   -0.2160 O   0  0  0  0  0  0  0  0  0  0  0  0
   -0.2897   -2.3727   -0.8450 N   0  0  0  0  0  0  0  0  0  0  0  0
   -1.2264   -3.4976   -0.6844 C   0  0  1  0  0  0  0  0  0  0  0  0
   -0.7480   -4.4079   -1.1464 H   0  0  0  0  0  0  0  0  0  0  0  0
   -1.5090   -3.7900    0.7984 C   0  0  0  0  0  0  0  0  0  0  0  0
   -2.5044   -3.1319   -1.4091 C   0  0  0  0  0  0  0  0  0  0  0  0
   -3.2610   -2.0310   -1.0021 C   0  0  0  0  0  0  0  0  0  0  0  0
   -4.4216   -1.6893   -1.6918 C   0  0  0  0  0  0  0  0  0  0  0  0
   -4.8313   -2.4471   -2.7880 C   0  0  0  0  0  0  0  0  0  0  0  0
   -4.0790   -3.5487   -3.1914 C   0  0  0  0  0  0  0  0  0  0  0  0
   -2.9157   -3.8915   -2.5048 C   0  0  0  0  0  0  0  0  0  0  0  0
    1.7993    1.2167   -0.7841 C   0  0  0  0  0  0  0  0  0  0  0  0
    1.4325    2.4980   -0.0970 C   0  0  0  0  0  0  0  0  0  0  0  0
    2.4349    3.3803    0.3103 C   0  0  0  0  0  0  0  0  0  0  0  0
    2.0931    4.5744    0.9405 C   0  0  0  0  0  0  0  0  0  0  0  0
    0.7532    4.8871    1.1661 C   0  0  0  0  0  0  0  0  0  0  0  0
   -0.2470    4.0061    0.7581 C   0  0  0  0  0  0  0  0  0  0  0  0
    0.0899    2.8132    0.1232 C   0  0  0  0  0  0  0  0  0  0  0  0
    1.8539    1.0272    1.8324 H   0  0  0  0  0  0  0  0  0  0  0  0
    1.1127   -0.5703    2.0514 H   0  0  0  0  0  0  0  0  0  0  0  0
    3.3578   -1.3329    2.2434 H   0  0  0  0  0  0  0  0  0  0  0  0
    4.0248    0.0742    1.4182 H   0  0  0  0  0  0  0  0  0  0  0  0
    3.4397   -2.5449    0.2528 H   0  0  0  0  0  0  0  0  0  0  0  0
    4.0944   -1.1405   -0.5824 H   0  0  0  0  0  0  0  0  0  0  0  0
   -0.6846   -1.4127   -0.8405 H   0  0  0  0  0  0  0  0  0  0  0  0
   -1.8456   -2.8951    1.3331 H   0  0  0  0  0  0  0  0  0  0  0  0
   -0.5978   -4.1486    1.2973 H   0  0  0  0  0  0  0  0  0  0  0  0
   -2.2800   -4.5590    0.9080 H   0  0  0  0  0  0  0  0  0  0  0  0
   -2.9420   -1.4332   -0.1473 H   0  0  0  0  0  0  0  0  0  0  0  0
   -5.0058   -0.8273   -1.3755 H   0  0  0  0  0  0  0  0  0  0  0  0
   -5.7352   -2.1788   -3.3292 H   0  0  0  0  0  0  0  0  0  0  0  0
   -4.3974   -4.1400   -4.0469 H   0  0  0  0  0  0  0  0  0  0  0  0
   -2.3278   -4.7478   -2.8298 H   0  0  0  0  0  0  0  0  0  0  0  0
    2.8951    1.1292   -0.9342 H   0  0  0  0  0  0  0  0  0  0  0  0
    1.3100    1.1851   -1.7881 H   0  0  0  0  0  0  0  0  0  0  0  0
    3.4817    3.1423    0.1372 H   0  0  0  0  0  0  0  0  0  0  0  0
    2.8728    5.2635    1.2572 H   0  0  0  0  0  0  0  0  0  0  0  0
    0.4886    5.8193    1.6611 H   0  0  0  0  0  0  0  0  0  0  0  0
   -1.2935    4.2472    0.9367 H   0  0  0  0  0  0  0  0  0  0  0  0
   -0.6900    2.1058   -0.1850 H   0  0  0  0  0  0  0  0  0  0  0  0
  1  2  1  0  0  0  0
  2  3  1  0  0  0  0
  3 27  1  0  0  0  0
  3 28  1  0  0  0  0
  4 30  1  0  0  0  0
  4  3  1  0  0  0  0
  4 29  1  0  0  0  0
  5 31  1  0  0  0  0
  5  4  1  0  0  0  0
  6  7  1  6  0  0  0
  6  8  1  0  0  0  0
  6  2  1  0  0  0  0
  6  5  1  0  0  0  0
  8  9  2  0  0  0  0
 10 33  1  0  0  0  0
 10 11  1  0  0  0  0
 10  8  1  0  0  0  0
 11 12  1  6  0  0  0
 11 13  1  0  0  0  0
 13 36  1  0  0  0  0
 13 35  1  0  0  0  0
 13 34  1  0  0  0  0
 14 15  1  0  0  0  0
 14 11  1  0  0  0  0
 15 37  1  0  0  0  0
 16 38  1  0  0  0  0
 16 15  2  0  0  0  0
 17 16  1  0  0  0  0
 18 17  2  0  0  0  0
 18 19  1  0  0  0  0
 19 14  2  0  0  0  0
 20 21  1  0  0  0  0
 20  2  1  0  0  0  0
 21 26  2  0  0  0  0
 21 22  1  0  0  0  0
 22 23  2  0  0  0  0
 23 24  1  0  0  0  0
 23 45  1  0  0  0  0
 24 46  1  0  0  0  0
 25 47  1  0  0  0  0
 25 24  2  0  0  0  0
 26 25  1  0  0  0  0
 32  5  1  0  0  0  0
 39 17  1  0  0  0  0
 40 18  1  0  0  0  0
 41 19  1  0  0  0  0
 42 20  1  0  0  0  0
 43 20  1  0  0  0  0
 44 22  1  0  0  0  0
 48 26  1  0  0  0  0
M  RAD  1   1   2
M  END
$$$$
