rmsd156.gzmat
 OpenBabel08211713363D

 48 49  0  0  1  0  0  0  0  0999 V2000
    0.0000    0.0000    0.0000 O   0  0  0  0  0  0  0  0  0  0  0  0
    1.3108    0.0000    0.0000 N   0  0  0  0  0  0  0  0  0  0  0  0
    1.8543    0.0000    1.4211 C   0  0  0  0  0  0  0  0  0  0  0  0
    3.2157   -0.7026    1.3671 C   0  0  0  0  0  0  0  0  0  0  0  0
    3.3060   -1.3784   -0.0141 C   0  0  0  0  0  0  0  0  0  0  0  0
    1.9070   -1.2633   -0.6390 C   0  0  1  0  0  0  0  0  0  0  0  0
    1.9312   -1.1376   -1.7481 H   0  0  0  0  0  0  0  0  0  0  0  0
    1.1465   -2.5829   -0.3830 C   0  0  0  0  0  0  0  0  0  0  0  0
    1.7053   -3.6271   -0.6745 O   0  0  0  0  0  0  0  0  0  0  0  0
   -0.0969   -2.5271    0.1624 N   0  0  0  0  0  0  0  0  0  0  0  0
   -0.9214   -3.7340    0.2831 C   0  0  1  0  0  0  0  0  0  0  0  0
   -0.2380   -4.6325    0.2706 H   0  0  0  0  0  0  0  0  0  0  0  0
   -1.6822   -3.6897    1.6182 C   0  0  0  0  0  0  0  0  0  0  0  0
   -1.9085   -3.8199   -0.8645 C   0  0  0  0  0  0  0  0  0  0  0  0
   -2.0275   -5.0183   -1.5690 C   0  0  0  0  0  0  0  0  0  0  0  0
   -2.9371   -5.1230   -2.6192 C   0  0  0  0  0  0  0  0  0  0  0  0
   -3.7247   -4.0289   -2.9724 C   0  0  0  0  0  0  0  0  0  0  0  0
   -3.6004   -2.8291   -2.2738 C   0  0  0  0  0  0  0  0  0  0  0  0
   -2.6955   -2.7237   -1.2200 C   0  0  0  0  0  0  0  0  0  0  0  0
    1.7884    1.2137   -0.7952 C   0  0  0  0  0  0  0  0  0  0  0  0
    1.5012    2.5023   -0.0834 C   0  0  0  0  0  0  0  0  0  0  0  0
    2.5468    3.3822    0.2034 C   0  0  0  0  0  0  0  0  0  0  0  0
    2.2813    4.5891    0.8459 C   0  0  0  0  0  0  0  0  0  0  0  0
    0.9750    4.9165    1.2062 C   0  0  0  0  0  0  0  0  0  0  0  0
   -0.0685    4.0379    0.9190 C   0  0  0  0  0  0  0  0  0  0  0  0
    0.1917    2.8338    0.2698 C   0  0  0  0  0  0  0  0  0  0  0  0
    1.9059    1.0293    1.8191 H   0  0  0  0  0  0  0  0  0  0  0  0
    1.1261   -0.5450    2.0613 H   0  0  0  0  0  0  0  0  0  0  0  0
    3.3016   -1.4491    2.1773 H   0  0  0  0  0  0  0  0  0  0  0  0
    4.0458    0.0066    1.5197 H   0  0  0  0  0  0  0  0  0  0  0  0
    3.6175   -2.4409    0.0714 H   0  0  0  0  0  0  0  0  0  0  0  0
    4.0728   -0.9035   -0.6479 H   0  0  0  0  0  0  0  0  0  0  0  0
   -0.5367   -1.5935    0.2980 H   0  0  0  0  0  0  0  0  0  0  0  0
   -2.3151   -2.7979    1.6959 H   0  0  0  0  0  0  0  0  0  0  0  0
   -0.9875   -3.6778    2.4656 H   0  0  0  0  0  0  0  0  0  0  0  0
   -2.3321   -4.5657    1.7221 H   0  0  0  0  0  0  0  0  0  0  0  0
   -1.4038   -5.8711   -1.3066 H   0  0  0  0  0  0  0  0  0  0  0  0
   -3.0285   -6.0590   -3.1657 H   0  0  0  0  0  0  0  0  0  0  0  0
   -4.4331   -4.1096   -3.7931 H   0  0  0  0  0  0  0  0  0  0  0  0
   -4.2093   -1.9716   -2.5524 H   0  0  0  0  0  0  0  0  0  0  0  0
   -2.5985   -1.7808   -0.6826 H   0  0  0  0  0  0  0  0  0  0  0  0
    2.8706    1.1013   -1.0133 H   0  0  0  0  0  0  0  0  0  0  0  0
    1.2368    1.2035   -1.7689 H   0  0  0  0  0  0  0  0  0  0  0  0
    3.5682    3.1338   -0.0746 H   0  0  0  0  0  0  0  0  0  0  0  0
    3.0944    5.2776    1.0661 H   0  0  0  0  0  0  0  0  0  0  0  0
    0.7705    5.8592    1.7099 H   0  0  0  0  0  0  0  0  0  0  0  0
   -1.0889    4.2918    1.2007 H   0  0  0  0  0  0  0  0  0  0  0  0
   -0.6223    2.1319    0.0468 H   0  0  0  0  0  0  0  0  0  0  0  0
  1  2  1  0  0  0  0
  2  3  1  0  0  0  0
  3 27  1  0  0  0  0
  3 28  1  0  0  0  0
  4  3  1  0  0  0  0
  4 30  1  0  0  0  0
  4 29  1  0  0  0  0
  5 31  1  0  0  0  0
  5  4  1  0  0  0  0
  6  8  1  1  0  0  0
  6  5  1  0  0  0  0
  6  2  1  0  0  0  0
  8 10  1  0  0  0  0
  9  8  2  0  0  0  0
 10 11  1  0  0  0  0
 10 33  1  0  0  0  0
 11 12  1  6  0  0  0
 11 13  1  0  0  0  0
 13 34  1  0  0  0  0
 13 36  1  0  0  0  0
 13 35  1  0  0  0  0
 14 11  1  0  0  0  0
 15 37  1  0  0  0  0
 15 14  2  0  0  0  0
 16 15  1  0  0  0  0
 17 16  2  0  0  0  0
 17 18  1  0  0  0  0
 18 19  2  0  0  0  0
 19 14  1  0  0  0  0
 19 41  1  0  0  0  0
 20 21  1  0  0  0  0
 20  2  1  0  0  0  0
 21 22  2  0  0  0  0
 21 26  1  0  0  0  0
 22 23  1  0  0  0  0
 23 45  1  0  0  0  0
 23 24  2  0  0  0  0
 24 46  1  0  0  0  0
 25 47  1  0  0  0  0
 25 24  1  0  0  0  0
 26 25  2  0  0  0  0
 32  5  1  0  0  0  0
 38 16  1  0  0  0  0
 39 17  1  0  0  0  0
 40 18  1  0  0  0  0
 42 20  1  0  0  0  0
 43 20  1  0  0  0  0
 44 22  1  0  0  0  0
 48 26  1  0  0  0  0
M  RAD  3   1   2   6   2   7   2
M  END
$$$$
