rmsd94.gzmat
 OpenBabel08211713363D

 48 50  0  0  1  0  0  0  0  0999 V2000
    0.0000    0.0000    0.0000 O   0  0  0  0  0  0  0  0  0  0  0  0
    1.3064    0.0000    0.0000 N   0  0  0  0  0  0  0  0  0  0  0  0
    1.8396    0.0000    1.4237 C   0  0  0  0  0  0  0  0  0  0  0  0
    3.1953   -0.7113    1.3808 C   0  0  0  0  0  0  0  0  0  0  0  0
    3.2697   -1.4365    0.0233 C   0  0  0  0  0  0  0  0  0  0  0  0
    1.8991   -1.2665   -0.6435 C   0  0  1  0  0  0  0  0  0  0  0  0
    1.9750   -1.1220   -1.7466 H   0  0  0  0  0  0  0  0  0  0  0  0
    1.0306   -2.5230   -0.4164 C   0  0  0  0  0  0  0  0  0  0  0  0
    1.5422   -3.5745   -0.0795 O   0  0  0  0  0  0  0  0  0  0  0  0
   -0.2875   -2.4036   -0.7606 N   0  0  0  0  0  0  0  0  0  0  0  0
   -1.2238   -3.5061   -0.4812 C   0  0  1  0  0  0  0  0  0  0  0  0
   -0.8130   -4.4283   -0.9805 H   0  0  0  0  0  0  0  0  0  0  0  0
   -1.3546   -3.7754    1.0276 C   0  0  0  0  0  0  0  0  0  0  0  0
   -2.5767   -3.1359   -1.0500 C   0  0  0  0  0  0  0  0  0  0  0  0
   -3.2007   -3.9947   -1.9545 C   0  0  0  0  0  0  0  0  0  0  0  0
   -4.4493   -3.6645   -2.4785 C   0  0  0  0  0  0  0  0  0  0  0  0
   -5.0755   -2.4783   -2.1013 C   0  0  0  0  0  0  0  0  0  0  0  0
   -4.4524   -1.6202   -1.1966 C   0  0  0  0  0  0  0  0  0  0  0  0
   -3.2060   -1.9480   -0.6700 C   0  0  0  0  0  0  0  0  0  0  0  0
    1.8027    1.2147   -0.7834 C   0  0  0  0  0  0  0  0  0  0  0  0
    1.3843    2.4997   -0.1323 C   0  0  0  0  0  0  0  0  0  0  0  0
    2.3514    3.4148    0.2878 C   0  0  0  0  0  0  0  0  0  0  0  0
    1.9606    4.6199    0.8673 C   0  0  0  0  0  0  0  0  0  0  0  0
    0.6070    4.9092    1.0343 C   0  0  0  0  0  0  0  0  0  0  0  0
   -0.3574    3.9924    0.6198 C   0  0  0  0  0  0  0  0  0  0  0  0
    0.0286    2.7904    0.0317 C   0  0  0  0  0  0  0  0  0  0  0  0
    1.8912    1.0310    1.8174 H   0  0  0  0  0  0  0  0  0  0  0  0
    1.1019   -0.5407    2.0582 H   0  0  0  0  0  0  0  0  0  0  0  0
    3.2851   -1.4309    2.2153 H   0  0  0  0  0  0  0  0  0  0  0  0
    4.0316   -0.0031    1.4999 H   0  0  0  0  0  0  0  0  0  0  0  0
    3.5122   -2.5131    0.1609 H   0  0  0  0  0  0  0  0  0  0  0  0
    4.0782   -1.0300   -0.6058 H   0  0  0  0  0  0  0  0  0  0  0  0
   -0.6798   -1.4436   -0.8085 H   0  0  0  0  0  0  0  0  0  0  0  0
   -1.6547   -2.8750    1.5743 H   0  0  0  0  0  0  0  0  0  0  0  0
   -0.3936   -4.1113    1.4420 H   0  0  0  0  0  0  0  0  0  0  0  0
   -2.0976   -4.5543    1.2252 H   0  0  0  0  0  0  0  0  0  0  0  0
   -2.7153   -4.9214   -2.2550 H   0  0  0  0  0  0  0  0  0  0  0  0
   -4.9340   -4.3334   -3.1858 H   0  0  0  0  0  0  0  0  0  0  0  0
   -6.0488   -2.2211   -2.5120 H   0  0  0  0  0  0  0  0  0  0  0  0
   -4.9381   -0.6920   -0.9021 H   0  0  0  0  0  0  0  0  0  0  0  0
   -2.7229   -1.2717    0.0381 H   0  0  0  0  0  0  0  0  0  0  0  0
    2.9047    1.1468   -0.8908 H   0  0  0  0  0  0  0  0  0  0  0  0
    1.3535    1.1596   -1.8045 H   0  0  0  0  0  0  0  0  0  0  0  0
    3.4089    3.1950    0.1631 H   0  0  0  0  0  0  0  0  0  0  0  0
    2.7128    5.3368    1.1888 H   0  0  0  0  0  0  0  0  0  0  0  0
    0.3042    5.8515    1.4869 H   0  0  0  0  0  0  0  0  0  0  0  0
   -1.4149    4.2123    0.7545 H   0  0  0  0  0  0  0  0  0  0  0  0
   -0.7245    2.0581   -0.2850 H   0  0  0  0  0  0  0  0  0  0  0  0
  1  2  1  0  0  0  0
  2  3  1  0  0  0  0
  3 27  1  0  0  0  0
  3 28  1  0  0  0  0
  4  3  1  0  0  0  0
  4 30  1  0  0  0  0
  4 29  1  0  0  0  0
  5 31  1  0  0  0  0
  5  4  1  0  0  0  0
  6  7  1  6  0  0  0
  6  8  1  0  0  0  0
  6  2  1  0  0  0  0
  6  5  1  0  0  0  0
  8  9  2  0  0  0  0
 10 11  1  0  0  0  0
 10  8  1  0  0  0  0
 11 12  1  6  0  0  0
 11 13  1  0  0  0  0
 13 36  1  0  0  0  0
 13 35  1  0  0  0  0
 13 34  1  0  0  0  0
 14 19  1  0  0  0  0
 14 11  1  0  0  0  0
 15 14  2  0  0  0  0
 16 17  2  0  0  0  0
 16 15  1  0  0  0  0
 17 18  1  0  0  0  0
 18 40  1  0  0  0  0
 18 19  2  0  0  0  0
 19 41  1  0  0  0  0
 20 21  1  0  0  0  0
 20  2  1  0  0  0  0
 21 26  2  0  0  0  0
 21 22  1  0  0  0  0
 22 23  2  0  0  0  0
 23 24  1  0  0  0  0
 23 45  1  0  0  0  0
 24 46  1  0  0  0  0
 25 47  1  0  0  0  0
 25 24  2  0  0  0  0
 26 25  1  0  0  0  0
 32  5  1  0  0  0  0
 33 10  1  0  0  0  0
 37 15  1  0  0  0  0
 38 16  1  0  0  0  0
 39 17  1  0  0  0  0
 42 20  1  0  0  0  0
 43 20  1  0  0  0  0
 44 22  1  0  0  0  0
 48 26  1  0  0  0  0
M  RAD  1   1   2
M  END
$$$$
