48
rmsd20.gzmat
O          0.00000        0.00000        0.00000
N          1.30680        0.00000        0.00000
C          1.83840        0.00000        1.42420
C          3.19890       -0.70160        1.38010
C          3.27190       -1.43510        0.02710
C          1.90390       -1.26390       -0.64460
H          1.98610       -1.11390       -1.74690
C          1.03480       -2.52350       -0.43270
O          1.54440       -3.57930       -0.10770
N         -0.27970       -2.39430       -0.78360
C         -1.22810       -3.49500       -0.54290
H         -0.81540       -4.41110       -1.05160
C         -1.39230       -3.79440        0.95670
C         -2.56290       -3.09760       -1.13660
C         -3.18240       -1.90560       -0.75380
C         -4.40350       -1.54300       -1.31570
C         -5.01370       -2.37280       -2.25540
C         -4.40090       -3.56710       -2.62920
C         -3.17470       -3.92920       -2.07420
C          1.79890        1.21600       -0.78460
C          1.41120        2.49730       -0.10840
C          0.06340        2.80530        0.08700
C         -0.29240        3.99790        0.71200
C          0.69440        4.88630        1.13560
C          2.03980        4.58070        0.93580
C          2.40050        3.38700        0.31510
H          1.88270        1.03020        1.82130
H          1.10370       -0.54690        2.05670
H          3.29750       -1.41550        2.21830
H          4.03020        0.01410        1.49090
H          3.50910       -2.51180        0.17200
H          4.08350       -1.03690       -0.60310
H         -0.66600       -1.43000       -0.82210
H         -1.67760       -2.89980        1.52050
H         -0.44810       -4.16630        1.37980
H         -2.16040       -4.55650        1.12270
H         -2.70950       -1.25230       -0.01730
H         -4.87970       -0.60980       -1.02150
H         -5.96510       -2.08550       -2.69640
H         -4.87820       -4.21750       -3.35870
H         -2.69630       -4.85810       -2.37800
H          2.89720        1.13830       -0.91850
H          1.32420        1.17360       -1.79470
H         -0.70670        2.09350       -0.23430
H         -1.34360        4.23160        0.87120
H          0.41510        5.81800        1.62320
H          2.81000        5.27440        1.26530
H          3.45200        3.15570        0.16450
