rmsd155.gzmat
 OpenBabel08211713363D

 48 49  0  0  1  0  0  0  0  0999 V2000
    0.0000    0.0000    0.0000 O   0  0  0  0  0  0  0  0  0  0  0  0
    1.3110    0.0000    0.0000 N   0  0  0  0  0  0  0  0  0  0  0  0
    1.8544    0.0000    1.4215 C   0  0  0  0  0  0  0  0  0  0  0  0
    3.2106   -0.7133    1.3712 C   0  0  0  0  0  0  0  0  0  0  0  0
    3.3026   -1.3843   -0.0121 C   0  0  0  0  0  0  0  0  0  0  0  0
    1.9048   -1.2641   -0.6383 C   0  0  1  0  0  0  0  0  0  0  0  0
    1.9297   -1.1400   -1.7475 H   0  0  0  0  0  0  0  0  0  0  0  0
    1.1401   -2.5808   -0.3797 C   0  0  0  0  0  0  0  0  0  0  0  0
    1.6830   -3.6249   -0.6979 O   0  0  0  0  0  0  0  0  0  0  0  0
   -0.0855   -2.5234    0.2077 N   0  0  0  0  0  0  0  0  0  0  0  0
   -0.9179   -3.7269    0.3161 C   0  0  1  0  0  0  0  0  0  0  0  0
   -0.2339   -4.6172    0.4289 H   0  0  0  0  0  0  0  0  0  0  0  0
   -1.8107   -3.6021    1.5606 C   0  0  0  0  0  0  0  0  0  0  0  0
   -1.7821   -3.8924   -0.9188 C   0  0  0  0  0  0  0  0  0  0  0  0
   -1.8276   -5.1332   -1.5552 C   0  0  0  0  0  0  0  0  0  0  0  0
   -2.6193   -5.3062   -2.6887 C   0  0  0  0  0  0  0  0  0  0  0  0
   -3.3637   -4.2401   -3.1898 C   0  0  0  0  0  0  0  0  0  0  0  0
   -3.3140   -2.9990   -2.5568 C   0  0  0  0  0  0  0  0  0  0  0  0
   -2.5250   -2.8240   -1.4223 C   0  0  0  0  0  0  0  0  0  0  0  0
    1.7861    1.2153   -0.7941 C   0  0  0  0  0  0  0  0  0  0  0  0
    1.4911    2.4974   -0.0741 C   0  0  0  0  0  0  0  0  0  0  0  0
    2.5347    3.3654    0.2528 C   0  0  0  0  0  0  0  0  0  0  0  0
    2.2619    4.5573    0.9197 C   0  0  0  0  0  0  0  0  0  0  0  0
    0.9505    4.8808    1.2648 C   0  0  0  0  0  0  0  0  0  0  0  0
   -0.0914    4.0169    0.9317 C   0  0  0  0  0  0  0  0  0  0  0  0
    0.1759    2.8282    0.2573 C   0  0  0  0  0  0  0  0  0  0  0  0
    1.9135    1.0298    1.8174 H   0  0  0  0  0  0  0  0  0  0  0  0
    1.1216   -0.5373    2.0630 H   0  0  0  0  0  0  0  0  0  0  0  0
    3.2862   -1.4636    2.1791 H   0  0  0  0  0  0  0  0  0  0  0  0
    4.0459   -0.0118    1.5305 H   0  0  0  0  0  0  0  0  0  0  0  0
    3.6126   -2.4476    0.0695 H   0  0  0  0  0  0  0  0  0  0  0  0
    4.0712   -0.9084   -0.6430 H   0  0  0  0  0  0  0  0  0  0  0  0
   -0.5235   -1.5888    0.3434 H   0  0  0  0  0  0  0  0  0  0  0  0
   -2.4755   -2.7317    1.4974 H   0  0  0  0  0  0  0  0  0  0  0  0
   -1.2083   -3.4936    2.4697 H   0  0  0  0  0  0  0  0  0  0  0  0
   -2.4421   -4.4906    1.6740 H   0  0  0  0  0  0  0  0  0  0  0  0
   -1.2365   -5.9651   -1.1755 H   0  0  0  0  0  0  0  0  0  0  0  0
   -2.6512   -6.2737   -3.1849 H   0  0  0  0  0  0  0  0  0  0  0  0
   -3.9802   -4.3751   -4.0751 H   0  0  0  0  0  0  0  0  0  0  0  0
   -3.8897   -2.1638   -2.9503 H   0  0  0  0  0  0  0  0  0  0  0  0
   -2.4813   -1.8487   -0.9375 H   0  0  0  0  0  0  0  0  0  0  0  0
    2.8687    1.1076   -1.0113 H   0  0  0  0  0  0  0  0  0  0  0  0
    1.2360    1.2052   -1.7683 H   0  0  0  0  0  0  0  0  0  0  0  0
    3.5602    3.1185   -0.0110 H   0  0  0  0  0  0  0  0  0  0  0  0
    3.0735    5.2364    1.1714 H   0  0  0  0  0  0  0  0  0  0  0  0
    0.7409    5.8090    1.7925 H   0  0  0  0  0  0  0  0  0  0  0  0
   -1.1163    4.2696    1.1977 H   0  0  0  0  0  0  0  0  0  0  0  0
   -0.6367    2.1369    0.0007 H   0  0  0  0  0  0  0  0  0  0  0  0
  1  2  1  0  0  0  0
  2  3  1  0  0  0  0
  3 27  1  0  0  0  0
  3 28  1  0  0  0  0
  4  3  1  0  0  0  0
  4 30  1  0  0  0  0
  4 29  1  0  0  0  0
  5 31  1  0  0  0  0
  5  4  1  0  0  0  0
  6  8  1  1  0  0  0
  6  5  1  0  0  0  0
  6  2  1  0  0  0  0
  8 10  1  0  0  0  0
  9  8  2  0  0  0  0
 10 11  1  0  0  0  0
 10 33  1  0  0  0  0
 11 12  1  1  0  0  0
 11 13  1  0  0  0  0
 13 36  1  0  0  0  0
 13 35  1  0  0  0  0
 14 11  1  0  0  0  0
 15 37  1  0  0  0  0
 15 14  2  0  0  0  0
 16 15  1  0  0  0  0
 17 16  2  0  0  0  0
 17 18  1  0  0  0  0
 18 19  2  0  0  0  0
 19 41  1  0  0  0  0
 19 14  1  0  0  0  0
 20 21  1  0  0  0  0
 20  2  1  0  0  0  0
 21 22  2  0  0  0  0
 21 26  1  0  0  0  0
 22 23  1  0  0  0  0
 23 45  1  0  0  0  0
 23 24  2  0  0  0  0
 24 46  1  0  0  0  0
 25 47  1  0  0  0  0
 25 24  1  0  0  0  0
 26 25  2  0  0  0  0
 32  5  1  0  0  0  0
 34 13  1  0  0  0  0
 38 16  1  0  0  0  0
 39 17  1  0  0  0  0
 40 18  1  0  0  0  0
 42 20  1  0  0  0  0
 43 20  1  0  0  0  0
 44 22  1  0  0  0  0
 48 26  1  0  0  0  0
M  RAD  3   1   2   6   2   7   2
M  END
$$$$
