51
rmsd34.gzmat
N          0.00000        0.00000        0.00000
N          1.37190        0.00000        0.00000
N          1.82590        0.00000        1.19710
C          0.75110        0.00140        2.10790
C          0.69240       -0.01780        3.50510
C         -0.56170       -0.02900        4.08340
C         -1.74390       -0.01370        3.30420
C         -1.71430        0.00760        1.92370
C         -0.44950        0.00970        1.32190
C         -0.81690       -0.03860       -1.22240
H         -1.89230       -0.02770       -0.91890
O         -0.62090        1.15440       -1.92560
C          0.41920        0.98560       -2.89890
C          0.61760       -0.52030       -3.11170
C         -0.43740       -1.18340       -2.20280
H         -1.34280       -1.42420       -2.80710
C          0.08830       -2.47610       -1.53250
H          1.10550       -2.23270       -1.09730
C         -0.81780       -2.91260       -0.40050
C         -2.20820       -2.86080       -0.50320
C         -3.00510       -3.24140        0.57430
C         -2.41840       -3.67580        1.76060
C         -1.02990       -3.72720        1.86840
C         -0.23280       -3.34470        0.79270
N          0.32660       -3.46430       -2.60730
C          1.41110       -4.41920       -2.30380
C          0.94810       -5.64800       -1.50360
O         -0.12370       -6.28540       -2.17380
C         -1.24180       -5.43300       -2.33500
C         -0.85310       -4.17350       -3.13190
H          1.60790       -0.02560        4.09340
H         -0.65810       -0.04710        5.16800
H         -2.70450       -0.02040        3.82060
H         -2.62190        0.01590        1.32930
H          0.04540        1.52080       -3.78410
H          1.31430        1.48600       -2.49290
H          0.48930       -0.82610       -4.16110
H          1.64010       -0.83380       -2.83010
H         -2.68050       -2.52440       -1.42350
H         -4.08910       -3.19730        0.48770
H         -3.04180       -3.96880        2.60250
H         -0.56620       -4.05690        2.79710
H          0.85240       -3.36830        0.89290
H          2.24310       -3.90110       -1.78410
H          1.81410       -4.75300       -3.28990
H          1.71800       -6.43860       -1.47120
H          0.64230       -5.38980       -0.47560
H         -1.95340       -6.06880       -2.88960
H         -1.66220       -5.19160       -1.34340
H         -0.59060       -4.47050       -4.17650
H         -1.71480       -3.48190       -3.20660
