rmsd76.gzmat
 OpenBabel08211713413D

 51 55  0  0  1  0  0  0  0  0999 V2000
    0.0000    0.0000    0.0000 N   0  0  1  0  0  0  0  0  0  0  0  0
    1.3717    0.0000    0.0000 N   0  0  0  0  0  0  0  0  0  0  0  0
    1.8259    0.0000    1.1970 N   0  0  0  0  0  0  0  0  0  0  0  0
    0.7515    0.0042    2.1079 C   0  0  0  0  0  0  0  0  0  0  0  0
    0.6942   -0.0139    3.5051 C   0  0  0  0  0  0  0  0  0  0  0  0
   -0.5599   -0.0235    4.0838 C   0  0  0  0  0  0  0  0  0  0  0  0
   -1.7425   -0.0099    3.3051 C   0  0  0  0  0  0  0  0  0  0  0  0
   -1.7139    0.0095    1.9244 C   0  0  0  0  0  0  0  0  0  0  0  0
   -0.4496    0.0125    1.3221 C   0  0  2  0  0  0  0  0  0  0  0  0
   -0.8154   -0.0058   -1.2236 C   0  0  1  0  0  0  0  0  0  0  0  0
   -1.8914    0.0127   -0.9219 H   0  0  0  0  0  0  0  0  0  0  0  0
   -0.6025    1.1995   -1.9010 O   0  0  0  0  0  0  0  0  0  0  0  0
    0.4380    1.0371   -2.8742 C   0  0  0  0  0  0  0  0  0  0  0  0
    0.5873   -0.4648   -3.1468 C   0  0  0  0  0  0  0  0  0  0  0  0
   -0.4542   -1.1365   -2.2273 C   0  0  1  0  0  0  0  0  0  0  0  0
   -1.3711   -1.3668   -2.8186 H   0  0  0  0  0  0  0  0  0  0  0  0
    0.0824   -2.4396   -1.5861 C   0  0  1  0  0  0  0  0  0  0  0  0
    1.1104   -2.2029   -1.1729 H   0  0  0  0  0  0  0  0  0  0  0  0
   -0.7925   -2.8937   -0.4369 C   0  0  0  0  0  0  0  0  0  0  0  0
   -2.1851   -2.8290   -0.4896 C   0  0  0  0  0  0  0  0  0  0  0  0
   -2.9468   -3.2284    0.6070 C   0  0  0  0  0  0  0  0  0  0  0  0
   -2.3221   -3.6976    1.7602 C   0  0  0  0  0  0  0  0  0  0  0  0
   -0.9312   -3.7637    1.8167 C   0  0  0  0  0  0  0  0  0  0  0  0
   -0.1695   -3.3587    0.7242 C   0  0  0  0  0  0  0  0  0  0  0  0
    0.2891   -3.4154   -2.6787 N   0  0  0  0  0  0  0  0  0  0  0  0
    1.3759   -4.3796   -2.4170 C   0  0  0  0  0  0  0  0  0  0  0  0
    0.9284   -5.6256   -1.6342 C   0  0  0  0  0  0  0  0  0  0  0  0
   -0.1617   -6.2442   -2.2924 O   0  0  0  0  0  0  0  0  0  0  0  0
   -1.2804   -5.3845   -2.4021 C   0  0  0  0  0  0  0  0  0  0  0  0
   -0.9101   -4.1078   -3.1808 C   0  0  0  0  0  0  0  0  0  0  0  0
    1.6108   -0.0206    4.0919 H   0  0  0  0  0  0  0  0  0  0  0  0
   -0.6561   -0.0397    5.1686 H   0  0  0  0  0  0  0  0  0  0  0  0
   -2.7028   -0.0158    3.8228 H   0  0  0  0  0  0  0  0  0  0  0  0
   -2.6222    0.0158    1.3308 H   0  0  0  0  0  0  0  0  0  0  0  0
    0.0881    1.6214   -3.7378 H   0  0  0  0  0  0  0  0  0  0  0  0
    1.3485    1.4889   -2.4445 H   0  0  0  0  0  0  0  0  0  0  0  0
    0.4133   -0.7264   -4.2017 H   0  0  0  0  0  0  0  0  0  0  0  0
    1.6105   -0.8145   -2.9147 H   0  0  0  0  0  0  0  0  0  0  0  0
   -2.6868   -2.4691   -1.3849 H   0  0  0  0  0  0  0  0  0  0  0  0
   -4.0328   -3.1710    0.5614 H   0  0  0  0  0  0  0  0  0  0  0  0
   -2.9169   -4.0068    2.6169 H   0  0  0  0  0  0  0  0  0  0  0  0
   -0.4369   -4.1225    2.7185 H   0  0  0  0  0  0  0  0  0  0  0  0
    0.9182   -3.3906    0.7864 H   0  0  0  0  0  0  0  0  0  0  0  0
    2.2192   -3.8747   -1.9025 H   0  0  0  0  0  0  0  0  0  0  0  0
    1.7567   -4.6929   -3.4188 H   0  0  0  0  0  0  0  0  0  0  0  0
    1.6980   -6.4176   -1.6387 H   0  0  0  0  0  0  0  0  0  0  0  0
    0.6461   -5.3913   -0.5936 H   0  0  0  0  0  0  0  0  0  0  0  0
   -2.0094   -6.0044   -2.9526 H   0  0  0  0  0  0  0  0  0  0  0  0
   -1.6715   -5.1636   -1.3936 H   0  0  0  0  0  0  0  0  0  0  0  0
   -0.6845   -4.3795   -4.2405 H   0  0  0  0  0  0  0  0  0  0  0  0
   -1.7711   -3.4112   -3.2066 H   0  0  0  0  0  0  0  0  0  0  0  0
  1  2  1  6  0  0  0
  2  3  1  0  0  0  0
  3  4  2  0  0  0  0
  4  5  1  0  0  0  0
  5  6  2  0  0  0  0
  5 31  1  0  0  0  0
  6 32  1  0  0  0  0
  7 33  1  0  0  0  0
  7  6  1  0  0  0  0
  8  7  2  0  0  0  0
  9  1  1  0  0  0  0
  9  8  1  1  0  0  0
  9  4  1  0  0  0  0
 10 15  1  0  0  0  0
 10 11  1  1  0  0  0
 10  1  1  0  0  0  0
 12 10  1  0  0  0  0
 13 36  1  0  0  0  0
 13 12  1  0  0  0  0
 14 38  1  0  0  0  0
 14 13  1  0  0  0  0
 14 15  1  0  0  0  0
 15 16  1  6  0  0  0
 15 17  1  0  0  0  0
 17 18  1  1  0  0  0
 17 19  1  0  0  0  0
 19 24  1  0  0  0  0
 20 19  2  0  0  0  0
 20 21  1  0  0  0  0
 21 22  2  0  0  0  0
 22 23  1  0  0  0  0
 22 41  1  0  0  0  0
 23 42  1  0  0  0  0
 24 43  1  0  0  0  0
 24 23  2  0  0  0  0
 25 26  1  0  0  0  0
 25 17  1  0  0  0  0
 26 44  1  0  0  0  0
 26 27  1  0  0  0  0
 27 47  1  0  0  0  0
 28 27  1  0  0  0  0
 29 28  1  0  0  0  0
 29 49  1  0  0  0  0
 30 25  1  0  0  0  0
 30 29  1  0  0  0  0
 34  8  1  0  0  0  0
 35 13  1  0  0  0  0
 37 14  1  0  0  0  0
 39 20  1  0  0  0  0
 40 21  1  0  0  0  0
 45 26  1  0  0  0  0
 46 27  1  0  0  0  0
 48 29  1  0  0  0  0
 50 30  1  0  0  0  0
 51 30  1  0  0  0  0
M  RAD  2   2   2   9   2
M  END
$$$$
