rmsd69.gzmat
 OpenBabel08211713413D

 51 55  0  0  1  0  0  0  0  0999 V2000
    0.0000    0.0000    0.0000 N   0  0  2  0  0  0  0  0  0  0  0  0
    1.3718    0.0000    0.0000 N   0  0  0  0  0  0  0  0  0  0  0  0
    1.8258    0.0000    1.1972 N   0  0  0  0  0  0  0  0  0  0  0  0
    0.7512    0.0021    2.1080 C   0  0  0  0  0  0  0  0  0  0  0  0
    0.6941   -0.0229    3.5052 C   0  0  0  0  0  0  0  0  0  0  0  0
   -0.5596   -0.0383    4.0842 C   0  0  0  0  0  0  0  0  0  0  0  0
   -1.7421   -0.0195    3.3057 C   0  0  0  0  0  0  0  0  0  0  0  0
   -1.7136    0.0080    1.9250 C   0  0  0  0  0  0  0  0  0  0  0  0
   -0.4496    0.0115    1.3223 C   0  0  2  0  0  0  0  0  0  0  0  0
   -0.8175   -0.0254   -1.2218 C   0  0  1  0  0  0  0  0  0  0  0  0
   -1.8931   -0.0027   -0.9171 H   0  0  0  0  0  0  0  0  0  0  0  0
   -0.6107    1.1705   -1.9175 O   0  0  0  0  0  0  0  0  0  0  0  0
    0.4254    0.9966   -2.8927 C   0  0  0  0  0  0  0  0  0  0  0  0
    0.5532   -0.5067   -3.1671 C   0  0  0  0  0  0  0  0  0  0  0  0
   -0.4601   -1.1709   -2.2101 C   0  0  1  0  0  0  0  0  0  0  0  0
   -1.3860   -1.4259   -2.7767 H   0  0  0  0  0  0  0  0  0  0  0  0
    0.1106   -2.4556   -1.5608 C   0  0  1  0  0  0  0  0  0  0  0  0
    1.1494   -2.1996   -1.1875 H   0  0  0  0  0  0  0  0  0  0  0  0
   -0.7176   -2.9050   -0.3759 C   0  0  0  0  0  0  0  0  0  0  0  0
   -2.1120   -2.8684   -0.3833 C   0  0  0  0  0  0  0  0  0  0  0  0
   -2.8290   -3.2803    0.7386 C   0  0  0  0  0  0  0  0  0  0  0  0
   -2.1579   -3.7291    1.8736 C   0  0  0  0  0  0  0  0  0  0  0  0
   -0.7648   -3.7605    1.8877 C   0  0  0  0  0  0  0  0  0  0  0  0
   -0.0482   -3.3461    0.7687 C   0  0  0  0  0  0  0  0  0  0  0  0
    0.2926   -3.4494   -2.6419 N   0  0  0  0  0  0  0  0  0  0  0  0
    1.3804   -4.4146   -2.3876 C   0  0  0  0  0  0  0  0  0  0  0  0
    0.9431   -5.6494   -1.5811 C   0  0  0  0  0  0  0  0  0  0  0  0
   -0.1595   -6.2737   -2.2130 O   0  0  0  0  0  0  0  0  0  0  0  0
   -1.2779   -5.4131   -2.3170 C   0  0  0  0  0  0  0  0  0  0  0  0
   -0.9173   -4.1445   -3.1142 C   0  0  0  0  0  0  0  0  0  0  0  0
    1.6107   -0.0325    4.0917 H   0  0  0  0  0  0  0  0  0  0  0  0
   -0.6552   -0.0652    5.1688 H   0  0  0  0  0  0  0  0  0  0  0  0
   -2.7015   -0.0289    3.8244 H   0  0  0  0  0  0  0  0  0  0  0  0
   -2.6221    0.0190    1.3318 H   0  0  0  0  0  0  0  0  0  0  0  0
    0.0805    1.5868   -3.7544 H   0  0  0  0  0  0  0  0  0  0  0  0
    1.3436    1.4355   -2.4652 H   0  0  0  0  0  0  0  0  0  0  0  0
    0.3404   -0.7683   -4.2150 H   0  0  0  0  0  0  0  0  0  0  0  0
    1.5813   -0.8650   -2.9745 H   0  0  0  0  0  0  0  0  0  0  0  0
   -2.6498   -2.5234   -1.2635 H   0  0  0  0  0  0  0  0  0  0  0  0
   -3.9171   -3.2506    0.7259 H   0  0  0  0  0  0  0  0  0  0  0  0
   -2.7175   -4.0506    2.7492 H   0  0  0  0  0  0  0  0  0  0  0  0
   -0.2341   -4.1005    2.7761 H   0  0  0  0  0  0  0  0  0  0  0  0
    1.0413   -3.3533    0.7961 H   0  0  0  0  0  0  0  0  0  0  0  0
    2.2351   -3.9067   -1.8957 H   0  0  0  0  0  0  0  0  0  0  0  0
    1.7413   -4.7423   -3.3925 H   0  0  0  0  0  0  0  0  0  0  0  0
    1.7099   -6.4440   -1.5894 H   0  0  0  0  0  0  0  0  0  0  0  0
    0.6796   -5.4013   -0.5386 H   0  0  0  0  0  0  0  0  0  0  0  0
   -2.0153   -6.0372   -2.8519 H   0  0  0  0  0  0  0  0  0  0  0  0
   -1.6562   -5.1825   -1.3057 H   0  0  0  0  0  0  0  0  0  0  0  0
   -0.7095   -4.4278   -4.1746 H   0  0  0  0  0  0  0  0  0  0  0  0
   -1.7790   -3.4483   -3.1362 H   0  0  0  0  0  0  0  0  0  0  0  0
  1  2  1  1  0  0  0
  2  3  1  0  0  0  0
  3  4  2  0  0  0  0
  4  5  1  0  0  0  0
  5  6  2  0  0  0  0
  5 31  1  0  0  0  0
  6 32  1  0  0  0  0
  7 33  1  0  0  0  0
  7  6  1  0  0  0  0
  8  7  2  0  0  0  0
  9  1  1  0  0  0  0
  9  8  1  1  0  0  0
  9  4  1  0  0  0  0
 10 15  1  0  0  0  0
 10 11  1  1  0  0  0
 10  1  1  0  0  0  0
 12 10  1  0  0  0  0
 13 36  1  0  0  0  0
 13 12  1  0  0  0  0
 14 38  1  0  0  0  0
 14 13  1  0  0  0  0
 14 15  1  0  0  0  0
 15 16  1  6  0  0  0
 15 17  1  0  0  0  0
 17 18  1  1  0  0  0
 17 19  1  0  0  0  0
 19 24  1  0  0  0  0
 20 19  2  0  0  0  0
 20 21  1  0  0  0  0
 21 22  2  0  0  0  0
 22 23  1  0  0  0  0
 22 41  1  0  0  0  0
 23 42  1  0  0  0  0
 24 43  1  0  0  0  0
 24 23  2  0  0  0  0
 25 26  1  0  0  0  0
 25 17  1  0  0  0  0
 26 44  1  0  0  0  0
 26 27  1  0  0  0  0
 27 47  1  0  0  0  0
 28 27  1  0  0  0  0
 29 28  1  0  0  0  0
 29 49  1  0  0  0  0
 30 25  1  0  0  0  0
 30 29  1  0  0  0  0
 34  8  1  0  0  0  0
 35 13  1  0  0  0  0
 37 14  1  0  0  0  0
 39 20  1  0  0  0  0
 40 21  1  0  0  0  0
 45 26  1  0  0  0  0
 46 27  1  0  0  0  0
 48 29  1  0  0  0  0
 50 30  1  0  0  0  0
 51 30  1  0  0  0  0
M  RAD  2   2   2   9   2
M  END
$$$$
