51
rmsd28.gzmat
N          0.00000        0.00000        0.00000
N          1.37160        0.00000        0.00000
N          1.82560        0.00000        1.19710
C          0.75120        0.00650        2.10800
C          0.69320       -0.00820        3.50530
C         -0.56070       -0.00770        4.08430
C         -1.74290        0.00750        3.30530
C         -1.71380        0.02160        1.92460
C         -0.44970        0.01660        1.32230
C         -0.81820       -0.01540       -1.22120
H         -1.89360       -0.01840       -0.91510
O         -0.63330        1.19790       -1.89310
C          0.39850        1.06120       -2.87890
C          0.57840       -0.43580       -3.15850
C         -0.44170       -1.13290       -2.23350
H         -1.35910       -1.37670       -2.81870
C          0.12660       -2.43220       -1.61240
H          1.16830       -2.18880       -1.23920
C         -0.69830       -2.89480       -0.43040
C         -2.09260       -2.85430       -0.43480
C         -2.80860       -3.26680        0.68740
C         -2.13590       -3.71820        1.82060
C         -0.74280       -3.75500        1.83080
C         -0.02680       -3.34440        0.71000
N          0.29730       -3.40580       -2.71350
C          1.38550       -4.37680       -2.48480
C          0.95090       -5.61940       -1.68950
O         -0.15550       -6.23420       -2.32370
C         -1.27400       -5.37160       -2.40670
C         -0.91770       -4.09150       -3.18710
H          1.60890       -0.01820        4.09280
H         -0.65710       -0.01770        5.16910
H         -2.70260        0.00670        3.82370
H         -2.62200        0.03050        1.33100
H          0.02470        1.63940       -3.73670
H          1.30370        1.53210       -2.45890
H          0.40420       -0.69860       -4.21310
H          1.61070       -0.76390       -2.93630
H         -2.62960       -2.50290       -1.31300
H         -3.89640       -3.23380        0.67800
H         -2.69480       -4.03550        2.69830
H         -0.21170       -4.09610        2.71850
H          1.06300       -3.35800        0.73330
H          2.24690       -3.87790       -1.99540
H          1.73390       -4.69300       -3.49740
H          1.71540       -6.41540       -1.70890
H          0.69320       -5.38100       -0.64370
H         -2.01590       -5.98750       -2.94420
H         -1.64370       -5.15510       -1.38960
H         -0.72050       -4.35810       -4.25370
H         -1.77710       -3.39230       -3.19010
