51
rmsd75.gzmat
N          0.00000        0.00000        0.00000
N          1.37190        0.00000        0.00000
N          1.82570        0.00000        1.19720
C          0.75100        0.00650        2.10800
C          0.69150       -0.00880        3.50530
C         -0.56270       -0.01420        4.08380
C         -1.74450        0.00010        3.30420
C         -1.71380        0.01760        1.92350
C         -0.44930        0.01620        1.32200
C         -0.81890        0.00190       -1.22140
H         -1.89380        0.02220       -0.91500
O         -0.60570        1.20940       -1.89420
C          0.43000        1.04800       -2.87240
C          0.56630       -0.45250       -3.15970
C         -0.46510       -1.12630       -2.23110
H         -1.38670       -1.35560       -2.81500
C          0.07250       -2.42950       -1.59130
H          1.09040       -2.18720       -1.15570
C         -0.82480       -2.89500       -0.46340
C         -2.21620       -2.84450       -0.55140
C         -3.00150       -3.24920        0.52630
C         -2.40190       -3.70600        1.69760
C         -1.01230       -3.75970        1.78900
C         -0.22680       -3.35430        0.71350
N          0.31810       -3.39830       -2.68090
C          1.36620       -4.39000       -2.36700
C          0.84400       -5.63290       -1.62600
O         -0.21600       -6.22130       -2.35720
C         -1.30760       -5.33600       -2.52240
C         -0.86210       -4.06020       -3.26280
H          1.60670       -0.01580        4.09370
H         -0.65910       -0.02720        5.16880
H         -2.70570       -0.00330        3.82030
H         -2.62100        0.02600        1.32860
H          0.07950        1.64310       -3.72840
H          1.34570        1.48810       -2.44170
H          0.37530       -0.70300       -4.21440
H          1.58990       -0.81300       -2.94850
H         -2.69930       -2.49180       -1.45990
H         -4.08640       -3.20660        0.45170
H         -3.01560       -4.01600        2.54060
H         -0.53880       -4.10920        2.70530
H          0.85970       -3.38200        0.80060
H          2.18900       -3.91090       -1.79750
H          1.79800       -4.70170       -3.34830
H          1.59380       -6.44250       -1.59050
H          0.50130       -5.39980       -0.60330
H         -2.01670       -5.93340       -3.12140
H         -1.75260       -5.11810       -1.53610
H         -0.57320       -4.32990       -4.30790
H         -1.70480       -3.34570       -3.34060
