51
rmsd70.gzmat
N          0.00000        0.00000        0.00000
N          1.37160        0.00000        0.00000
N          1.82550        0.00000        1.19740
C          0.75070        0.00530        2.10820
C          0.69030       -0.01040        3.50530
C         -0.56460       -0.01580        4.08250
C         -1.74630       -0.00150        3.30290
C         -1.71510        0.01620        1.92230
C         -0.44980        0.01480        1.32200
C         -0.82150        0.00080       -1.21880
H         -1.89590        0.02650       -0.90940
O         -0.60830        1.20730       -1.89420
C          0.42700        1.04180       -2.87120
C          0.52570       -0.45560       -3.18780
C         -0.47870       -1.13040       -2.22890
H         -1.41200       -1.37150       -2.78960
C          0.09080       -2.42870       -1.60590
H          1.13610       -2.18590       -1.24230
C         -0.72650       -2.88740       -0.41720
C         -2.12060       -2.83650       -0.40790
C         -2.82820       -3.25120        0.71870
C         -2.14720       -3.71450        1.84200
C         -0.75440       -3.76000        1.83930
C         -0.04660       -3.34830        0.71360
N          0.25190       -3.41020       -2.70160
C          1.32750       -4.39420       -2.46770
C          0.87680       -5.64040       -1.68590
O         -0.23950       -6.23480       -2.32220
C         -1.34520       -5.35480       -2.39230
C         -0.97200       -4.08060       -3.17450
H          1.60500       -0.01800        4.09470
H         -0.66080       -0.02860        5.16750
H         -2.70750       -0.00480        3.81900
H         -2.62220        0.02550        1.32710
H          0.09640        1.66270       -3.71640
H          1.35270        1.44880       -2.42930
H          0.28420       -0.68430       -4.23740
H          1.55210       -0.83480       -3.02930
H         -2.66390       -2.47630       -1.27840
H         -3.91590       -3.20950        0.72170
H         -2.69990       -4.03480        2.72250
H         -0.21750       -4.10700        2.72100
H          1.04340       -3.37230        0.72480
H          2.19030       -3.90910       -1.96640
H          1.68130       -4.70530       -3.48000
H          1.63110       -6.44600       -1.71880
H          0.62520       -5.41160       -0.63620
H         -2.10350       -5.95690       -2.92220
H         -1.70120       -5.13400       -1.37080
H         -0.77730       -4.35230       -4.24050
H         -1.82180       -3.36980       -3.17680
