rmsd28.gzmat
 OpenBabel08211713413D

 51 55  0  0  1  0  0  0  0  0999 V2000
    0.0000    0.0000    0.0000 N   0  0  2  0  0  0  0  0  0  0  0  0
    1.3716    0.0000    0.0000 N   0  0  0  0  0  0  0  0  0  0  0  0
    1.8256    0.0000    1.1971 N   0  0  0  0  0  0  0  0  0  0  0  0
    0.7512    0.0065    2.1080 C   0  0  0  0  0  0  0  0  0  0  0  0
    0.6932   -0.0082    3.5053 C   0  0  0  0  0  0  0  0  0  0  0  0
   -0.5607   -0.0077    4.0843 C   0  0  0  0  0  0  0  0  0  0  0  0
   -1.7429    0.0075    3.3053 C   0  0  0  0  0  0  0  0  0  0  0  0
   -1.7138    0.0216    1.9246 C   0  0  0  0  0  0  0  0  0  0  0  0
   -0.4497    0.0166    1.3223 C   0  0  2  0  0  0  0  0  0  0  0  0
   -0.8182   -0.0154   -1.2212 C   0  0  1  0  0  0  0  0  0  0  0  0
   -1.8936   -0.0184   -0.9151 H   0  0  0  0  0  0  0  0  0  0  0  0
   -0.6333    1.1979   -1.8931 O   0  0  0  0  0  0  0  0  0  0  0  0
    0.3985    1.0612   -2.8789 C   0  0  0  0  0  0  0  0  0  0  0  0
    0.5784   -0.4358   -3.1585 C   0  0  0  0  0  0  0  0  0  0  0  0
   -0.4417   -1.1329   -2.2335 C   0  0  1  0  0  0  0  0  0  0  0  0
   -1.3591   -1.3767   -2.8187 H   0  0  0  0  0  0  0  0  0  0  0  0
    0.1266   -2.4322   -1.6124 C   0  0  1  0  0  0  0  0  0  0  0  0
    1.1683   -2.1888   -1.2392 H   0  0  0  0  0  0  0  0  0  0  0  0
   -0.6983   -2.8948   -0.4304 C   0  0  0  0  0  0  0  0  0  0  0  0
   -2.0926   -2.8543   -0.4348 C   0  0  0  0  0  0  0  0  0  0  0  0
   -2.8086   -3.2668    0.6874 C   0  0  0  0  0  0  0  0  0  0  0  0
   -2.1359   -3.7182    1.8206 C   0  0  0  0  0  0  0  0  0  0  0  0
   -0.7428   -3.7550    1.8308 C   0  0  0  0  0  0  0  0  0  0  0  0
   -0.0268   -3.3444    0.7100 C   0  0  0  0  0  0  0  0  0  0  0  0
    0.2973   -3.4058   -2.7135 N   0  0  0  0  0  0  0  0  0  0  0  0
    1.3855   -4.3768   -2.4848 C   0  0  0  0  0  0  0  0  0  0  0  0
    0.9509   -5.6194   -1.6895 C   0  0  0  0  0  0  0  0  0  0  0  0
   -0.1555   -6.2342   -2.3237 O   0  0  0  0  0  0  0  0  0  0  0  0
   -1.2740   -5.3716   -2.4067 C   0  0  0  0  0  0  0  0  0  0  0  0
   -0.9177   -4.0915   -3.1871 C   0  0  0  0  0  0  0  0  0  0  0  0
    1.6089   -0.0182    4.0928 H   0  0  0  0  0  0  0  0  0  0  0  0
   -0.6571   -0.0177    5.1691 H   0  0  0  0  0  0  0  0  0  0  0  0
   -2.7026    0.0067    3.8237 H   0  0  0  0  0  0  0  0  0  0  0  0
   -2.6220    0.0305    1.3310 H   0  0  0  0  0  0  0  0  0  0  0  0
    0.0247    1.6394   -3.7367 H   0  0  0  0  0  0  0  0  0  0  0  0
    1.3037    1.5321   -2.4589 H   0  0  0  0  0  0  0  0  0  0  0  0
    0.4042   -0.6986   -4.2131 H   0  0  0  0  0  0  0  0  0  0  0  0
    1.6107   -0.7639   -2.9363 H   0  0  0  0  0  0  0  0  0  0  0  0
   -2.6296   -2.5029   -1.3130 H   0  0  0  0  0  0  0  0  0  0  0  0
   -3.8964   -3.2338    0.6780 H   0  0  0  0  0  0  0  0  0  0  0  0
   -2.6948   -4.0355    2.6983 H   0  0  0  0  0  0  0  0  0  0  0  0
   -0.2117   -4.0961    2.7185 H   0  0  0  0  0  0  0  0  0  0  0  0
    1.0630   -3.3580    0.7333 H   0  0  0  0  0  0  0  0  0  0  0  0
    2.2469   -3.8779   -1.9954 H   0  0  0  0  0  0  0  0  0  0  0  0
    1.7339   -4.6930   -3.4974 H   0  0  0  0  0  0  0  0  0  0  0  0
    1.7154   -6.4154   -1.7089 H   0  0  0  0  0  0  0  0  0  0  0  0
    0.6932   -5.3810   -0.6437 H   0  0  0  0  0  0  0  0  0  0  0  0
   -2.0159   -5.9875   -2.9442 H   0  0  0  0  0  0  0  0  0  0  0  0
   -1.6437   -5.1551   -1.3896 H   0  0  0  0  0  0  0  0  0  0  0  0
   -0.7205   -4.3581   -4.2537 H   0  0  0  0  0  0  0  0  0  0  0  0
   -1.7771   -3.3923   -3.1901 H   0  0  0  0  0  0  0  0  0  0  0  0
  1  2  1  1  0  0  0
  2  3  1  0  0  0  0
  3  4  2  0  0  0  0
  4  5  1  0  0  0  0
  5  6  2  0  0  0  0
  5 31  1  0  0  0  0
  6 32  1  0  0  0  0
  7 33  1  0  0  0  0
  7  6  1  0  0  0  0
  8  7  2  0  0  0  0
  9  1  1  0  0  0  0
  9  8  1  1  0  0  0
  9  4  1  0  0  0  0
 10 15  1  0  0  0  0
 10 11  1  1  0  0  0
 10  1  1  0  0  0  0
 12 10  1  0  0  0  0
 13 36  1  0  0  0  0
 13 12  1  0  0  0  0
 14 38  1  0  0  0  0
 14 13  1  0  0  0  0
 14 15  1  0  0  0  0
 15 16  1  6  0  0  0
 15 17  1  0  0  0  0
 17 18  1  1  0  0  0
 17 19  1  0  0  0  0
 19 24  1  0  0  0  0
 20 19  2  0  0  0  0
 20 21  1  0  0  0  0
 21 22  2  0  0  0  0
 22 23  1  0  0  0  0
 22 41  1  0  0  0  0
 23 42  1  0  0  0  0
 24 43  1  0  0  0  0
 24 23  2  0  0  0  0
 25 26  1  0  0  0  0
 25 17  1  0  0  0  0
 26 44  1  0  0  0  0
 26 27  1  0  0  0  0
 27 47  1  0  0  0  0
 28 27  1  0  0  0  0
 29 28  1  0  0  0  0
 29 49  1  0  0  0  0
 30 25  1  0  0  0  0
 30 29  1  0  0  0  0
 34  8  1  0  0  0  0
 35 13  1  0  0  0  0
 37 14  1  0  0  0  0
 39 20  1  0  0  0  0
 40 21  1  0  0  0  0
 45 26  1  0  0  0  0
 46 27  1  0  0  0  0
 48 29  1  0  0  0  0
 50 30  1  0  0  0  0
 51 30  1  0  0  0  0
M  RAD  2   2   2   9   2
M  END
$$$$
