
     RDKit          3D

 51 55  0  0  0  0  0  0  0  0999 V2000
    0.0860    0.0449    0.0177 N   0  0  0  0  0  0  0  0  0  0  0  0
    1.4411   -0.0326   -0.0215 N   0  0  0  0  0  0  0  0  0  0  0  0
    1.9070   -0.1133    1.1760 N   0  0  0  0  0  0  0  0  0  0  0  0
    0.8493   -0.0958    2.0599 C   0  0  0  0  0  0  0  0  0  0  0  0
    0.8181   -0.1927    3.4622 C   0  0  0  0  0  0  0  0  0  0  0  0
   -0.4276   -0.1865    4.0733 C   0  0  0  0  0  0  0  0  0  0  0  0
   -1.6215   -0.0834    3.3147 C   0  0  0  0  0  0  0  0  0  0  0  0
   -1.6084    0.0165    1.9302 C   0  0  0  0  0  0  0  0  0  0  0  0
   -0.3471    0.0081    1.3154 C   0  0  0  0  0  0  0  0  0  0  0  0
   -0.7095    0.0539   -1.2095 C   0  0  1  0  0  0  0  0  0  0  0  0
   -1.7514    0.0442   -0.8599 H   0  0  0  0  0  0  0  0  0  0  0  0
   -0.4823    1.2106   -1.9558 O   0  0  0  0  0  0  0  0  0  0  0  0
    0.2552    0.9257   -3.1535 C   0  0  0  0  0  0  0  0  0  0  0  0
    0.6662   -0.5443   -3.0718 C   0  0  0  0  0  0  0  0  0  0  0  0
   -0.4032   -1.1362   -2.1465 C   0  0  1  0  0  0  0  0  0  0  0  0
   -1.3247   -1.2995   -2.7298 H   0  0  0  0  0  0  0  0  0  0  0  0
    0.0104   -2.4448   -1.4567 C   0  0  1  0  0  0  0  0  0  0  0  0
    0.9921   -2.2484   -1.0062 H   0  0  0  0  0  0  0  0  0  0  0  0
   -0.9169   -2.8228   -0.3021 C   0  0  0  0  0  0  0  0  0  0  0  0
   -2.3138   -2.7758   -0.4129 C   0  0  0  0  0  0  0  0  0  0  0  0
   -3.1316   -3.1420    0.6598 C   0  0  0  0  0  0  0  0  0  0  0  0
   -2.5631   -3.5517    1.8684 C   0  0  0  0  0  0  0  0  0  0  0  0
   -1.1724   -3.5866    1.9979 C   0  0  0  0  0  0  0  0  0  0  0  0
   -0.3618   -3.2253    0.9209 C   0  0  0  0  0  0  0  0  0  0  0  0
    0.2566   -3.4810   -2.4566 N   0  0  0  0  0  0  0  0  0  0  0  0
    1.2989   -4.4606   -2.1820 C   0  0  0  0  0  0  0  0  0  0  0  0
    0.7549   -5.7541   -1.5724 C   0  0  0  0  0  0  0  0  0  0  0  0
   -0.2623   -6.2961   -2.3950 O   0  0  0  0  0  0  0  0  0  0  0  0
   -1.3408   -5.3925   -2.5493 C   0  0  0  0  0  0  0  0  0  0  0  0
   -0.8626   -4.0768   -3.1736 C   0  0  0  0  0  0  0  0  0  0  0  0
    1.7450   -0.2745    4.0319 H   0  0  0  0  0  0  0  0  0  0  0  0
   -0.4980   -0.2635    5.1606 H   0  0  0  0  0  0  0  0  0  0  0  0
   -2.5809   -0.0902    3.8370 H   0  0  0  0  0  0  0  0  0  0  0  0
   -2.5336    0.0739    1.3566 H   0  0  0  0  0  0  0  0  0  0  0  0
   -0.4011    1.1219   -4.0203 H   0  0  0  0  0  0  0  0  0  0  0  0
    1.1147    1.6114   -3.2096 H   0  0  0  0  0  0  0  0  0  0  0  0
    0.6953   -1.0397   -4.0508 H   0  0  0  0  0  0  0  0  0  0  0  0
    1.6527   -0.6448   -2.5982 H   0  0  0  0  0  0  0  0  0  0  0  0
   -2.7782   -2.4498   -1.3464 H   0  0  0  0  0  0  0  0  0  0  0  0
   -4.2184   -3.1019    0.5519 H   0  0  0  0  0  0  0  0  0  0  0  0
   -3.2014   -3.8297    2.7102 H   0  0  0  0  0  0  0  0  0  0  0  0
   -0.7165   -3.8807    2.9458 H   0  0  0  0  0  0  0  0  0  0  0  0
    0.7252   -3.2312    1.0360 H   0  0  0  0  0  0  0  0  0  0  0  0
    2.0609   -4.0113   -1.5264 H   0  0  0  0  0  0  0  0  0  0  0  0
    1.7955   -4.7215   -3.1364 H   0  0  0  0  0  0  0  0  0  0  0  0
    1.5476   -6.5152   -1.5002 H   0  0  0  0  0  0  0  0  0  0  0  0
    0.3618   -5.5629   -0.5541 H   0  0  0  0  0  0  0  0  0  0  0  0
   -2.0775   -5.8839   -3.2044 H   0  0  0  0  0  0  0  0  0  0  0  0
   -1.8202   -5.2009   -1.5705 H   0  0  0  0  0  0  0  0  0  0  0  0
   -0.5388   -4.2915   -4.2100 H   0  0  0  0  0  0  0  0  0  0  0  0
   -1.6963   -3.3623   -3.2414 H   0  0  0  0  0  0  0  0  0  0  0  0
  1  2  1  0
  1  9  1  0
  1 10  1  0
  2  3  2  0
  3  4  1  0
  4  5  1  0
  4  9  2  0
  5  6  2  0
  5 31  1  0
  6  7  1  0
  6 32  1  0
  7  8  2  0
  7 33  1  0
  8  9  1  0
  8 34  1  0
 10 11  1  1
 10 12  1  0
 10 15  1  0
 12 13  1  0
 13 14  1  0
 13 35  1  0
 13 36  1  0
 14 15  1  0
 14 37  1  0
 14 38  1  0
 15 16  1  6
 15 17  1  0
 17 18  1  1
 17 19  1  0
 17 25  1  0
 19 20  2  0
 19 24  1  0
 20 21  1  0
 20 39  1  0
 21 22  2  0
 21 40  1  0
 22 23  1  0
 22 41  1  0
 23 24  2  0
 23 42  1  0
 24 43  1  0
 25 26  1  0
 25 30  1  0
 26 27  1  0
 26 44  1  0
 26 45  1  0
 27 28  1  0
 27 46  1  0
 27 47  1  0
 28 29  1  0
 29 30  1  0
 29 48  1  0
 29 49  1  0
 30 50  1  0
 30 51  1  0
M  END

