51
rmsd77.gzmat
N          0.00000        0.00000        0.00000
N          1.37180        0.00000        0.00000
N          1.82620        0.00000        1.19680
C          0.75170        0.00560        2.10780
C          0.69440       -0.01100        3.50520
C         -0.55910       -0.02120        4.08490
C         -1.74130       -0.00940        3.30620
C         -1.71290        0.01070        1.92550
C         -0.44940        0.01360        1.32230
C         -0.81400        0.00080       -1.22470
H         -1.89070        0.01880       -0.92350
O         -0.60110        1.21000       -1.89490
C          0.43620        1.05400       -2.87220
C          0.58630       -0.44570       -3.15430
C         -0.45150       -1.12370       -2.23520
H         -1.36900       -1.35280       -2.82560
C          0.08760       -2.43010       -1.60300
H          1.11920       -2.19800       -1.19650
C         -0.78150       -2.88550       -0.44970
C         -2.17470       -2.82970       -0.50140
C         -2.93280       -3.23750        0.59430
C         -2.30380       -3.69960        1.74800
C         -0.91240       -3.74940        1.80660
C         -0.15440       -3.34190        0.71240
N          0.28410       -3.40280       -2.70070
C          1.36040       -4.37970       -2.44120
C          0.89640       -5.61710       -1.65440
O         -0.19640       -6.22690       -2.31640
C         -1.30690       -5.35770       -2.43170
C         -0.92240       -4.08180       -3.20480
H          1.61030       -0.01590        4.09270
H         -0.65480       -0.03650        5.17000
H         -2.70110       -0.01790        3.82470
H         -2.62180        0.01680        1.33270
H          0.08050        1.64330       -3.73000
H          1.34810        1.50370       -2.44360
H          0.41150       -0.70170       -4.21060
H          1.60990       -0.79620       -2.92740
H         -2.67920       -2.47070       -1.39570
H         -4.01930       -3.19290        0.54830
H         -2.89650       -4.01650        2.60320
H         -0.41550       -4.09720        2.71120
H          0.93370       -3.36500        0.77460
H          2.21130       -3.88420       -1.93010
H          1.73540       -4.69980       -3.44300
H          1.65630       -6.41770       -1.65080
H          0.61150       -5.37380       -0.61650
H         -2.03810       -5.96980       -2.98790
H         -1.70270       -5.13780       -1.42510
H         -0.69980       -4.35140       -4.26560
H         -1.77660       -3.37680       -3.23060
