rmsd75.gzmat
 OpenBabel08211713413D

 51 55  0  0  1  0  0  0  0  0999 V2000
    0.0000    0.0000    0.0000 N   0  0  1  0  0  0  0  0  0  0  0  0
    1.3719    0.0000    0.0000 N   0  0  0  0  0  0  0  0  0  0  0  0
    1.8257    0.0000    1.1972 N   0  0  0  0  0  0  0  0  0  0  0  0
    0.7510    0.0065    2.1080 C   0  0  0  0  0  0  0  0  0  0  0  0
    0.6915   -0.0088    3.5053 C   0  0  0  0  0  0  0  0  0  0  0  0
   -0.5627   -0.0142    4.0838 C   0  0  0  0  0  0  0  0  0  0  0  0
   -1.7445    0.0001    3.3042 C   0  0  0  0  0  0  0  0  0  0  0  0
   -1.7138    0.0176    1.9235 C   0  0  0  0  0  0  0  0  0  0  0  0
   -0.4493    0.0162    1.3220 C   0  0  2  0  0  0  0  0  0  0  0  0
   -0.8189    0.0019   -1.2214 C   0  0  1  0  0  0  0  0  0  0  0  0
   -1.8938    0.0222   -0.9150 H   0  0  0  0  0  0  0  0  0  0  0  0
   -0.6057    1.2094   -1.8942 O   0  0  0  0  0  0  0  0  0  0  0  0
    0.4300    1.0480   -2.8724 C   0  0  0  0  0  0  0  0  0  0  0  0
    0.5663   -0.4525   -3.1597 C   0  0  0  0  0  0  0  0  0  0  0  0
   -0.4651   -1.1263   -2.2311 C   0  0  1  0  0  0  0  0  0  0  0  0
   -1.3867   -1.3556   -2.8150 H   0  0  0  0  0  0  0  0  0  0  0  0
    0.0725   -2.4295   -1.5913 C   0  0  1  0  0  0  0  0  0  0  0  0
    1.0904   -2.1872   -1.1557 H   0  0  0  0  0  0  0  0  0  0  0  0
   -0.8248   -2.8950   -0.4634 C   0  0  0  0  0  0  0  0  0  0  0  0
   -2.2162   -2.8445   -0.5514 C   0  0  0  0  0  0  0  0  0  0  0  0
   -3.0015   -3.2492    0.5263 C   0  0  0  0  0  0  0  0  0  0  0  0
   -2.4019   -3.7060    1.6976 C   0  0  0  0  0  0  0  0  0  0  0  0
   -1.0123   -3.7597    1.7890 C   0  0  0  0  0  0  0  0  0  0  0  0
   -0.2268   -3.3543    0.7135 C   0  0  0  0  0  0  0  0  0  0  0  0
    0.3181   -3.3983   -2.6809 N   0  0  0  0  0  0  0  0  0  0  0  0
    1.3662   -4.3900   -2.3670 C   0  0  0  0  0  0  0  0  0  0  0  0
    0.8440   -5.6329   -1.6260 C   0  0  0  0  0  0  0  0  0  0  0  0
   -0.2160   -6.2213   -2.3572 O   0  0  0  0  0  0  0  0  0  0  0  0
   -1.3076   -5.3360   -2.5224 C   0  0  0  0  0  0  0  0  0  0  0  0
   -0.8621   -4.0602   -3.2628 C   0  0  0  0  0  0  0  0  0  0  0  0
    1.6067   -0.0158    4.0937 H   0  0  0  0  0  0  0  0  0  0  0  0
   -0.6591   -0.0272    5.1688 H   0  0  0  0  0  0  0  0  0  0  0  0
   -2.7057   -0.0033    3.8203 H   0  0  0  0  0  0  0  0  0  0  0  0
   -2.6210    0.0260    1.3286 H   0  0  0  0  0  0  0  0  0  0  0  0
    0.0795    1.6431   -3.7284 H   0  0  0  0  0  0  0  0  0  0  0  0
    1.3457    1.4881   -2.4417 H   0  0  0  0  0  0  0  0  0  0  0  0
    0.3753   -0.7030   -4.2144 H   0  0  0  0  0  0  0  0  0  0  0  0
    1.5899   -0.8130   -2.9485 H   0  0  0  0  0  0  0  0  0  0  0  0
   -2.6993   -2.4918   -1.4599 H   0  0  0  0  0  0  0  0  0  0  0  0
   -4.0864   -3.2066    0.4517 H   0  0  0  0  0  0  0  0  0  0  0  0
   -3.0156   -4.0160    2.5406 H   0  0  0  0  0  0  0  0  0  0  0  0
   -0.5388   -4.1092    2.7053 H   0  0  0  0  0  0  0  0  0  0  0  0
    0.8597   -3.3820    0.8006 H   0  0  0  0  0  0  0  0  0  0  0  0
    2.1890   -3.9109   -1.7975 H   0  0  0  0  0  0  0  0  0  0  0  0
    1.7980   -4.7017   -3.3483 H   0  0  0  0  0  0  0  0  0  0  0  0
    1.5938   -6.4425   -1.5905 H   0  0  0  0  0  0  0  0  0  0  0  0
    0.5013   -5.3998   -0.6033 H   0  0  0  0  0  0  0  0  0  0  0  0
   -2.0167   -5.9334   -3.1214 H   0  0  0  0  0  0  0  0  0  0  0  0
   -1.7526   -5.1181   -1.5361 H   0  0  0  0  0  0  0  0  0  0  0  0
   -0.5732   -4.3299   -4.3079 H   0  0  0  0  0  0  0  0  0  0  0  0
   -1.7048   -3.3457   -3.3406 H   0  0  0  0  0  0  0  0  0  0  0  0
  1  2  1  6  0  0  0
  2  3  1  0  0  0  0
  3  4  2  0  0  0  0
  4  5  1  0  0  0  0
  5  6  2  0  0  0  0
  5 31  1  0  0  0  0
  6 32  1  0  0  0  0
  7 33  1  0  0  0  0
  7  6  1  0  0  0  0
  8  7  2  0  0  0  0
  9  1  1  0  0  0  0
  9  8  1  1  0  0  0
  9  4  1  0  0  0  0
 10 15  1  0  0  0  0
 10 11  1  1  0  0  0
 10  1  1  0  0  0  0
 12 10  1  0  0  0  0
 13 36  1  0  0  0  0
 13 12  1  0  0  0  0
 14 38  1  0  0  0  0
 14 13  1  0  0  0  0
 14 15  1  0  0  0  0
 15 16  1  6  0  0  0
 15 17  1  0  0  0  0
 17 18  1  1  0  0  0
 17 19  1  0  0  0  0
 19 24  1  0  0  0  0
 20 19  2  0  0  0  0
 20 21  1  0  0  0  0
 21 22  2  0  0  0  0
 22 23  1  0  0  0  0
 22 41  1  0  0  0  0
 23 42  1  0  0  0  0
 24 43  1  0  0  0  0
 24 23  2  0  0  0  0
 25 26  1  0  0  0  0
 25 17  1  0  0  0  0
 26 44  1  0  0  0  0
 26 27  1  0  0  0  0
 27 46  1  0  0  0  0
 27 47  1  0  0  0  0
 28 27  1  0  0  0  0
 29 28  1  0  0  0  0
 29 49  1  0  0  0  0
 30 25  1  0  0  0  0
 30 29  1  0  0  0  0
 34  8  1  0  0  0  0
 35 13  1  0  0  0  0
 37 14  1  0  0  0  0
 39 20  1  0  0  0  0
 40 21  1  0  0  0  0
 45 26  1  0  0  0  0
 48 29  1  0  0  0  0
 50 30  1  0  0  0  0
 51 30  1  0  0  0  0
M  RAD  2   2   2   9   2
M  END
$$$$
