51
rmsd76.gzmat
N          0.00000        0.00000        0.00000
N          1.37170        0.00000        0.00000
N          1.82590        0.00000        1.19700
C          0.75150        0.00420        2.10790
C          0.69420       -0.01390        3.50510
C         -0.55990       -0.02350        4.08380
C         -1.74250       -0.00990        3.30510
C         -1.71390        0.00950        1.92440
C         -0.44960        0.01250        1.32210
C         -0.81540       -0.00580       -1.22360
H         -1.89140        0.01270       -0.92190
O         -0.60250        1.19950       -1.90100
C          0.43800        1.03710       -2.87420
C          0.58730       -0.46480       -3.14680
C         -0.45420       -1.13650       -2.22730
H         -1.37110       -1.36680       -2.81860
C          0.08240       -2.43960       -1.58610
H          1.11040       -2.20290       -1.17290
C         -0.79250       -2.89370       -0.43690
C         -2.18510       -2.82900       -0.48960
C         -2.94680       -3.22840        0.60700
C         -2.32210       -3.69760        1.76020
C         -0.93120       -3.76370        1.81670
C         -0.16950       -3.35870        0.72420
N          0.28910       -3.41540       -2.67870
C          1.37590       -4.37960       -2.41700
C          0.92840       -5.62560       -1.63420
O         -0.16170       -6.24420       -2.29240
C         -1.28040       -5.38450       -2.40210
C         -0.91010       -4.10780       -3.18080
H          1.61080       -0.02060        4.09190
H         -0.65610       -0.03970        5.16860
H         -2.70280       -0.01580        3.82280
H         -2.62220        0.01580        1.33080
H          0.08810        1.62140       -3.73780
H          1.34850        1.48890       -2.44450
H          0.41330       -0.72640       -4.20170
H          1.61050       -0.81450       -2.91470
H         -2.68680       -2.46910       -1.38490
H         -4.03280       -3.17100        0.56140
H         -2.91690       -4.00680        2.61690
H         -0.43690       -4.12250        2.71850
H          0.91820       -3.39060        0.78640
H          2.21920       -3.87470       -1.90250
H          1.75670       -4.69290       -3.41880
H          1.69800       -6.41760       -1.63870
H          0.64610       -5.39130       -0.59360
H         -2.00940       -6.00440       -2.95260
H         -1.67150       -5.16360       -1.39360
H         -0.68450       -4.37950       -4.24050
H         -1.77110       -3.41120       -3.20660
