rmsd56.gzmat
 OpenBabel08211713393D

 35 37  0  0  0  0  0  0  0  0999 V2000
    0.0000    0.0000    0.0000 O   0  0  0  0  0  0  0  0  0  0  0  0
    1.2057    0.0000    0.0000 C   0  0  0  0  0  0  0  0  0  0  0  0
    2.0462    0.0000    1.1514 N   0  0  0  0  0  0  0  0  0  0  0  0
    1.7110    0.0058    2.0912 H   0  0  0  0  0  0  0  0  0  0  0  0
    3.3872   -0.0007    0.7572 C   0  0  0  0  0  0  0  0  0  0  0  0
    3.4179    0.0040   -0.6298 C   0  0  0  0  0  0  0  0  0  0  0  0
    2.0753    0.0409   -1.0948 N   0  0  0  0  0  0  0  0  0  0  0  0
    1.8086   -0.1072   -2.0470 H   0  0  0  0  0  0  0  0  0  0  0  0
    4.5774   -0.0215   -1.5074 C   0  0  0  0  0  0  0  0  0  0  0  0
    5.6945   -0.2018   -1.0749 O   0  0  0  0  0  0  0  0  0  0  0  0
    4.3451    0.1575   -2.9644 C   0  0  0  0  0  0  0  0  0  0  0  0
    4.8373   -0.8056   -3.8454 C   0  0  0  0  0  0  0  0  0  0  0  0
    4.6335   -0.6652   -5.2136 C   0  0  0  0  0  0  0  0  0  0  0  0
    3.9528    0.4631   -5.6947 C   0  0  0  0  0  0  0  0  0  0  0  0
    3.4811    1.4454   -4.8110 C   0  0  0  0  0  0  0  0  0  0  0  0
    3.6788    1.2844   -3.4445 C   0  0  0  0  0  0  0  0  0  0  0  0
    3.7462    0.6088   -7.0829 N   0  0  0  0  0  0  0  0  0  0  0  0
    2.6683    1.2691   -7.6905 C   0  0  0  0  0  0  0  0  0  0  0  0
    2.8648    1.1457   -9.0617 C   0  0  0  0  0  0  0  0  0  0  0  0
    4.0363    0.4347   -9.3023 N   0  0  0  0  0  0  0  0  0  0  0  0
    4.5598    0.1110   -8.1169 C   0  0  0  0  0  0  0  0  0  0  0  0
    4.4975   -0.0059    1.7340 C   0  0  0  0  0  0  0  0  0  0  0  0
    4.5486    1.3081    2.5144 C   0  0  0  0  0  0  0  0  0  0  0  0
    5.3829   -1.6704   -3.4583 H   0  0  0  0  0  0  0  0  0  0  0  0
    4.9938   -1.4310   -5.8988 H   0  0  0  0  0  0  0  0  0  0  0  0
    2.9774    2.3342   -5.1889 H   0  0  0  0  0  0  0  0  0  0  0  0
    3.3188    2.0468   -2.7485 H   0  0  0  0  0  0  0  0  0  0  0  0
    1.8837    1.7344   -7.1335 H   0  0  0  0  0  0  0  0  0  0  0  0
    2.2663    1.5057   -9.8769 H   0  0  0  0  0  0  0  0  0  0  0  0
    5.4761   -0.4279   -7.9493 H   0  0  0  0  0  0  0  0  0  0  0  0
    5.4705   -0.1666    1.2023 H   0  0  0  0  0  0  0  0  0  0  0  0
    4.4097   -0.8684    2.4297 H   0  0  0  0  0  0  0  0  0  0  0  0
    4.6503    2.1693    1.8402 H   0  0  0  0  0  0  0  0  0  0  0  0
    5.4104    1.3279    3.1939 H   0  0  0  0  0  0  0  0  0  0  0  0
    3.6488    1.4664    3.1187 H   0  0  0  0  0  0  0  0  0  0  0  0
  1  2  2  0  0  0  0
  2  3  1  0  0  0  0
  3  4  1  0  0  0  0
  5  3  1  0  0  0  0
  5 22  1  0  0  0  0
  6  5  2  0  0  0  0
  7  6  1  0  0  0  0
  7  2  1  0  0  0  0
  8  7  1  0  0  0  0
  9 10  2  0  0  0  0
  9  6  1  0  0  0  0
 11  9  1  0  0  0  0
 12 24  1  0  0  0  0
 12 11  2  0  0  0  0
 13 12  1  0  0  0  0
 14 13  2  0  0  0  0
 14 15  1  0  0  0  0
 15 16  2  0  0  0  0
 16 11  1  0  0  0  0
 16 27  1  0  0  0  0
 17 14  1  0  0  0  0
 18 28  1  0  0  0  0
 18 17  1  0  0  0  0
 19 18  1  0  0  0  0
 20 19  2  0  0  0  0
 20 21  2  0  0  0  0
 21 30  1  0  0  0  0
 21 17  1  0  0  0  0
 22 32  1  0  0  0  0
 22 23  1  0  0  0  0
 23 35  1  0  0  0  0
 23 34  1  0  0  0  0
 25 13  1  0  0  0  0
 26 15  1  0  0  0  0
 29 19  1  0  0  0  0
 31 22  1  0  0  0  0
 33 23  1  0  0  0  0
M  RAD  1  18   2
M  END
$$$$
