35

O         -0.06420        0.44890        0.25630
C          1.13730        0.30930        0.18480
N          2.05890        0.23950        1.24160
H          1.76570        0.31220        2.20780
C          3.34520        0.02220        0.79810
C          3.29070       -0.01960       -0.57900
N          1.94050        0.17380       -0.93250
H          1.54670        0.05060       -1.85510
C          4.39880       -0.22150       -1.51480
O          5.48870       -0.64300       -1.14060
C          4.18670        0.07580       -2.97240
C          4.93110       -0.66710       -3.90340
C          4.81830       -0.42320       -5.26710
C          3.98310        0.60680       -5.72870
C          3.26680        1.38290       -4.80690
C          3.35880        1.10790       -3.44330
N          3.86820        0.86480       -7.11190
C          4.85390        0.71040       -8.07660
C          4.26600        1.06920       -9.26600
N          2.95160        1.42520       -9.06630
C          2.74080        1.29920       -7.78070
C          4.50740       -0.06080        1.73090
C          4.82380        1.27620        2.41820
H          5.59580       -1.44800       -3.53070
H          5.36550       -1.03850       -5.98250
H          2.66140        2.22040       -5.15590
H          2.81360        1.73950       -2.74010
H          5.86490        0.40750       -7.82160
H          4.72370        1.09470      -10.25390
H          1.79730        1.46530       -7.26230
H          5.36940       -0.41410        1.15300
H          4.28850       -0.82880        2.49440
H          5.08650        2.04380        1.67430
H          5.67420        1.16300        3.10750
H          3.96770        1.65320        3.00080
