rmsd27.gzmat
 OpenBabel08211713393D

 35 37  0  0  0  0  0  0  0  0999 V2000
    0.0000    0.0000    0.0000 O   0  0  0  0  0  0  0  0  0  0  0  0
    1.2056    0.0000    0.0000 C   0  0  0  0  0  0  0  0  0  0  0  0
    2.0442    0.0000    1.1517 N   0  0  0  0  0  0  0  0  0  0  0  0
    1.7091    0.0010    2.0919 H   0  0  0  0  0  0  0  0  0  0  0  0
    3.3855   -0.0021    0.7578 C   0  0  0  0  0  0  0  0  0  0  0  0
    3.4174    0.0079   -0.6288 C   0  0  0  0  0  0  0  0  0  0  0  0
    2.0760    0.0538   -1.0965 N   0  0  0  0  0  0  0  0  0  0  0  0
    1.8112   -0.1350   -2.0421 H   0  0  0  0  0  0  0  0  0  0  0  0
    4.5867   -0.0112   -1.4940 C   0  0  0  0  0  0  0  0  0  0  0  0
    5.6853   -0.2712   -1.0517 O   0  0  0  0  0  0  0  0  0  0  0  0
    4.4130    0.2799   -2.9398 C   0  0  0  0  0  0  0  0  0  0  0  0
    5.0633   -0.5425   -3.8614 C   0  0  0  0  0  0  0  0  0  0  0  0
    4.9574   -0.2843   -5.2232 C   0  0  0  0  0  0  0  0  0  0  0  0
    4.2097    0.8207   -5.6559 C   0  0  0  0  0  0  0  0  0  0  0  0
    3.5635    1.6543   -4.7313 C   0  0  0  0  0  0  0  0  0  0  0  0
    3.6719    1.3791   -3.3729 C   0  0  0  0  0  0  0  0  0  0  0  0
    4.1178    1.0987   -7.0367 N   0  0  0  0  0  0  0  0  0  0  0  0
    3.0317    1.7023   -7.6867 C   0  0  0  0  0  0  0  0  0  0  0  0
    3.3843    1.7845   -9.0297 C   0  0  0  0  0  0  0  0  0  0  0  0
    4.6571    1.2529   -9.2104 N   0  0  0  0  0  0  0  0  0  0  0  0
    5.0926    0.8402   -8.0172 C   0  0  0  0  0  0  0  0  0  0  0  0
    4.4954   -0.0032    1.7345 C   0  0  0  0  0  0  0  0  0  0  0  0
    4.6294    1.3643    2.4058 C   0  0  0  0  0  0  0  0  0  0  0  0
    5.6601   -1.3881   -3.5065 H   0  0  0  0  0  0  0  0  0  0  0  0
    5.4457   -0.9404   -5.9417 H   0  0  0  0  0  0  0  0  0  0  0  0
    2.9963    2.5203   -5.0705 H   0  0  0  0  0  0  0  0  0  0  0  0
    3.1868    2.0363   -2.6457 H   0  0  0  0  0  0  0  0  0  0  0  0
    2.1369    1.9911   -7.1783 H   0  0  0  0  0  0  0  0  0  0  0  0
    2.8311    2.1756   -9.8624 H   0  0  0  0  0  0  0  0  0  0  0  0
    6.0481    0.3924   -7.8068 H   0  0  0  0  0  0  0  0  0  0  0  0
    5.4548   -0.2631    1.2174 H   0  0  0  0  0  0  0  0  0  0  0  0
    4.3574   -0.7990    2.4970 H   0  0  0  0  0  0  0  0  0  0  0  0
    4.7868    2.1592    1.6643 H   0  0  0  0  0  0  0  0  0  0  0  0
    5.4909    1.3849    3.0853 H   0  0  0  0  0  0  0  0  0  0  0  0
    3.7405    1.6272    2.9889 H   0  0  0  0  0  0  0  0  0  0  0  0
  1  2  2  0  0  0  0
  2  3  1  0  0  0  0
  3  4  1  0  0  0  0
  5  3  1  0  0  0  0
  5 22  1  0  0  0  0
  6  5  2  0  0  0  0
  7  6  1  0  0  0  0
  7  2  1  0  0  0  0
  8  7  1  0  0  0  0
  9 10  2  0  0  0  0
  9  6  1  0  0  0  0
 11  9  1  0  0  0  0
 12 24  1  0  0  0  0
 12 11  2  0  0  0  0
 13 12  1  0  0  0  0
 14 13  2  0  0  0  0
 14 15  1  0  0  0  0
 15 16  2  0  0  0  0
 16 11  1  0  0  0  0
 16 27  1  0  0  0  0
 17 14  1  0  0  0  0
 18 28  1  0  0  0  0
 18 17  1  0  0  0  0
 19 18  1  0  0  0  0
 20 19  2  0  0  0  0
 20 21  2  0  0  0  0
 21 30  1  0  0  0  0
 21 17  1  0  0  0  0
 22 23  1  0  0  0  0
 22 32  1  0  0  0  0
 23 35  1  0  0  0  0
 23 34  1  0  0  0  0
 25 13  1  0  0  0  0
 26 15  1  0  0  0  0
 29 19  1  0  0  0  0
 31 22  1  0  0  0  0
 33 23  1  0  0  0  0
M  RAD  1  18   2
M  END
$$$$
