35

O         -0.12490        0.17960        0.14440
C          1.08480        0.24810        0.13060
N          1.95670        0.27720        1.23050
H          1.61340        0.23340        2.18180
C          3.27350        0.41400        0.84840
C          3.28820        0.44190       -0.52990
N          1.94770        0.32270       -0.94740
H          1.60680        0.45660       -1.88940
C          4.45000        0.56850       -1.41240
O          5.54240        0.93370       -0.98970
C          4.29230        0.26230       -2.87540
C          3.43400       -0.73130       -3.37310
C          3.37820       -1.00810       -4.73850
C          4.19250       -0.29830       -5.63170
C          5.06860        0.68320       -5.14130
C          5.11810        0.95180       -3.77850
N          4.13940       -0.57700       -7.01500
C          4.32360        0.32220       -8.05590
C          4.19250       -0.41490       -9.20840
N          3.94790       -1.73610       -8.91060
C          3.91750       -1.80610       -7.60400
C          4.39210        0.44050        1.83620
C          4.59320       -0.90280        2.55380
H          2.80990       -1.31130       -2.69150
H          2.68950       -1.76590       -5.11410
H          5.72800        1.21300       -5.83010
H          5.81520        1.69170       -3.38220
H          4.48520        1.38110       -7.87800
H          4.25630       -0.06050      -10.23640
H          3.77940       -2.70850       -7.00970
H          4.18380        1.23150        2.57900
H          5.30090        0.73310        1.29730
H          3.68860       -1.21910        3.09810
H          5.41460       -0.83090        3.28250
H          4.84420       -1.69570        1.83280
