rmsd107.gzmat
 OpenBabel08211713393D

 35 37  0  0  0  0  0  0  0  0999 V2000
    0.0000    0.0000    0.0000 O   0  0  0  0  0  0  0  0  0  0  0  0
    1.2058    0.0000    0.0000 C   0  0  0  0  0  0  0  0  0  0  0  0
    2.0463    0.0000    1.1510 N   0  0  0  0  0  0  0  0  0  0  0  0
    1.7112    0.0033    2.0910 H   0  0  0  0  0  0  0  0  0  0  0  0
    3.3874   -0.0050    0.7565 C   0  0  0  0  0  0  0  0  0  0  0  0
    3.4175    0.0012   -0.6302 C   0  0  0  0  0  0  0  0  0  0  0  0
    2.0752    0.0423   -1.0953 N   0  0  0  0  0  0  0  0  0  0  0  0
    1.8087   -0.1034   -2.0477 H   0  0  0  0  0  0  0  0  0  0  0  0
    4.5792   -0.0231   -1.5054 C   0  0  0  0  0  0  0  0  0  0  0  0
    5.6855   -0.2691   -1.0764 O   0  0  0  0  0  0  0  0  0  0  0  0
    4.3708    0.2497   -2.9510 C   0  0  0  0  0  0  0  0  0  0  0  0
    4.9259   -0.6259   -3.8850 C   0  0  0  0  0  0  0  0  0  0  0  0
    4.7618   -0.3881   -5.2451 C   0  0  0  0  0  0  0  0  0  0  0  0
    4.0479    0.7444   -5.6631 C   0  0  0  0  0  0  0  0  0  0  0  0
    3.5055    1.6359   -4.7252 C   0  0  0  0  0  0  0  0  0  0  0  0
    3.6737    1.3831   -3.3687 C   0  0  0  0  0  0  0  0  0  0  0  0
    3.8745    0.9979   -7.0405 N   0  0  0  0  0  0  0  0  0  0  0  0
    3.7821    0.0317   -8.0524 C   0  0  0  0  0  0  0  0  0  0  0  0
    3.6237    0.7346   -9.2421 C   0  0  0  0  0  0  0  0  0  0  0  0
    3.6241    2.1009   -8.9797 N   0  0  0  0  0  0  0  0  0  0  0  0
    3.7721    2.2560   -7.6614 C   0  0  0  0  0  0  0  0  0  0  0  0
    4.4991   -0.0120    1.7315 C   0  0  0  0  0  0  0  0  0  0  0  0
    4.5450    1.2923    2.5277 C   0  0  0  0  0  0  0  0  0  0  0  0
    5.4970   -1.4939   -3.5438 H   0  0  0  0  0  0  0  0  0  0  0  0
    5.1990   -1.0672   -5.9759 H   0  0  0  0  0  0  0  0  0  0  0  0
    2.9471    2.5120   -5.0513 H   0  0  0  0  0  0  0  0  0  0  0  0
    3.2595    2.0760   -2.6307 H   0  0  0  0  0  0  0  0  0  0  0  0
    3.8147   -1.0187   -7.8571 H   0  0  0  0  0  0  0  0  0  0  0  0
    3.5119    0.3703  -10.2456 H   0  0  0  0  0  0  0  0  0  0  0  0
    3.8268    3.1898   -7.1301 H   0  0  0  0  0  0  0  0  0  0  0  0
    5.4726   -0.1598    1.1967 H   0  0  0  0  0  0  0  0  0  0  0  0
    4.4180   -0.8836    2.4161 H   0  0  0  0  0  0  0  0  0  0  0  0
    4.6472    2.1615    1.8641 H   0  0  0  0  0  0  0  0  0  0  0  0
    5.4052    1.3054    3.2093 H   0  0  0  0  0  0  0  0  0  0  0  0
    3.6444    1.4417    3.1322 H   0  0  0  0  0  0  0  0  0  0  0  0
  1  2  2  0  0  0  0
  2  3  1  0  0  0  0
  3  4  1  0  0  0  0
  5  3  1  0  0  0  0
  5 22  1  0  0  0  0
  6  5  2  0  0  0  0
  7  6  1  0  0  0  0
  7  2  1  0  0  0  0
  8  7  1  0  0  0  0
  9 10  2  0  0  0  0
  9  6  1  0  0  0  0
 11  9  1  0  0  0  0
 12 24  1  0  0  0  0
 12 11  2  0  0  0  0
 13 12  1  0  0  0  0
 14 13  2  0  0  0  0
 14 15  1  0  0  0  0
 15 16  2  0  0  0  0
 16 11  1  0  0  0  0
 16 27  1  0  0  0  0
 17 14  1  0  0  0  0
 18 28  1  0  0  0  0
 18 17  1  0  0  0  0
 19 20  2  0  0  0  0
 19 18  1  0  0  0  0
 20 21  2  0  0  0  0
 21 30  1  0  0  0  0
 21 17  1  0  0  0  0
 22 32  1  0  0  0  0
 22 23  1  0  0  0  0
 23 35  1  0  0  0  0
 23 34  1  0  0  0  0
 25 13  1  0  0  0  0
 26 15  1  0  0  0  0
 29 19  1  0  0  0  0
 31 22  1  0  0  0  0
 33 23  1  0  0  0  0
M  RAD  1  18   2
M  END
$$$$
