35
rmsd56.gzmat
O          0.00000        0.00000        0.00000
C          1.20570        0.00000        0.00000
N          2.04620        0.00000        1.15140
H          1.71100        0.00580        2.09120
C          3.38720       -0.00070        0.75720
C          3.41790        0.00400       -0.62980
N          2.07530        0.04090       -1.09480
H          1.80860       -0.10720       -2.04700
C          4.57740       -0.02150       -1.50740
O          5.69450       -0.20180       -1.07490
C          4.34510        0.15750       -2.96440
C          4.83730       -0.80560       -3.84540
C          4.63350       -0.66520       -5.21360
C          3.95280        0.46310       -5.69470
C          3.48110        1.44540       -4.81100
C          3.67880        1.28440       -3.44450
N          3.74620        0.60880       -7.08290
C          2.66830        1.26910       -7.69050
C          2.86480        1.14570       -9.06170
N          4.03630        0.43470       -9.30230
C          4.55980        0.11100       -8.11690
C          4.49750       -0.00590        1.73400
C          4.54860        1.30810        2.51440
H          5.38290       -1.67040       -3.45830
H          4.99380       -1.43100       -5.89880
H          2.97740        2.33420       -5.18890
H          3.31880        2.04680       -2.74850
H          1.88370        1.73440       -7.13350
H          2.26630        1.50570       -9.87690
H          5.47610       -0.42790       -7.94930
H          5.47050       -0.16660        1.20230
H          4.40970       -0.86840        2.42970
H          4.65030        2.16930        1.84020
H          5.41040        1.32790        3.19390
H          3.64880        1.46640        3.11870
