
     RDKit          3D

 35 37  0  0  0  0  0  0  0  0999 V2000
   -0.0591   -0.6955    0.4516 O   0  0  0  0  0  0  0  0  0  0  0  0
    1.1288   -0.4920    0.3266 C   0  0  0  0  0  0  0  0  0  0  0  0
    2.0985   -0.4133    1.3405 N   0  0  0  0  0  0  0  0  0  0  0  0
    1.8624   -0.5515    2.3152 H   0  0  0  0  0  0  0  0  0  0  0  0
    3.3501   -0.1311    0.8430 C   0  0  0  0  0  0  0  0  0  0  0  0
    3.2223   -0.0328   -0.5263 C   0  0  0  0  0  0  0  0  0  0  0  0
    1.8677   -0.2792   -0.8230 N   0  0  0  0  0  0  0  0  0  0  0  0
    1.4237   -0.1513   -1.7218 H   0  0  0  0  0  0  0  0  0  0  0  0
    4.2915    0.2627   -1.4751 C   0  0  0  0  0  0  0  0  0  0  0  0
    5.3596    0.7340   -1.0901 O   0  0  0  0  0  0  0  0  0  0  0  0
    4.0792    0.0009   -2.9372 C   0  0  0  0  0  0  0  0  0  0  0  0
    4.7994    0.7872   -3.8516 C   0  0  0  0  0  0  0  0  0  0  0  0
    4.6793    0.5822   -5.2209 C   0  0  0  0  0  0  0  0  0  0  0  0
    3.8598   -0.4495   -5.7065 C   0  0  0  0  0  0  0  0  0  0  0  0
    3.1672   -1.2673   -4.8026 C   0  0  0  0  0  0  0  0  0  0  0  0
    3.2672   -1.0326   -3.4322 C   0  0  0  0  0  0  0  0  0  0  0  0
    3.7370   -0.6676   -7.0958 N   0  0  0  0  0  0  0  0  0  0  0  0
    4.7093   -0.4616   -8.0645 C   0  0  0  0  0  0  0  0  0  0  0  0
    4.1178   -0.7969   -9.2588 C   0  0  0  0  0  0  0  0  0  0  0  0
    2.8136   -1.1884   -9.0580 N   0  0  0  0  0  0  0  0  0  0  0  0
    2.6129   -1.1066   -7.7673 C   0  0  0  0  0  0  0  0  0  0  0  0
    4.5464    0.0520    1.7165 C   0  0  0  0  0  0  0  0  0  0  0  0
    4.7772    1.5226    2.0964 C   0  0  0  0  0  0  0  0  0  0  0  0
    5.4503    1.5704   -3.4598 H   0  0  0  0  0  0  0  0  0  0  0  0
    5.2076    1.2297   -5.9220 H   0  0  0  0  0  0  0  0  0  0  0  0
    2.5749   -2.1055   -5.1718 H   0  0  0  0  0  0  0  0  0  0  0  0
    2.7428   -1.6975   -2.7441 H   0  0  0  0  0  0  0  0  0  0  0  0
    5.7160   -0.1440   -7.8098 H   0  0  0  0  0  0  0  0  0  0  0  0
    4.5661   -0.7818  -10.2513 H   0  0  0  0  0  0  0  0  0  0  0  0
    1.6784   -1.3097   -7.2457 H   0  0  0  0  0  0  0  0  0  0  0  0
    5.4297   -0.3176    1.1775 H   0  0  0  0  0  0  0  0  0  0  0  0
    4.4208   -0.5640    2.6234 H   0  0  0  0  0  0  0  0  0  0  0  0
    4.9785    2.1093    1.1892 H   0  0  0  0  0  0  0  0  0  0  0  0
    5.6441    1.6150    2.7686 H   0  0  0  0  0  0  0  0  0  0  0  0
    3.8997    1.9499    2.6069 H   0  0  0  0  0  0  0  0  0  0  0  0
  1  2  2  0
  2  3  1  0
  2  7  1  0
  3  4  1  0
  3  5  1  0
  5  6  2  0
  5 22  1  0
  6  7  1  0
  6  9  1  0
  7  8  1  0
  9 10  2  0
  9 11  1  0
 11 12  2  0
 11 16  1  0
 12 13  1  0
 12 24  1  0
 13 14  2  0
 13 25  1  0
 14 15  1  0
 14 17  1  0
 15 16  2  0
 15 26  1  0
 16 27  1  0
 17 18  1  0
 17 21  1  0
 18 19  2  0
 18 28  1  0
 19 20  1  0
 19 29  1  0
 20 21  2  0
 21 30  1  0
 22 23  1  0
 22 31  1  0
 22 32  1  0
 23 33  1  0
 23 34  1  0
 23 35  1  0
M  END

