35

O         -0.05910       -0.69550        0.45160
C          1.12880       -0.49200        0.32660
N          2.09850       -0.41330        1.34050
H          1.86240       -0.55150        2.31520
C          3.35010       -0.13110        0.84300
C          3.22230       -0.03280       -0.52630
N          1.86770       -0.27920       -0.82300
H          1.42370       -0.15130       -1.72180
C          4.29150        0.26270       -1.47510
O          5.35960        0.73400       -1.09010
C          4.07920        0.00090       -2.93720
C          4.79940        0.78720       -3.85160
C          4.67930        0.58220       -5.22090
C          3.85980       -0.44950       -5.70650
C          3.16720       -1.26730       -4.80260
C          3.26720       -1.03260       -3.43220
N          3.73700       -0.66760       -7.09580
C          4.70930       -0.46160       -8.06450
C          4.11780       -0.79690       -9.25880
N          2.81360       -1.18840       -9.05800
C          2.61290       -1.10660       -7.76730
C          4.54640        0.05200        1.71650
C          4.77720        1.52260        2.09640
H          5.45030        1.57040       -3.45980
H          5.20760        1.22970       -5.92200
H          2.57490       -2.10550       -5.17180
H          2.74280       -1.69750       -2.74410
H          5.71600       -0.14400       -7.80980
H          4.56610       -0.78180      -10.25130
H          1.67840       -1.30970       -7.24570
H          5.42970       -0.31760        1.17750
H          4.42080       -0.56400        2.62340
H          4.97850        2.10930        1.18920
H          5.64410        1.61500        2.76860
H          3.89970        1.94990        2.60690
