rmsd126.gzmat
 OpenBabel08211713393D

 35 37  0  0  0  0  0  0  0  0999 V2000
    0.0000    0.0000    0.0000 O   0  0  0  0  0  0  0  0  0  0  0  0
    1.2057    0.0000    0.0000 C   0  0  0  0  0  0  0  0  0  0  0  0
    2.0469    0.0000    1.1506 N   0  0  0  0  0  0  0  0  0  0  0  0
    1.7131   -0.0029    2.0911 H   0  0  0  0  0  0  0  0  0  0  0  0
    3.3877   -0.0030    0.7547 C   0  0  0  0  0  0  0  0  0  0  0  0
    3.4169   -0.0127   -0.6319 C   0  0  0  0  0  0  0  0  0  0  0  0
    2.0744   -0.0473   -1.0961 N   0  0  0  0  0  0  0  0  0  0  0  0
    1.8086    0.1168   -2.0466 H   0  0  0  0  0  0  0  0  0  0  0  0
    4.5765   -0.0089   -1.5100 C   0  0  0  0  0  0  0  0  0  0  0  0
    5.6917    0.1967   -1.0835 O   0  0  0  0  0  0  0  0  0  0  0  0
    4.3483   -0.2461   -2.9588 C   0  0  0  0  0  0  0  0  0  0  0  0
    4.8933    0.6532   -3.8760 C   0  0  0  0  0  0  0  0  0  0  0  0
    4.6894    0.4656   -5.2383 C   0  0  0  0  0  0  0  0  0  0  0  0
    3.9539   -0.6455   -5.6761 C   0  0  0  0  0  0  0  0  0  0  0  0
    3.4355   -1.5696   -4.7565 C   0  0  0  0  0  0  0  0  0  0  0  0
    3.6359   -1.3620   -3.3967 C   0  0  0  0  0  0  0  0  0  0  0  0
    3.7208   -0.8336   -7.0549 N   0  0  0  0  0  0  0  0  0  0  0  0
    4.5549   -0.4117   -8.1002 C   0  0  0  0  0  0  0  0  0  0  0  0
    3.9082   -0.7717   -9.2777 C   0  0  0  0  0  0  0  0  0  0  0  0
    2.7009   -1.3933   -8.9748 N   0  0  0  0  0  0  0  0  0  0  0  0
    2.5916   -1.4310   -7.6443 C   0  0  0  0  0  0  0  0  0  0  0  0
    4.4994   -0.0002    1.7294 C   0  0  0  0  0  0  0  0  0  0  0  0
    4.5682   -1.3279    2.4848 C   0  0  0  0  0  0  0  0  0  0  0  0
    5.4787    1.5052   -3.5196 H   0  0  0  0  0  0  0  0  0  0  0  0
    5.0895    1.1820   -5.9544 H   0  0  0  0  0  0  0  0  0  0  0  0
    2.8936   -2.4497   -5.0996 H   0  0  0  0  0  0  0  0  0  0  0  0
    3.2408   -2.0803   -2.6731 H   0  0  0  0  0  0  0  0  0  0  0  0
    5.4989    0.0621   -7.9353 H   0  0  0  0  0  0  0  0  0  0  0  0
    4.2124   -0.6354  -10.2981 H   0  0  0  0  0  0  0  0  0  0  0  0
    1.7700   -1.8390   -7.0819 H   0  0  0  0  0  0  0  0  0  0  0  0
    4.4017    0.8486    2.4401 H   0  0  0  0  0  0  0  0  0  0  0  0
    5.4694    0.1804    1.1987 H   0  0  0  0  0  0  0  0  0  0  0  0
    3.6838   -1.4962    3.1088 H   0  0  0  0  0  0  0  0  0  0  0  0
    5.4468   -1.3602    3.1417 H   0  0  0  0  0  0  0  0  0  0  0  0
    4.6528   -2.1764    1.7918 H   0  0  0  0  0  0  0  0  0  0  0  0
  1  2  2  0  0  0  0
  2  3  1  0  0  0  0
  3  4  1  0  0  0  0
  5  3  1  0  0  0  0
  5 22  1  0  0  0  0
  6  5  2  0  0  0  0
  7  6  1  0  0  0  0
  7  2  1  0  0  0  0
  8  7  1  0  0  0  0
  9 10  2  0  0  0  0
  9  6  1  0  0  0  0
 11  9  1  0  0  0  0
 12 24  1  0  0  0  0
 12 11  2  0  0  0  0
 13 12  1  0  0  0  0
 14 13  2  0  0  0  0
 14 15  1  0  0  0  0
 15 16  2  0  0  0  0
 16 11  1  0  0  0  0
 16 27  1  0  0  0  0
 17 14  1  0  0  0  0
 18 28  1  0  0  0  0
 18 17  1  0  0  0  0
 19 20  2  0  0  0  0
 19 18  1  0  0  0  0
 20 21  2  0  0  0  0
 21 30  1  0  0  0  0
 21 17  1  0  0  0  0
 22 31  1  0  0  0  0
 22 23  1  0  0  0  0
 23 33  1  0  0  0  0
 23 34  1  0  0  0  0
 25 13  1  0  0  0  0
 26 15  1  0  0  0  0
 29 19  1  0  0  0  0
 32 22  1  0  0  0  0
 35 23  1  0  0  0  0
M  RAD  1  18   2
M  END
$$$$
