
     RDKit          3D

 35 37  0  0  0  0  0  0  0  0999 V2000
   -0.1249    0.1796    0.1444 O   0  0  0  0  0  0  0  0  0  0  0  0
    1.0848    0.2481    0.1306 C   0  0  0  0  0  0  0  0  0  0  0  0
    1.9567    0.2772    1.2305 N   0  0  0  0  0  0  0  0  0  0  0  0
    1.6134    0.2334    2.1818 H   0  0  0  0  0  0  0  0  0  0  0  0
    3.2735    0.4140    0.8484 C   0  0  0  0  0  0  0  0  0  0  0  0
    3.2882    0.4419   -0.5299 C   0  0  0  0  0  0  0  0  0  0  0  0
    1.9477    0.3227   -0.9474 N   0  0  0  0  0  0  0  0  0  0  0  0
    1.6068    0.4566   -1.8894 H   0  0  0  0  0  0  0  0  0  0  0  0
    4.4500    0.5685   -1.4124 C   0  0  0  0  0  0  0  0  0  0  0  0
    5.5424    0.9337   -0.9897 O   0  0  0  0  0  0  0  0  0  0  0  0
    4.2923    0.2623   -2.8754 C   0  0  0  0  0  0  0  0  0  0  0  0
    3.4340   -0.7313   -3.3731 C   0  0  0  0  0  0  0  0  0  0  0  0
    3.3782   -1.0081   -4.7385 C   0  0  0  0  0  0  0  0  0  0  0  0
    4.1925   -0.2983   -5.6317 C   0  0  0  0  0  0  0  0  0  0  0  0
    5.0686    0.6832   -5.1413 C   0  0  0  0  0  0  0  0  0  0  0  0
    5.1181    0.9518   -3.7785 C   0  0  0  0  0  0  0  0  0  0  0  0
    4.1394   -0.5770   -7.0150 N   0  0  0  0  0  0  0  0  0  0  0  0
    4.3236    0.3222   -8.0559 C   0  0  0  0  0  0  0  0  0  0  0  0
    4.1925   -0.4149   -9.2084 C   0  0  0  0  0  0  0  0  0  0  0  0
    3.9479   -1.7361   -8.9106 N   0  0  0  0  0  0  0  0  0  0  0  0
    3.9175   -1.8061   -7.6040 C   0  0  0  0  0  0  0  0  0  0  0  0
    4.3921    0.4405    1.8362 C   0  0  0  0  0  0  0  0  0  0  0  0
    4.5932   -0.9028    2.5538 C   0  0  0  0  0  0  0  0  0  0  0  0
    2.8099   -1.3113   -2.6915 H   0  0  0  0  0  0  0  0  0  0  0  0
    2.6895   -1.7659   -5.1141 H   0  0  0  0  0  0  0  0  0  0  0  0
    5.7280    1.2130   -5.8301 H   0  0  0  0  0  0  0  0  0  0  0  0
    5.8152    1.6917   -3.3822 H   0  0  0  0  0  0  0  0  0  0  0  0
    4.4852    1.3811   -7.8780 H   0  0  0  0  0  0  0  0  0  0  0  0
    4.2563   -0.0605  -10.2364 H   0  0  0  0  0  0  0  0  0  0  0  0
    3.7794   -2.7085   -7.0097 H   0  0  0  0  0  0  0  0  0  0  0  0
    4.1838    1.2315    2.5790 H   0  0  0  0  0  0  0  0  0  0  0  0
    5.3009    0.7331    1.2973 H   0  0  0  0  0  0  0  0  0  0  0  0
    3.6886   -1.2191    3.0981 H   0  0  0  0  0  0  0  0  0  0  0  0
    5.4146   -0.8309    3.2825 H   0  0  0  0  0  0  0  0  0  0  0  0
    4.8442   -1.6957    1.8328 H   0  0  0  0  0  0  0  0  0  0  0  0
  1  2  2  0
  2  3  1  0
  2  7  1  0
  3  4  1  0
  3  5  1  0
  5  6  2  0
  5 22  1  0
  6  7  1  0
  6  9  1  0
  7  8  1  0
  9 10  2  0
  9 11  1  0
 11 12  2  0
 11 16  1  0
 12 13  1  0
 12 24  1  0
 13 14  2  0
 13 25  1  0
 14 15  1  0
 14 17  1  0
 15 16  2  0
 15 26  1  0
 16 27  1  0
 17 18  1  0
 17 21  1  0
 18 19  2  0
 18 28  1  0
 19 20  1  0
 19 29  1  0
 20 21  2  0
 21 30  1  0
 22 23  1  0
 22 31  1  0
 22 32  1  0
 23 33  1  0
 23 34  1  0
 23 35  1  0
M  END

