
     RDKit          3D

 35 37  0  0  0  0  0  0  0  0999 V2000
   -0.0686    0.2983    0.2409 O   0  0  0  0  0  0  0  0  0  0  0  0
    1.1378    0.2061    0.1759 C   0  0  0  0  0  0  0  0  0  0  0  0
    2.0543    0.1543    1.2381 N   0  0  0  0  0  0  0  0  0  0  0  0
    1.7522    0.1999    2.2031 H   0  0  0  0  0  0  0  0  0  0  0  0
    3.3510   -0.0066    0.8004 C   0  0  0  0  0  0  0  0  0  0  0  0
    3.3073   -0.0277   -0.5775 C   0  0  0  0  0  0  0  0  0  0  0  0
    1.9530    0.1200   -0.9377 N   0  0  0  0  0  0  0  0  0  0  0  0
    1.5702   -0.0030   -1.8650 H   0  0  0  0  0  0  0  0  0  0  0  0
    4.4285   -0.1727   -1.5084 C   0  0  0  0  0  0  0  0  0  0  0  0
    5.5305   -0.5601   -1.1327 O   0  0  0  0  0  0  0  0  0  0  0  0
    4.2158    0.1417   -2.9625 C   0  0  0  0  0  0  0  0  0  0  0  0
    4.9910   -0.5591   -3.9010 C   0  0  0  0  0  0  0  0  0  0  0  0
    4.8900   -0.2850   -5.2598 C   0  0  0  0  0  0  0  0  0  0  0  0
    4.0120    0.7135   -5.7110 C   0  0  0  0  0  0  0  0  0  0  0  0
    3.2482    1.4346   -4.7828 C   0  0  0  0  0  0  0  0  0  0  0  0
    3.3556    1.1522   -3.4216 C   0  0  0  0  0  0  0  0  0  0  0  0
    3.9066    0.9978   -7.0900 N   0  0  0  0  0  0  0  0  0  0  0  0
    4.0329    0.0992   -8.1401 C   0  0  0  0  0  0  0  0  0  0  0  0
    3.8669    0.8424   -9.2843 C   0  0  0  0  0  0  0  0  0  0  0  0
    3.6568    2.1664   -8.9730 N   0  0  0  0  0  0  0  0  0  0  0  0
    3.6813    2.2325   -7.6660 C   0  0  0  0  0  0  0  0  0  0  0  0
    4.5093   -0.0602    1.7401 C   0  0  0  0  0  0  0  0  0  0  0  0
    4.7718    1.2775    2.4483 C   0  0  0  0  0  0  0  0  0  0  0  0
    5.6906   -1.3127   -3.5359 H   0  0  0  0  0  0  0  0  0  0  0  0
    5.5109   -0.8239   -5.9768 H   0  0  0  0  0  0  0  0  0  0  0  0
    2.5582    2.2058   -5.1274 H   0  0  0  0  0  0  0  0  0  0  0  0
    2.7709    1.7410   -2.7132 H   0  0  0  0  0  0  0  0  0  0  0  0
    4.1840   -0.9628   -7.9721 H   0  0  0  0  0  0  0  0  0  0  0  0
    3.8825    0.4906  -10.3149 H   0  0  0  0  0  0  0  0  0  0  0  0
    3.5829    3.1349   -7.0641 H   0  0  0  0  0  0  0  0  0  0  0  0
    5.3876   -0.3733    1.1635 H   0  0  0  0  0  0  0  0  0  0  0  0
    4.3137   -0.8466    2.4912 H   0  0  0  0  0  0  0  0  0  0  0  0
    5.0110    2.0647    1.7171 H   0  0  0  0  0  0  0  0  0  0  0  0
    5.6211    1.1858    3.1420 H   0  0  0  0  0  0  0  0  0  0  0  0
    3.8984    1.6146    3.0298 H   0  0  0  0  0  0  0  0  0  0  0  0
  1  2  2  0
  2  3  1  0
  2  7  1  0
  3  4  1  0
  3  5  1  0
  5  6  2  0
  5 22  1  0
  6  7  1  0
  6  9  1  0
  7  8  1  0
  9 10  2  0
  9 11  1  0
 11 12  2  0
 11 16  1  0
 12 13  1  0
 12 24  1  0
 13 14  2  0
 13 25  1  0
 14 15  1  0
 14 17  1  0
 15 16  2  0
 15 26  1  0
 16 27  1  0
 17 18  1  0
 17 21  1  0
 18 19  2  0
 18 28  1  0
 19 20  1  0
 19 29  1  0
 20 21  2  0
 21 30  1  0
 22 23  1  0
 22 31  1  0
 22 32  1  0
 23 33  1  0
 23 34  1  0
 23 35  1  0
M  END

