rmsd134.gzmat
 OpenBabel08211713403D

 33 33  0  0  1  0  0  0  0  0999 V2000
    0.0000    0.0000    0.0000 N   0  0  0  0  0  0  0  0  0  0  0  0
    1.4178    0.0000    0.0000 C   0  0  0  0  0  0  0  0  0  0  0  0
    2.0943    0.0000    1.2403 C   0  0  0  0  0  0  0  0  0  0  0  0
    3.4864    0.0286    1.2400 C   0  0  0  0  0  0  0  0  0  0  0  0
    4.2066    0.0628    0.0475 C   0  0  0  0  0  0  0  0  0  0  0  0
    3.5328    0.0722   -1.1726 C   0  0  0  0  0  0  0  0  0  0  0  0
    2.1374    0.0420   -1.1966 C   0  0  0  0  0  0  0  0  0  0  0  0
    4.2832    0.1128   -2.4608 C   0  0  0  0  0  0  0  0  0  0  0  0
    1.3533   -0.0357    2.5332 C   0  0  0  0  0  0  0  0  0  0  0  0
   -0.7667   -0.5216   -1.0220 C   0  0  0  0  0  0  0  0  0  0  0  0
   -0.3014   -0.9954   -2.0358 O   0  0  0  0  0  0  0  0  0  0  0  0
   -2.2852   -0.4331   -0.8518 C   0  0  2  0  0  0  0  0  0  0  0  0
   -2.7390   -0.8476   -1.8002 H   0  0  0  0  0  0  0  0  0  0  0  0
   -2.7421    0.9987   -0.6688 C   0  0  0  0  0  0  0  0  0  0  0  0
   -2.8791   -1.6009    0.4337 S   0  0  0  0  0  0  0  0  0  0  0  0
   -2.6463   -0.7308    2.0164 C   0  0  0  0  0  0  0  0  0  0  0  0
   -1.9034    0.2152    2.1782 O   0  0  0  0  0  0  0  0  0  0  0  0
   -3.3734   -1.2462    3.0537 N   0  0  0  0  0  0  0  0  0  0  0  0
   -0.4596    0.2991    0.8652 H   0  0  0  0  0  0  0  0  0  0  0  0
    4.0244    0.0213    2.1870 H   0  0  0  0  0  0  0  0  0  0  0  0
    5.2922    0.0815    0.0722 H   0  0  0  0  0  0  0  0  0  0  0  0
    1.6165    0.0452   -2.1558 H   0  0  0  0  0  0  0  0  0  0  0  0
    4.1110   -0.8051   -3.0442 H   0  0  0  0  0  0  0  0  0  0  0  0
    5.3667    0.2102   -2.3200 H   0  0  0  0  0  0  0  0  0  0  0  0
    3.9591    0.9578   -3.0861 H   0  0  0  0  0  0  0  0  0  0  0  0
    0.7125   -0.9276    2.6093 H   0  0  0  0  0  0  0  0  0  0  0  0
    0.7010    0.8440    2.6580 H   0  0  0  0  0  0  0  0  0  0  0  0
    2.0248   -0.0521    3.4026 H   0  0  0  0  0  0  0  0  0  0  0  0
   -2.3804    1.4599    0.2644 H   0  0  0  0  0  0  0  0  0  0  0  0
   -3.8363    1.0938   -0.6712 H   0  0  0  0  0  0  0  0  0  0  0  0
   -2.3679    1.6359   -1.4875 H   0  0  0  0  0  0  0  0  0  0  0  0
   -3.9922   -2.0264    2.9721 H   0  0  0  0  0  0  0  0  0  0  0  0
   -3.2788   -0.8464    3.9710 H   0  0  0  0  0  0  0  0  0  0  0  0
  1 19  1  0  0  0  0
  2  1  1  0  0  0  0
  2  3  2  0  0  0  0
  3  9  1  0  0  0  0
  4  3  1  0  0  0  0
  4 20  1  0  0  0  0
  5 21  1  0  0  0  0
  5  4  2  0  0  0  0
  6  5  1  0  0  0  0
  7  6  2  0  0  0  0
  7  2  1  0  0  0  0
  8 24  1  0  0  0  0
  8  6  1  0  0  0  0
  9 26  1  0  0  0  0
  9 27  1  0  0  0  0
  9 28  1  0  0  0  0
 10 12  1  0  0  0  0
 10  1  1  0  0  0  0
 11 10  2  0  0  0  0
 12 13  1  6  0  0  0
 12 14  1  0  0  0  0
 12 15  1  0  0  0  0
 14 29  1  0  0  0  0
 15 16  1  0  0  0  0
 16 17  2  0  0  0  0
 16 18  1  0  0  0  0
 18 33  1  0  0  0  0
 22  7  1  0  0  0  0
 23  8  1  0  0  0  0
 25  8  1  0  0  0  0
 30 14  1  0  0  0  0
 31 14  1  0  0  0  0
 32 18  1  0  0  0  0
M  END
$$$$
