33
rmsd134.gzmat
N          0.00000        0.00000        0.00000
C          1.41780        0.00000        0.00000
C          2.09430        0.00000        1.24030
C          3.48640        0.02860        1.24000
C          4.20660        0.06280        0.04750
C          3.53280        0.07220       -1.17260
C          2.13740        0.04200       -1.19660
C          4.28320        0.11280       -2.46080
C          1.35330       -0.03570        2.53320
C         -0.76670       -0.52160       -1.02200
O         -0.30140       -0.99540       -2.03580
C         -2.28520       -0.43310       -0.85180
H         -2.73900       -0.84760       -1.80020
C         -2.74210        0.99870       -0.66880
S         -2.87910       -1.60090        0.43370
C         -2.64630       -0.73080        2.01640
O         -1.90340        0.21520        2.17820
N         -3.37340       -1.24620        3.05370
H         -0.45960        0.29910        0.86520
H          4.02440        0.02130        2.18700
H          5.29220        0.08150        0.07220
H          1.61650        0.04520       -2.15580
H          4.11100       -0.80510       -3.04420
H          5.36670        0.21020       -2.32000
H          3.95910        0.95780       -3.08610
H          0.71250       -0.92760        2.60930
H          0.70100        0.84400        2.65800
H          2.02480       -0.05210        3.40260
H         -2.38040        1.45990        0.26440
H         -3.83630        1.09380       -0.67120
H         -2.36790        1.63590       -1.48750
H         -3.99220       -2.02640        2.97210
H         -3.27880       -0.84640        3.97100
