rmsd158.gzmat
 OpenBabel08211713403D

 33 33  0  0  1  0  0  0  0  0999 V2000
    0.0000    0.0000    0.0000 N   0  0  0  0  0  0  0  0  0  0  0  0
    1.4151    0.0000    0.0000 C   0  0  0  0  0  0  0  0  0  0  0  0
    2.0756    0.0000    1.2517 C   0  0  0  0  0  0  0  0  0  0  0  0
    3.4670    0.0126    1.2738 C   0  0  0  0  0  0  0  0  0  0  0  0
    4.2079    0.0202    0.0937 C   0  0  0  0  0  0  0  0  0  0  0  0
    3.5529    0.0201   -1.1362 C   0  0  0  0  0  0  0  0  0  0  0  0
    2.1574    0.0124   -1.1832 C   0  0  0  0  0  0  0  0  0  0  0  0
    4.3258    0.0246   -2.4119 C   0  0  0  0  0  0  0  0  0  0  0  0
    1.3201   -0.0266    2.5372 C   0  0  0  0  0  0  0  0  0  0  0  0
   -0.8070   -0.1616   -1.1143 C   0  0  0  0  0  0  0  0  0  0  0  0
   -0.3916   -0.3821   -2.2280 O   0  0  0  0  0  0  0  0  0  0  0  0
   -2.3045   -0.0816   -0.8097 C   0  0  2  0  0  0  0  0  0  0  0  0
   -2.5353   -0.5702    0.1715 H   0  0  0  0  0  0  0  0  0  0  0  0
   -3.0854   -0.7549   -1.9215 C   0  0  0  0  0  0  0  0  0  0  0  0
   -2.7784    1.6990   -0.7330 S   0  0  0  0  0  0  0  0  0  0  0  0
   -2.4670    2.0431    1.0265 C   0  0  0  0  0  0  0  0  0  0  0  0
   -1.9527    1.2344    1.7723 O   0  0  0  0  0  0  0  0  0  0  0  0
   -2.8511    3.2785    1.4641 N   0  0  0  0  0  0  0  0  0  0  0  0
   -0.4500    0.2293    0.8937 H   0  0  0  0  0  0  0  0  0  0  0  0
    3.9894    0.0150    2.2300 H   0  0  0  0  0  0  0  0  0  0  0  0
    5.2928    0.0249    0.1369 H   0  0  0  0  0  0  0  0  0  0  0  0
    1.6594    0.0152   -2.1547 H   0  0  0  0  0  0  0  0  0  0  0  0
    4.2313   -0.9426   -2.9296 H   0  0  0  0  0  0  0  0  0  0  0  0
    5.3964    0.2092   -2.2585 H   0  0  0  0  0  0  0  0  0  0  0  0
    3.9581    0.7967   -3.1037 H   0  0  0  0  0  0  0  0  0  0  0  0
    0.7423   -0.9580    2.6430 H   0  0  0  0  0  0  0  0  0  0  0  0
    0.6145    0.8149    2.6255 H   0  0  0  0  0  0  0  0  0  0  0  0
    1.9804    0.0357    3.4128 H   0  0  0  0  0  0  0  0  0  0  0  0
   -2.8648   -0.3234   -2.9121 H   0  0  0  0  0  0  0  0  0  0  0  0
   -4.1706   -0.7187   -1.7674 H   0  0  0  0  0  0  0  0  0  0  0  0
   -2.8037   -1.8185   -1.9994 H   0  0  0  0  0  0  0  0  0  0  0  0
   -3.2625    3.9766    0.8803 H   0  0  0  0  0  0  0  0  0  0  0  0
   -2.6894    3.5364    2.4227 H   0  0  0  0  0  0  0  0  0  0  0  0
  1 19  1  0  0  0  0
  2  1  1  0  0  0  0
  2  3  2  0  0  0  0
  3  4  1  0  0  0  0
  3  9  1  0  0  0  0
  4 20  1  0  0  0  0
  5 21  1  0  0  0  0
  5  4  2  0  0  0  0
  6  5  1  0  0  0  0
  7  6  2  0  0  0  0
  7  2  1  0  0  0  0
  8 24  1  0  0  0  0
  8  6  1  0  0  0  0
  9 27  1  0  0  0  0
  9 26  1  0  0  0  0
  9 28  1  0  0  0  0
 10 12  1  0  0  0  0
 10  1  1  0  0  0  0
 11 10  2  0  0  0  0
 12 15  1  0  0  0  0
 12 13  1  1  0  0  0
 14 30  1  0  0  0  0
 14 12  1  0  0  0  0
 15 16  1  0  0  0  0
 16 18  1  0  0  0  0
 16 17  2  0  0  0  0
 18 33  1  0  0  0  0
 22  7  1  0  0  0  0
 23  8  1  0  0  0  0
 25  8  1  0  0  0  0
 29 14  1  0  0  0  0
 31 14  1  0  0  0  0
 32 18  1  0  0  0  0
M  END
$$$$
