rmsd51.gzmat
 OpenBabel08211713403D

 33 33  0  0  1  0  0  0  0  0999 V2000
    0.0000    0.0000    0.0000 N   0  0  0  0  0  0  0  0  0  0  0  0
    1.4175    0.0000    0.0000 C   0  0  0  0  0  0  0  0  0  0  0  0
    2.0808    0.0000    1.2454 C   0  0  0  0  0  0  0  0  0  0  0  0
    3.4722    0.0407    1.2588 C   0  0  0  0  0  0  0  0  0  0  0  0
    4.2020    0.0877    0.0746 C   0  0  0  0  0  0  0  0  0  0  0  0
    3.5403    0.0970   -1.1535 C   0  0  0  0  0  0  0  0  0  0  0  0
    2.1467    0.0493   -1.1908 C   0  0  0  0  0  0  0  0  0  0  0  0
    4.3157    0.1881   -2.4253 C   0  0  0  0  0  0  0  0  0  0  0  0
    1.3249   -0.0406    2.5292 C   0  0  0  0  0  0  0  0  0  0  0  0
   -0.7857   -0.4503   -1.0470 C   0  0  0  0  0  0  0  0  0  0  0  0
   -0.3366   -0.9548   -2.0490 O   0  0  0  0  0  0  0  0  0  0  0  0
   -2.2862   -0.2758   -0.8106 C   0  0  2  0  0  0  0  0  0  0  0  0
   -2.5416   -0.4255    0.2692 H   0  0  0  0  0  0  0  0  0  0  0  0
   -3.0642   -1.2571   -1.6655 C   0  0  0  0  0  0  0  0  0  0  0  0
   -2.7194    1.4465   -1.3106 S   0  0  0  0  0  0  0  0  0  0  0  0
   -2.3076    2.3544    0.2133 C   0  0  0  0  0  0  0  0  0  0  0  0
   -1.8885    1.8143    1.2160 O   0  0  0  0  0  0  0  0  0  0  0  0
   -2.5188    3.7038    0.1512 N   0  0  0  0  0  0  0  0  0  0  0  0
   -0.4518    0.4584    0.7979 H   0  0  0  0  0  0  0  0  0  0  0  0
    3.9989    0.0357    2.2122 H   0  0  0  0  0  0  0  0  0  0  0  0
    5.2869    0.1223    0.1109 H   0  0  0  0  0  0  0  0  0  0  0  0
    1.6303    0.0550   -2.1529 H   0  0  0  0  0  0  0  0  0  0  0  0
    3.7965   -0.2945   -3.2658 H   0  0  0  0  0  0  0  0  0  0  0  0
    5.3024   -0.2881   -2.3437 H   0  0  0  0  0  0  0  0  0  0  0  0
    4.4809    1.2409   -2.7042 H   0  0  0  0  0  0  0  0  0  0  0  0
    0.6157   -0.8822    2.5557 H   0  0  0  0  0  0  0  0  0  0  0  0
    0.7499    0.8862    2.6906 H   0  0  0  0  0  0  0  0  0  0  0  0
    1.9838   -0.1618    3.4002 H   0  0  0  0  0  0  0  0  0  0  0  0
   -2.7873   -1.2003   -2.7316 H   0  0  0  0  0  0  0  0  0  0  0  0
   -4.1513   -1.1265   -1.5889 H   0  0  0  0  0  0  0  0  0  0  0  0
   -2.8390   -2.2926   -1.3599 H   0  0  0  0  0  0  0  0  0  0  0  0
   -2.8238    4.1827   -0.6718 H   0  0  0  0  0  0  0  0  0  0  0  0
   -2.3041    4.2778    0.9484 H   0  0  0  0  0  0  0  0  0  0  0  0
  1  2  1  0  0  0  0
  1 19  1  0  0  0  0
  2  3  2  0  0  0  0
  3  4  1  0  0  0  0
  3  9  1  0  0  0  0
  4 20  1  0  0  0  0
  5 21  1  0  0  0  0
  5  4  2  0  0  0  0
  6  5  1  0  0  0  0
  7  6  2  0  0  0  0
  7  2  1  0  0  0  0
  8 24  1  0  0  0  0
  8  6  1  0  0  0  0
  9 26  1  0  0  0  0
  9 27  1  0  0  0  0
  9 28  1  0  0  0  0
 10 12  1  0  0  0  0
 10  1  1  0  0  0  0
 11 10  2  0  0  0  0
 12 13  1  1  0  0  0
 14 30  1  0  0  0  0
 14 31  1  0  0  0  0
 14 12  1  0  0  0  0
 15 12  1  0  0  0  0
 15 16  1  0  0  0  0
 16 17  2  0  0  0  0
 18 16  1  0  0  0  0
 18 33  1  0  0  0  0
 22  7  1  0  0  0  0
 23  8  1  0  0  0  0
 25  8  1  0  0  0  0
 29 14  1  0  0  0  0
 32 18  1  0  0  0  0
M  END
$$$$
