33
rmsd96.gzmat
N          0.00000        0.00000        0.00000
C          1.41570        0.00000        0.00000
C          2.07440        0.00000        1.25250
C          3.46580       -0.02260        1.27610
C          4.20850       -0.04370        0.09740
C          3.55510       -0.04400       -1.13320
C          2.15990       -0.02280       -1.18170
C          4.33050       -0.08850       -2.40680
C          1.31870        0.03030        2.53730
C         -0.80250        0.16880       -1.10990
O         -0.38510        0.39860       -2.22360
C         -2.31310        0.07830       -0.87200
H         -2.80570        0.28100       -1.86890
C         -2.79470        1.10260        0.13280
S         -2.81110       -1.65280       -0.51420
C         -2.39390       -1.93920        1.23380
O         -1.79360       -1.15310        1.93790
N         -2.81270       -3.14590        1.72190
H         -0.45030       -0.20160        0.89980
H          3.98590       -0.02440        2.23290
H          5.29340       -0.06140        0.14200
H          1.66300       -0.02610       -2.15390
H          4.31820       -1.10360       -2.83330
H          5.38180        0.19580       -2.27310
H          3.90700        0.58610       -3.16550
H          0.61550       -0.81450        2.62650
H          0.73380        0.95720        2.64000
H          1.97840       -0.02580        3.41350
H         -2.39900        0.94300        1.14830
H         -3.89000        1.12190        0.21860
H         -2.48400        2.11760       -0.16360
H         -3.29010       -3.83650        1.18060
H         -2.60390       -3.39190        2.67440
