33
rmsd236.gzmat
N          0.00000        0.00000        0.00000
C          1.41720        0.00000        0.00000
C          2.09300        0.00000        1.24110
C          3.48470       -0.03710        1.24310
C          4.20700       -0.06390        0.05170
C          3.53500       -0.05960       -1.16950
C          2.13930       -0.03520       -1.19580
C          4.28730       -0.08250       -2.45710
C          1.35160        0.04540        2.53390
C         -0.77430        0.52780       -1.02130
O         -0.31640        0.95590       -2.05530
C         -2.27790        0.49070       -0.74690
H         -2.55620       -0.44040       -0.18950
C         -3.03770        0.55960       -2.05770
S         -2.70840        1.96710        0.27170
C         -2.43620        1.30850        1.94560
O         -1.96220        0.20990        2.15240
N         -2.79830        2.13680        2.96980
H         -0.45680       -0.24970        0.88230
H          4.02090       -0.03990        2.19130
H          5.29260       -0.08620        0.07860
H          1.62060       -0.03850       -2.15580
H          4.08550       -1.00770       -3.01700
H          5.37340       -0.01650       -2.31690
H          3.99200        0.75760       -3.10450
H          0.74330       -0.86020        2.68880
H          0.67190        0.90960        2.58580
H          2.02280        0.12220        3.39990
H         -2.75090        1.43490       -2.66510
H         -4.12630        0.58010       -1.92330
H         -2.80590       -0.31760       -2.68440
H         -3.18210        3.05000        2.84270
H         -2.66710        1.83620        3.92030
