rmsd15.gzmat
 OpenBabel08211713403D

 33 33  0  0  1  0  0  0  0  0999 V2000
    0.0000    0.0000    0.0000 N   0  0  0  0  0  0  0  0  0  0  0  0
    1.4155    0.0000    0.0000 C   0  0  0  0  0  0  0  0  0  0  0  0
    2.0778    0.0000    1.2504 C   0  0  0  0  0  0  0  0  0  0  0  0
    3.4694    0.0055    1.2696 C   0  0  0  0  0  0  0  0  0  0  0  0
    4.2080    0.0170    0.0876 C   0  0  0  0  0  0  0  0  0  0  0  0
    3.5506    0.0266   -1.1410 C   0  0  0  0  0  0  0  0  0  0  0  0
    2.1549    0.0189   -1.1851 C   0  0  0  0  0  0  0  0  0  0  0  0
    4.3165    0.0562   -2.4207 C   0  0  0  0  0  0  0  0  0  0  0  0
    1.3210   -0.0133    2.5353 C   0  0  0  0  0  0  0  0  0  0  0  0
   -0.8025   -0.2403   -1.1029 C   0  0  0  0  0  0  0  0  0  0  0  0
   -0.3799   -0.5358   -2.1967 O   0  0  0  0  0  0  0  0  0  0  0  0
   -2.3013   -0.1426   -0.8106 C   0  0  2  0  0  0  0  0  0  0  0  0
   -2.5356   -0.5728    0.1968 H   0  0  0  0  0  0  0  0  0  0  0  0
   -3.0778   -0.8810   -1.8836 C   0  0  0  0  0  0  0  0  0  0  0  0
   -2.7774    1.6393   -0.8390 S   0  0  0  0  0  0  0  0  0  0  0  0
   -2.4741    2.0866    0.8993 C   0  0  0  0  0  0  0  0  0  0  0  0
   -1.9552    1.3270    1.6925 O   0  0  0  0  0  0  0  0  0  0  0  0
   -2.8715    3.3416    1.2636 N   0  0  0  0  0  0  0  0  0  0  0  0
   -0.4509    0.2799    0.8781 H   0  0  0  0  0  0  0  0  0  0  0  0
    3.9936   -0.0002    2.2247 H   0  0  0  0  0  0  0  0  0  0  0  0
    5.2933    0.0190    0.1292 H   0  0  0  0  0  0  0  0  0  0  0  0
    1.6537    0.0273   -2.1549 H   0  0  0  0  0  0  0  0  0  0  0  0
    3.9833   -0.7393   -3.1045 H   0  0  0  0  0  0  0  0  0  0  0  0
    5.3960   -0.0733   -2.2746 H   0  0  0  0  0  0  0  0  0  0  0  0
    4.1697    1.0133   -2.9439 H   0  0  0  0  0  0  0  0  0  0  0  0
    0.7361   -0.9394    2.6479 H   0  0  0  0  0  0  0  0  0  0  0  0
    0.6190    0.8327    2.6122 H   0  0  0  0  0  0  0  0  0  0  0  0
    1.9799    0.0528    3.4118 H   0  0  0  0  0  0  0  0  0  0  0  0
   -2.8419   -0.5194   -2.8984 H   0  0  0  0  0  0  0  0  0  0  0  0
   -4.1642   -0.8236   -1.7439 H   0  0  0  0  0  0  0  0  0  0  0  0
   -2.8064   -1.9503   -1.8881 H   0  0  0  0  0  0  0  0  0  0  0  0
   -3.2914    3.9994    0.6405 H   0  0  0  0  0  0  0  0  0  0  0  0
   -2.7193    3.6542    2.2071 H   0  0  0  0  0  0  0  0  0  0  0  0
  1 19  1  0  0  0  0
  2  1  1  0  0  0  0
  2  3  2  0  0  0  0
  3  4  1  0  0  0  0
  3  9  1  0  0  0  0
  4 20  1  0  0  0  0
  5 21  1  0  0  0  0
  5  4  2  0  0  0  0
  6  5  1  0  0  0  0
  7  6  2  0  0  0  0
  7  2  1  0  0  0  0
  8 24  1  0  0  0  0
  8  6  1  0  0  0  0
  9 27  1  0  0  0  0
  9 26  1  0  0  0  0
  9 28  1  0  0  0  0
 10 12  1  0  0  0  0
 10  1  1  0  0  0  0
 11 10  2  0  0  0  0
 12 13  1  1  0  0  0
 14 30  1  0  0  0  0
 14 12  1  0  0  0  0
 15 12  1  0  0  0  0
 15 16  1  0  0  0  0
 16 18  1  0  0  0  0
 16 17  2  0  0  0  0
 18 33  1  0  0  0  0
 22  7  1  0  0  0  0
 23  8  1  0  0  0  0
 25  8  1  0  0  0  0
 29 14  1  0  0  0  0
 31 14  1  0  0  0  0
 32 18  1  0  0  0  0
M  END
$$$$
