33
rmsd71.gzmat
N          0.00000        0.00000        0.00000
C          1.41740        0.00000        0.00000
C          2.09230        0.00000        1.24090
C          3.48410       -0.04730        1.24500
C          4.20650       -0.08520        0.05490
C          3.53510       -0.08280       -1.16760
C          2.14060       -0.04410       -1.19570
C          4.30170       -0.10520       -2.44700
C          1.35240        0.05160        2.53350
C         -0.77490        0.52080       -1.02350
O         -0.32240        0.94720       -2.06050
C         -2.28030        0.45410       -0.75780
H         -2.53510       -0.45680       -0.16090
C         -3.02670        0.43240       -2.07860
S         -2.77750        1.96080        0.18390
C         -2.56940        1.36410        1.89210
O         -1.80460        0.47030        2.19190
N         -3.35410        1.97220        2.83140
H         -0.45640       -0.21280        0.89520
H          4.01860       -0.05010        2.19420
H          5.29190       -0.11360        0.08190
H          1.62130       -0.04290       -2.15540
H          3.75090       -0.61070       -3.25310
H          5.26830       -0.61560       -2.34600
H          4.50630        0.92080       -2.79180
H          0.75600       -0.85900        2.69880
H          0.65750        0.90590        2.57510
H          2.02280        0.14900        3.39790
H         -2.75270        1.28040       -2.72920
H         -4.11670        0.43380       -1.95750
H         -2.76660       -0.47160       -2.65310
H         -3.98560        2.72030        2.63160
H         -3.24830        1.72510        3.80060
