33
rmsd51.gzmat
N          0.00000        0.00000        0.00000
C          1.41750        0.00000        0.00000
C          2.08080        0.00000        1.24540
C          3.47220        0.04070        1.25880
C          4.20200        0.08770        0.07460
C          3.54030        0.09700       -1.15350
C          2.14670        0.04930       -1.19080
C          4.31570        0.18810       -2.42530
C          1.32490       -0.04060        2.52920
C         -0.78570       -0.45030       -1.04700
O         -0.33660       -0.95480       -2.04900
C         -2.28620       -0.27580       -0.81060
H         -2.54160       -0.42550        0.26920
C         -3.06420       -1.25710       -1.66550
S         -2.71940        1.44650       -1.31060
C         -2.30760        2.35440        0.21330
O         -1.88850        1.81430        1.21600
N         -2.51880        3.70380        0.15120
H         -0.45180        0.45840        0.79790
H          3.99890        0.03570        2.21220
H          5.28690        0.12230        0.11090
H          1.63030        0.05500       -2.15290
H          3.79650       -0.29450       -3.26580
H          5.30240       -0.28810       -2.34370
H          4.48090        1.24090       -2.70420
H          0.61570       -0.88220        2.55570
H          0.74990        0.88620        2.69060
H          1.98380       -0.16180        3.40020
H         -2.78730       -1.20030       -2.73160
H         -4.15130       -1.12650       -1.58890
H         -2.83900       -2.29260       -1.35990
H         -2.82380        4.18270       -0.67180
H         -2.30410        4.27780        0.94840
