33

N          0.03640       -0.06800       -0.05380
C          1.44680       -0.03800       -0.03190
C          2.08320       -0.00820        1.23480
C          3.47960        0.00870        1.26170
C          4.24260        0.00490        0.09140
C          3.61380       -0.01210       -1.15700
C          2.21300       -0.03310       -1.20600
C          4.40610       -0.00610       -2.44060
C          1.28810        0.02640        2.51490
C         -0.79380        0.05410       -1.13040
O         -0.44270        0.22450       -2.28600
C         -2.29940        0.01420       -0.80270
H         -2.77040        0.17370       -1.78230
C         -2.77780        1.08550        0.17570
S         -2.91110       -1.69080       -0.42960
C         -2.41660       -1.95770        1.28060
O         -1.66870       -1.22730        1.91130
N         -2.96390       -3.08340        1.79840
H         -0.43000       -0.29380        0.82630
H          3.98320        0.03200        2.23200
H          5.33380        0.02060        0.15330
H          1.69700       -0.03970       -2.16310
H          4.16400       -0.88310       -3.06340
H          5.48900       -0.01560       -2.24770
H          4.17710        0.88730       -3.04520
H          0.65570       -0.86620        2.64490
H          0.60720        0.89450        2.54640
H          1.95720        0.09600        3.38390
H         -2.37630        0.93230        1.18460
H         -3.87630        1.08440        0.23460
H         -2.45100        2.07330       -0.18630
H         -3.61270       -3.65730        1.27570
H         -2.70710       -3.34920        2.74210
