
     RDKit          3D

 33 33  0  0  0  0  0  0  0  0999 V2000
    0.0663   -0.0273   -0.1917 N   0  0  0  0  0  0  0  0  0  0  0  0
    1.4728    0.0239   -0.1257 C   0  0  0  0  0  0  0  0  0  0  0  0
    2.0597    0.2805    1.1392 C   0  0  0  0  0  0  0  0  0  0  0  0
    3.4530    0.3445    1.2093 C   0  0  0  0  0  0  0  0  0  0  0  0
    4.2595    0.1579    0.0839 C   0  0  0  0  0  0  0  0  0  0  0  0
    3.6796   -0.1052   -1.1608 C   0  0  0  0  0  0  0  0  0  0  0  0
    2.2823   -0.1706   -1.2537 C   0  0  0  0  0  0  0  0  0  0  0  0
    4.5209   -0.3196   -2.3943 C   0  0  0  0  0  0  0  0  0  0  0  0
    1.2145    0.4622    2.3742 C   0  0  0  0  0  0  0  0  0  0  0  0
   -0.7283   -0.3215   -1.2647 C   0  0  0  0  0  0  0  0  0  0  0  0
   -0.3399   -0.6533   -2.3710 O   0  0  0  0  0  0  0  0  0  0  0  0
   -2.2323   -0.2020   -0.9582 C   0  0  2  0  0  0  0  0  0  0  0  0
   -2.4295   -0.4798    0.0865 H   0  0  0  0  0  0  0  0  0  0  0  0
   -3.0655   -1.0290   -1.9265 C   0  0  0  0  0  0  0  0  0  0  0  0
   -2.7485    1.5713   -1.0806 S   0  0  0  0  0  0  0  0  0  0  0  0
   -2.4057    2.0980    0.6093 C   0  0  0  0  0  0  0  0  0  0  0  0
   -1.8810    1.3826    1.4474 O   0  0  0  0  0  0  0  0  0  0  0  0
   -2.7890    3.3743    0.8470 N   0  0  0  0  0  0  0  0  0  0  0  0
   -0.4397    0.2823    0.6374 H   0  0  0  0  0  0  0  0  0  0  0  0
    3.9192    0.5423    2.1785 H   0  0  0  0  0  0  0  0  0  0  0  0
    5.3469    0.2138    0.1787 H   0  0  0  0  0  0  0  0  0  0  0  0
    1.8034   -0.3785   -2.2077 H   0  0  0  0  0  0  0  0  0  0  0  0
    4.3508   -1.3213   -2.8227 H   0  0  0  0  0  0  0  0  0  0  0  0
    5.5942   -0.2234   -2.1737 H   0  0  0  0  0  0  0  0  0  0  0  0
    4.2688    0.4106   -3.1810 H   0  0  0  0  0  0  0  0  0  0  0  0
    0.6013   -0.4318    2.5833 H   0  0  0  0  0  0  0  0  0  0  0  0
    0.5101    1.3054    2.2863 H   0  0  0  0  0  0  0  0  0  0  0  0
    1.8475    0.6431    3.2541 H   0  0  0  0  0  0  0  0  0  0  0  0
   -2.8520   -0.7413   -2.9650 H   0  0  0  0  0  0  0  0  0  0  0  0
   -4.1387   -0.9084   -1.7221 H   0  0  0  0  0  0  0  0  0  0  0  0
   -2.7992   -2.0917   -1.8223 H   0  0  0  0  0  0  0  0  0  0  0  0
   -3.2464    3.9389    0.1432 H   0  0  0  0  0  0  0  0  0  0  0  0
   -2.6154    3.7639    1.7663 H   0  0  0  0  0  0  0  0  0  0  0  0
  1  2  1  0
  1 10  1  0
  1 19  1  0
  2  3  2  0
  2  7  1  0
  3  4  1  0
  3  9  1  0
  4  5  2  0
  4 20  1  0
  5  6  1  0
  5 21  1  0
  6  7  2  0
  6  8  1  0
  7 22  1  0
  8 23  1  0
  8 24  1  0
  8 25  1  0
  9 26  1  0
  9 27  1  0
  9 28  1  0
 10 11  2  0
 10 12  1  0
 12 13  1  1
 12 14  1  0
 12 15  1  0
 14 29  1  0
 14 30  1  0
 14 31  1  0
 15 16  1  0
 16 17  2  0
 16 18  1  0
 18 32  1  0
 18 33  1  0
M  END

