33
rmsd158.gzmat
N          0.00000        0.00000        0.00000
C          1.41510        0.00000        0.00000
C          2.07560        0.00000        1.25170
C          3.46700        0.01260        1.27380
C          4.20790        0.02020        0.09370
C          3.55290        0.02010       -1.13620
C          2.15740        0.01240       -1.18320
C          4.32580        0.02460       -2.41190
C          1.32010       -0.02660        2.53720
C         -0.80700       -0.16160       -1.11430
O         -0.39160       -0.38210       -2.22800
C         -2.30450       -0.08160       -0.80970
H         -2.53530       -0.57020        0.17150
C         -3.08540       -0.75490       -1.92150
S         -2.77840        1.69900       -0.73300
C         -2.46700        2.04310        1.02650
O         -1.95270        1.23440        1.77230
N         -2.85110        3.27850        1.46410
H         -0.45000        0.22930        0.89370
H          3.98940        0.01500        2.23000
H          5.29280        0.02490        0.13690
H          1.65940        0.01520       -2.15470
H          4.23130       -0.94260       -2.92960
H          5.39640        0.20920       -2.25850
H          3.95810        0.79670       -3.10370
H          0.74230       -0.95800        2.64300
H          0.61450        0.81490        2.62550
H          1.98040        0.03570        3.41280
H         -2.86480       -0.32340       -2.91210
H         -4.17060       -0.71870       -1.76740
H         -2.80370       -1.81850       -1.99940
H         -3.26250        3.97660        0.88030
H         -2.68940        3.53640        2.42270
