rmsd89.gzmat
 OpenBabel08211713383D

 36 38  0  0  0  0  0  0  0  0999 V2000
    0.0000    0.0000    0.0000 S   0  0  0  0  0  0  0  0  0  0  0  0
    1.7860    0.0000    0.0000 N   0  0  0  0  0  0  0  0  0  0  0  0
    2.3149    0.0000    1.2700 C   0  0  0  0  0  0  0  0  0  0  0  0
    3.9249   -0.0800    1.6627 S   0  0  0  0  0  0  0  0  0  0  0  0
    1.3196    0.1520    2.2407 N   0  0  0  0  0  0  0  0  0  0  0  0
   -0.0231    0.1709    1.8120 C   0  0  0  0  0  0  0  0  0  0  0  0
   -0.9916    0.2747    2.6315 N   0  0  0  0  0  0  0  0  0  0  0  0
   -2.3572    0.3013    2.3037 C   0  0  0  0  0  0  0  0  0  0  0  0
   -3.1444   -0.8088    2.6428 C   0  0  0  0  0  0  0  0  0  0  0  0
   -4.5159   -0.7607    2.4173 C   0  0  0  0  0  0  0  0  0  0  0  0
   -5.1010    0.3797    1.8669 C   0  0  0  0  0  0  0  0  0  0  0  0
   -4.3133    1.4841    1.5454 C   0  0  0  0  0  0  0  0  0  0  0  0
   -2.9382    1.4545    1.7572 C   0  0  0  0  0  0  0  0  0  0  0  0
    1.6497    0.3685    3.6265 C   0  0  0  0  0  0  0  0  0  0  0  0
    1.9316    1.6640    4.0669 C   0  0  0  0  0  0  0  0  0  0  0  0
    2.2352    1.8583    5.4121 C   0  0  0  0  0  0  0  0  0  0  0  0
    2.2525    0.7765    6.2917 C   0  0  0  0  0  0  0  0  0  0  0  0
    1.9676   -0.5095    5.8345 C   0  0  0  0  0  0  0  0  0  0  0  0
    1.6611   -0.7259    4.4933 C   0  0  0  0  0  0  0  0  0  0  0  0
    2.4810   -0.5607   -1.1620 C   0  0  0  0  0  0  0  0  0  0  0  0
    2.4606   -2.0884   -1.1919 C   0  0  0  0  0  0  0  0  0  0  0  0
   -2.6801   -1.6880    3.0859 H   0  0  0  0  0  0  0  0  0  0  0  0
   -5.1359   -1.6184    2.6743 H   0  0  0  0  0  0  0  0  0  0  0  0
   -6.1738    0.4087    1.6920 H   0  0  0  0  0  0  0  0  0  0  0  0
   -4.7757    2.3769    1.1264 H   0  0  0  0  0  0  0  0  0  0  0  0
   -2.3227    2.3190    1.5187 H   0  0  0  0  0  0  0  0  0  0  0  0
    1.9159    2.5013    3.3721 H   0  0  0  0  0  0  0  0  0  0  0  0
    2.4583    2.8603    5.7747 H   0  0  0  0  0  0  0  0  0  0  0  0
    2.4892    0.9371    7.3416 H   0  0  0  0  0  0  0  0  0  0  0  0
    1.9843   -1.3504    6.5255 H   0  0  0  0  0  0  0  0  0  0  0  0
    1.4366   -1.7249    4.1257 H   0  0  0  0  0  0  0  0  0  0  0  0
    3.5387   -0.1863   -1.1525 H   0  0  0  0  0  0  0  0  0  0  0  0
    2.0198   -0.1373   -2.0860 H   0  0  0  0  0  0  0  0  0  0  0  0
    2.9189   -2.5190   -0.2900 H   0  0  0  0  0  0  0  0  0  0  0  0
    3.0324   -2.4663   -2.0488 H   0  0  0  0  0  0  0  0  0  0  0  0
    1.4466   -2.4957   -1.2706 H   0  0  0  0  0  0  0  0  0  0  0  0
  1  2  1  0  0  0  0
  1  6  1  0  0  0  0
  2  3  1  0  0  0  0
  3  4  2  0  0  0  0
  3  5  1  0  0  0  0
  5 14  1  0  0  0  0
  6  5  1  0  0  0  0
  6  7  2  0  0  0  0
  8  7  1  0  0  0  0
  8  9  2  0  0  0  0
  9 22  1  0  0  0  0
 10  9  1  0  0  0  0
 10 23  1  0  0  0  0
 11 10  2  0  0  0  0
 12 13  2  0  0  0  0
 12 11  1  0  0  0  0
 13  8  1  0  0  0  0
 14 15  2  0  0  0  0
 14 19  1  0  0  0  0
 15 16  1  0  0  0  0
 16 28  1  0  0  0  0
 16 17  2  0  0  0  0
 17 29  1  0  0  0  0
 18 17  1  0  0  0  0
 18 30  1  0  0  0  0
 19 18  2  0  0  0  0
 20 32  1  0  0  0  0
 20  2  1  0  0  0  0
 21 20  1  0  0  0  0
 21 34  1  0  0  0  0
 24 11  1  0  0  0  0
 25 12  1  0  0  0  0
 26 13  1  0  0  0  0
 27 15  1  0  0  0  0
 31 19  1  0  0  0  0
 33 20  1  0  0  0  0
 35 21  1  0  0  0  0
 36 21  1  0  0  0  0
M  END
$$$$
