rmsd33.gzmat
 OpenBabel08211713383D

 36 38  0  0  0  0  0  0  0  0999 V2000
    0.0000    0.0000    0.0000 S   0  0  0  0  0  0  0  0  0  0  0  0
    1.7852    0.0000    0.0000 N   0  0  0  0  0  0  0  0  0  0  0  0
    2.3155    0.0000    1.2690 C   0  0  0  0  0  0  0  0  0  0  0  0
    3.9274    0.0764    1.6570 S   0  0  0  0  0  0  0  0  0  0  0  0
    1.3207   -0.1532    2.2403 N   0  0  0  0  0  0  0  0  0  0  0  0
   -0.0209   -0.2021    1.8098 C   0  0  0  0  0  0  0  0  0  0  0  0
   -0.9843   -0.3436    2.6306 N   0  0  0  0  0  0  0  0  0  0  0  0
   -2.3498   -0.4210    2.3146 C   0  0  0  0  0  0  0  0  0  0  0  0
   -2.8660   -1.4844    1.5608 C   0  0  0  0  0  0  0  0  0  0  0  0
   -4.2411   -1.5710    1.3633 C   0  0  0  0  0  0  0  0  0  0  0  0
   -5.0943   -0.6132    1.9085 C   0  0  0  0  0  0  0  0  0  0  0  0
   -4.5743    0.4365    2.6663 C   0  0  0  0  0  0  0  0  0  0  0  0
   -3.2038    0.5400    2.8772 C   0  0  0  0  0  0  0  0  0  0  0  0
    1.6542   -0.3527    3.6279 C   0  0  0  0  0  0  0  0  0  0  0  0
    1.8923    0.7649    4.4317 C   0  0  0  0  0  0  0  0  0  0  0  0
    2.2100    0.5648    5.7728 C   0  0  0  0  0  0  0  0  0  0  0  0
    2.2801   -0.7270    6.2931 C   0  0  0  0  0  0  0  0  0  0  0  0
    2.0322   -1.8310    5.4783 C   0  0  0  0  0  0  0  0  0  0  0  0
    1.7169   -1.6539    4.1336 C   0  0  0  0  0  0  0  0  0  0  0  0
    2.4849    0.5458   -1.1662 C   0  0  0  0  0  0  0  0  0  0  0  0
    2.4746    2.0735   -1.2065 C   0  0  0  0  0  0  0  0  0  0  0  0
   -2.2031   -2.2442    1.1534 H   0  0  0  0  0  0  0  0  0  0  0  0
   -4.6515   -2.3946    0.7812 H   0  0  0  0  0  0  0  0  0  0  0  0
   -6.1674   -0.6873    1.7493 H   0  0  0  0  0  0  0  0  0  0  0  0
   -5.2461    1.1766    3.0995 H   0  0  0  0  0  0  0  0  0  0  0  0
   -2.7870    1.3471    3.4788 H   0  0  0  0  0  0  0  0  0  0  0  0
    1.8351    1.7687    4.0156 H   0  0  0  0  0  0  0  0  0  0  0  0
    2.4058    1.4224    6.4139 H   0  0  0  0  0  0  0  0  0  0  0  0
    2.5303   -0.8746    7.3418 H   0  0  0  0  0  0  0  0  0  0  0  0
    2.0833   -2.8366    5.8923 H   0  0  0  0  0  0  0  0  0  0  0  0
    1.5236   -2.5088    3.4891 H   0  0  0  0  0  0  0  0  0  0  0  0
    2.0221    0.1192   -2.0878 H   0  0  0  0  0  0  0  0  0  0  0  0
    3.5400    0.1643   -1.1523 H   0  0  0  0  0  0  0  0  0  0  0  0
    1.4675    2.4853   -1.3359 H   0  0  0  0  0  0  0  0  0  0  0  0
    3.0899    2.4423   -2.0367 H   0  0  0  0  0  0  0  0  0  0  0  0
    2.8923    2.5078   -0.2865 H   0  0  0  0  0  0  0  0  0  0  0  0
  1  2  1  0  0  0  0
  1  6  1  0  0  0  0
  2  3  1  0  0  0  0
  3  4  2  0  0  0  0
  3  5  1  0  0  0  0
  5 14  1  0  0  0  0
  6  5  1  0  0  0  0
  6  7  2  0  0  0  0
  8  7  1  0  0  0  0
  8 13  2  0  0  0  0
  9  8  1  0  0  0  0
 10  9  2  0  0  0  0
 10 11  1  0  0  0  0
 11 12  2  0  0  0  0
 12 13  1  0  0  0  0
 12 25  1  0  0  0  0
 13 26  1  0  0  0  0
 14 19  2  0  0  0  0
 14 15  1  0  0  0  0
 15 16  2  0  0  0  0
 16 17  1  0  0  0  0
 16 28  1  0  0  0  0
 17 29  1  0  0  0  0
 18 30  1  0  0  0  0
 18 17  2  0  0  0  0
 19 18  1  0  0  0  0
 20 33  1  0  0  0  0
 20  2  1  0  0  0  0
 21 20  1  0  0  0  0
 21 36  1  0  0  0  0
 22  9  1  0  0  0  0
 23 10  1  0  0  0  0
 24 11  1  0  0  0  0
 27 15  1  0  0  0  0
 31 19  1  0  0  0  0
 32 20  1  0  0  0  0
 34 21  1  0  0  0  0
 35 21  1  0  0  0  0
M  END
$$$$
