
     RDKit          3D

 36 38  0  0  0  0  0  0  0  0999 V2000
   -0.1071   -0.0350    0.1907 S   0  0  0  0  0  0  0  0  0  0  0  0
    1.6228   -0.2244    0.1446 N   0  0  0  0  0  0  0  0  0  0  0  0
    2.2566   -0.1357    1.3421 C   0  0  0  0  0  0  0  0  0  0  0  0
    3.8908   -0.3156    1.5719 S   0  0  0  0  0  0  0  0  0  0  0  0
    1.3227    0.1333    2.3458 N   0  0  0  0  0  0  0  0  0  0  0  0
   -0.0183    0.1715    1.9734 C   0  0  0  0  0  0  0  0  0  0  0  0
   -0.9802    0.2967    2.7871 N   0  0  0  0  0  0  0  0  0  0  0  0
   -2.3129    0.3635    2.3755 C   0  0  0  0  0  0  0  0  0  0  0  0
   -3.2611   -0.4457    3.0288 C   0  0  0  0  0  0  0  0  0  0  0  0
   -4.6005   -0.4098    2.6475 C   0  0  0  0  0  0  0  0  0  0  0  0
   -5.0257    0.4454    1.6236 C   0  0  0  0  0  0  0  0  0  0  0  0
   -4.0952    1.2705    0.9885 C   0  0  0  0  0  0  0  0  0  0  0  0
   -2.7483    1.2359    1.3585 C   0  0  0  0  0  0  0  0  0  0  0  0
    1.6880    0.3041    3.7223 C   0  0  0  0  0  0  0  0  0  0  0  0
    1.5341    1.5557    4.3198 C   0  0  0  0  0  0  0  0  0  0  0  0
    1.8749    1.7220    5.6629 C   0  0  0  0  0  0  0  0  0  0  0  0
    2.3700    0.6417    6.3988 C   0  0  0  0  0  0  0  0  0  0  0  0
    2.5208   -0.6083    5.7913 C   0  0  0  0  0  0  0  0  0  0  0  0
    2.1762   -0.7822    4.4503 C   0  0  0  0  0  0  0  0  0  0  0  0
    2.2626   -0.5993   -1.1119 C   0  0  0  0  0  0  0  0  0  0  0  0
    2.3179   -2.1090   -1.3171 C   0  0  0  0  0  0  0  0  0  0  0  0
   -2.9173   -1.1009    3.8311 H   0  0  0  0  0  0  0  0  0  0  0  0
   -5.3229   -1.0523    3.1571 H   0  0  0  0  0  0  0  0  0  0  0  0
   -6.0778    0.4748    1.3318 H   0  0  0  0  0  0  0  0  0  0  0  0
   -4.4183    1.9568    0.2017 H   0  0  0  0  0  0  0  0  0  0  0  0
   -2.0338    1.9085    0.8795 H   0  0  0  0  0  0  0  0  0  0  0  0
    1.1450    2.3885    3.7324 H   0  0  0  0  0  0  0  0  0  0  0  0
    1.7548    2.6995    6.1350 H   0  0  0  0  0  0  0  0  0  0  0  0
    2.6391    0.7742    7.4493 H   0  0  0  0  0  0  0  0  0  0  0  0
    2.9086   -1.4538    6.3637 H   0  0  0  0  0  0  0  0  0  0  0  0
    2.2945   -1.7489    3.9603 H   0  0  0  0  0  0  0  0  0  0  0  0
    3.2756   -0.1738   -1.0789 H   0  0  0  0  0  0  0  0  0  0  0  0
    1.7079   -0.1004   -1.9229 H   0  0  0  0  0  0  0  0  0  0  0  0
    2.9129   -2.5737   -0.5172 H   0  0  0  0  0  0  0  0  0  0  0  0
    2.7911   -2.3441   -2.2831 H   0  0  0  0  0  0  0  0  0  0  0  0
    1.3085   -2.5494   -1.3105 H   0  0  0  0  0  0  0  0  0  0  0  0
  1  2  1  0
  1  6  1  0
  2  3  1  0
  2 20  1  0
  3  4  2  0
  3  5  1  0
  5  6  1  0
  5 14  1  0
  6  7  2  0
  7  8  1  0
  8  9  2  0
  8 13  1  0
  9 10  1  0
  9 22  1  0
 10 11  2  0
 10 23  1  0
 11 12  1  0
 11 24  1  0
 12 13  2  0
 12 25  1  0
 13 26  1  0
 14 15  2  0
 14 19  1  0
 15 16  1  0
 15 27  1  0
 16 17  2  0
 16 28  1  0
 17 18  1  0
 17 29  1  0
 18 19  2  0
 18 30  1  0
 19 31  1  0
 20 21  1  0
 20 32  1  0
 20 33  1  0
 21 34  1  0
 21 35  1  0
 21 36  1  0
M  END

