rmsd24.gzmat
 OpenBabel08211713383D

 36 38  0  0  0  0  0  0  0  0999 V2000
    0.0000    0.0000    0.0000 S   0  0  0  0  0  0  0  0  0  0  0  0
    1.7858    0.0000    0.0000 N   0  0  0  0  0  0  0  0  0  0  0  0
    2.3134    0.0000    1.2713 C   0  0  0  0  0  0  0  0  0  0  0  0
    3.9244    0.0760    1.6620 S   0  0  0  0  0  0  0  0  0  0  0  0
    1.3177   -0.1549    2.2409 N   0  0  0  0  0  0  0  0  0  0  0  0
   -0.0241   -0.1943    1.8105 C   0  0  0  0  0  0  0  0  0  0  0  0
   -0.9861   -0.3271    2.6345 N   0  0  0  0  0  0  0  0  0  0  0  0
   -2.3534   -0.3980    2.3283 C   0  0  0  0  0  0  0  0  0  0  0  0
   -2.8772   -1.4008    1.5007 C   0  0  0  0  0  0  0  0  0  0  0  0
   -4.2546   -1.4755    1.3142 C   0  0  0  0  0  0  0  0  0  0  0  0
   -5.1029   -0.5699    1.9484 C   0  0  0  0  0  0  0  0  0  0  0  0
   -4.5758    0.4168    2.7822 C   0  0  0  0  0  0  0  0  0  0  0  0
   -3.2031    0.5110    2.9786 C   0  0  0  0  0  0  0  0  0  0  0  0
    1.6473   -0.3011    3.6357 C   0  0  0  0  0  0  0  0  0  0  0  0
    1.5340    0.8124    4.4720 C   0  0  0  0  0  0  0  0  0  0  0  0
    1.8601    0.6698    5.8185 C   0  0  0  0  0  0  0  0  0  0  0  0
    2.2857   -0.5632    6.3114 C   0  0  0  0  0  0  0  0  0  0  0  0
    2.3833   -1.6661    5.4638 C   0  0  0  0  0  0  0  0  0  0  0  0
    2.0611   -1.5458    4.1143 C   0  0  0  0  0  0  0  0  0  0  0  0
    2.4833    0.5734   -1.1550 C   0  0  0  0  0  0  0  0  0  0  0  0
    2.5083    2.1012   -1.1400 C   0  0  0  0  0  0  0  0  0  0  0  0
   -2.2207   -2.1285    1.0296 H   0  0  0  0  0  0  0  0  0  0  0  0
   -4.6701   -2.2490    0.6698 H   0  0  0  0  0  0  0  0  0  0  0  0
   -6.1777   -0.6351    1.7978 H   0  0  0  0  0  0  0  0  0  0  0  0
   -5.2425    1.1150    3.2863 H   0  0  0  0  0  0  0  0  0  0  0  0
   -2.7808    1.2705    3.6352 H   0  0  0  0  0  0  0  0  0  0  0  0
    1.1967    1.7682    4.0770 H   0  0  0  0  0  0  0  0  0  0  0  0
    1.7825    1.5267    6.4850 H   0  0  0  0  0  0  0  0  0  0  0  0
    2.5424   -0.6659    7.3641 H   0  0  0  0  0  0  0  0  0  0  0  0
    2.7146   -2.6267    5.8543 H   0  0  0  0  0  0  0  0  0  0  0  0
    2.1358   -2.4003    3.4442 H   0  0  0  0  0  0  0  0  0  0  0  0
    2.0020    0.1907   -2.0860 H   0  0  0  0  0  0  0  0  0  0  0  0
    3.5295    0.1674   -1.1669 H   0  0  0  0  0  0  0  0  0  0  0  0
    1.5055    2.5396   -1.1851 H   0  0  0  0  0  0  0  0  0  0  0  0
    3.0760    2.4879   -1.9956 H   0  0  0  0  0  0  0  0  0  0  0  0
    2.9973    2.4913   -0.2351 H   0  0  0  0  0  0  0  0  0  0  0  0
  1  2  1  0  0  0  0
  1  6  1  0  0  0  0
  2  3  1  0  0  0  0
  3  4  2  0  0  0  0
  3  5  1  0  0  0  0
  5 14  1  0  0  0  0
  6  5  1  0  0  0  0
  6  7  2  0  0  0  0
  8  7  1  0  0  0  0
  8 13  2  0  0  0  0
  9  8  1  0  0  0  0
 10  9  2  0  0  0  0
 10 11  1  0  0  0  0
 11 12  2  0  0  0  0
 12 13  1  0  0  0  0
 12 25  1  0  0  0  0
 13 26  1  0  0  0  0
 14 19  2  0  0  0  0
 14 15  1  0  0  0  0
 15 16  2  0  0  0  0
 16 17  1  0  0  0  0
 16 28  1  0  0  0  0
 17 29  1  0  0  0  0
 18 30  1  0  0  0  0
 18 17  2  0  0  0  0
 19 18  1  0  0  0  0
 20 21  1  0  0  0  0
 20  2  1  0  0  0  0
 21 36  1  0  0  0  0
 22  9  1  0  0  0  0
 23 10  1  0  0  0  0
 24 11  1  0  0  0  0
 27 15  1  0  0  0  0
 31 19  1  0  0  0  0
 32 20  1  0  0  0  0
 33 20  1  0  0  0  0
 34 21  1  0  0  0  0
 35 21  1  0  0  0  0
M  END
$$$$
