36
rmsd32.gzmat
S          0.00000        0.00000        0.00000
N          1.78550        0.00000        0.00000
C          2.31480        0.00000        1.26900
S          3.92530        0.08170        1.66040
N          1.32000       -0.15250        2.24160
C         -0.02200       -0.17510        1.81300
N         -0.99490       -0.27930        2.62820
C         -2.35630       -0.31430        2.28070
C         -2.91090       -1.44740        1.66900
C         -4.28080       -1.48540        1.42730
C         -5.09060       -0.40940        1.78640
C         -4.53300        0.70940        2.40530
C         -3.16640        0.76700        2.65740
C          1.66140       -0.41060        3.61780
C          1.77110        0.66660        4.49980
C          2.10950        0.40890        5.82620
C          2.32950       -0.89970        6.25410
C          2.21080       -1.96390        5.36070
C          1.87220       -1.72880        4.03070
C          2.48110        0.55060       -1.16630
C          2.42480        2.07650       -1.22950
H         -2.27940       -2.29210        1.40350
H         -4.72080       -2.36360        0.95640
H         -6.15940       -0.44310        1.58760
H         -5.17130        1.54280        2.69530
H         -2.72330        1.63170        3.14830
H          1.59880        1.68420        4.15520
H          2.20520        1.23510        6.52860
H          2.59690       -1.09160        7.29140
H          2.38500       -2.98340        5.70070
H          1.77810       -2.55200        3.32550
H          2.04060        0.09590       -2.08530
H          3.54770        0.20270       -1.13810
H          1.40520        2.45660       -1.35710
H          3.02170        2.45200       -2.07030
H          2.83630        2.53490       -0.31900
