rmsd3.gzmat
 OpenBabel08211713383D

 36 38  0  0  0  0  0  0  0  0999 V2000
    0.0000    0.0000    0.0000 S   0  0  0  0  0  0  0  0  0  0  0  0
    1.7861    0.0000    0.0000 N   0  0  0  0  0  0  0  0  0  0  0  0
    2.3151    0.0000    1.2695 C   0  0  0  0  0  0  0  0  0  0  0  0
    3.9258   -0.0792    1.6603 S   0  0  0  0  0  0  0  0  0  0  0  0
    1.3192    0.1427    2.2403 N   0  0  0  0  0  0  0  0  0  0  0  0
   -0.0250    0.1695    1.8120 C   0  0  0  0  0  0  0  0  0  0  0  0
   -0.9795    0.3093    2.6420 N   0  0  0  0  0  0  0  0  0  0  0  0
   -2.3558    0.3007    2.3767 C   0  0  0  0  0  0  0  0  0  0  0  0
   -2.9956   -0.8293    1.8485 C   0  0  0  0  0  0  0  0  0  0  0  0
   -4.3820   -0.8269    1.7232 C   0  0  0  0  0  0  0  0  0  0  0  0
   -5.1242    0.2855    2.1155 C   0  0  0  0  0  0  0  0  0  0  0  0
   -4.4809    1.4050    2.6440 C   0  0  0  0  0  0  0  0  0  0  0  0
   -3.0976    1.4223    2.7793 C   0  0  0  0  0  0  0  0  0  0  0  0
    1.6479    0.3739    3.6239 C   0  0  0  0  0  0  0  0  0  0  0  0
    1.9925    1.6632    4.0377 C   0  0  0  0  0  0  0  0  0  0  0  0
    2.3007    1.8715    5.3795 C   0  0  0  0  0  0  0  0  0  0  0  0
    2.2567    0.8107    6.2836 C   0  0  0  0  0  0  0  0  0  0  0  0
    1.9002   -0.4672    5.8549 C   0  0  0  0  0  0  0  0  0  0  0  0
    1.5925   -0.6987    4.5163 C   0  0  0  0  0  0  0  0  0  0  0  0
    2.4872   -0.5531   -1.1621 C   0  0  0  0  0  0  0  0  0  0  0  0
    2.4373   -2.0793   -1.2192 C   0  0  0  0  0  0  0  0  0  0  0  0
   -2.4201   -1.7057    1.5621 H   0  0  0  0  0  0  0  0  0  0  0  0
   -4.8884   -1.7022    1.3192 H   0  0  0  0  0  0  0  0  0  0  0  0
   -6.2069    0.2795    2.0142 H   0  0  0  0  0  0  0  0  0  0  0  0
   -5.0660    2.2689    2.9573 H   0  0  0  0  0  0  0  0  0  0  0  0
   -2.5856    2.2854    3.2026 H   0  0  0  0  0  0  0  0  0  0  0  0
    2.0222    2.4841    3.3240 H   0  0  0  0  0  0  0  0  0  0  0  0
    2.5766    2.8674    5.7213 H   0  0  0  0  0  0  0  0  0  0  0  0
    2.5011    0.9819    7.3300 H   0  0  0  0  0  0  0  0  0  0  0  0
    1.8605   -1.2908    6.5654 H   0  0  0  0  0  0  0  0  0  0  0  0
    1.3137   -1.6919    4.1712 H   0  0  0  0  0  0  0  0  0  0  0  0
    3.5528   -0.2011   -1.1301 H   0  0  0  0  0  0  0  0  0  0  0  0
    2.0493   -0.1025   -2.0843 H   0  0  0  0  0  0  0  0  0  0  0  0
    2.8313   -2.5337   -0.2992 H   0  0  0  0  0  0  0  0  0  0  0  0
    3.0522   -2.4566   -2.0458 H   0  0  0  0  0  0  0  0  0  0  0  0
    1.4225   -2.4635   -1.3659 H   0  0  0  0  0  0  0  0  0  0  0  0
  1  2  1  0  0  0  0
  1  6  1  0  0  0  0
  2  3  1  0  0  0  0
  3  4  2  0  0  0  0
  3  5  1  0  0  0  0
  5 14  1  0  0  0  0
  6  5  1  0  0  0  0
  6  7  2  0  0  0  0
  8  7  1  0  0  0  0
  8 13  2  0  0  0  0
  9  8  1  0  0  0  0
 10  9  2  0  0  0  0
 10 11  1  0  0  0  0
 11 12  2  0  0  0  0
 12 13  1  0  0  0  0
 12 25  1  0  0  0  0
 13 26  1  0  0  0  0
 14 15  2  0  0  0  0
 14 19  1  0  0  0  0
 15 16  1  0  0  0  0
 16 28  1  0  0  0  0
 16 17  2  0  0  0  0
 17 29  1  0  0  0  0
 18 17  1  0  0  0  0
 18 30  1  0  0  0  0
 19 18  2  0  0  0  0
 20 32  1  0  0  0  0
 20  2  1  0  0  0  0
 21 20  1  0  0  0  0
 21 34  1  0  0  0  0
 22  9  1  0  0  0  0
 23 10  1  0  0  0  0
 24 11  1  0  0  0  0
 27 15  1  0  0  0  0
 31 19  1  0  0  0  0
 33 20  1  0  0  0  0
 35 21  1  0  0  0  0
 36 21  1  0  0  0  0
M  END
$$$$
