rmsd27.gzmat
 OpenBabel08211713383D

 36 38  0  0  0  0  0  0  0  0999 V2000
    0.0000    0.0000    0.0000 S   0  0  0  0  0  0  0  0  0  0  0  0
    1.7855    0.0000    0.0000 N   0  0  0  0  0  0  0  0  0  0  0  0
    2.3146    0.0000    1.2703 C   0  0  0  0  0  0  0  0  0  0  0  0
    3.9245    0.1045    1.6590 S   0  0  0  0  0  0  0  0  0  0  0  0
    1.3206   -0.1728    2.2387 N   0  0  0  0  0  0  0  0  0  0  0  0
   -0.0227   -0.2047    1.8080 C   0  0  0  0  0  0  0  0  0  0  0  0
   -0.9834   -0.3345    2.6340 N   0  0  0  0  0  0  0  0  0  0  0  0
   -2.3533   -0.3830    2.3372 C   0  0  0  0  0  0  0  0  0  0  0  0
   -2.8993   -1.3552    1.4878 C   0  0  0  0  0  0  0  0  0  0  0  0
   -4.2789   -1.3986    1.3049 C   0  0  0  0  0  0  0  0  0  0  0  0
   -5.1070   -0.4885    1.9590 C   0  0  0  0  0  0  0  0  0  0  0  0
   -4.5583    0.4633    2.8196 C   0  0  0  0  0  0  0  0  0  0  0  0
   -3.1838    0.5223    3.0176 C   0  0  0  0  0  0  0  0  0  0  0  0
    1.6412   -0.3832    3.6275 C   0  0  0  0  0  0  0  0  0  0  0  0
    1.4472    0.6679    4.5276 C   0  0  0  0  0  0  0  0  0  0  0  0
    1.7231    0.4510    5.8753 C   0  0  0  0  0  0  0  0  0  0  0  0
    2.1862   -0.7915    6.3062 C   0  0  0  0  0  0  0  0  0  0  0  0
    2.3814   -1.8273    5.3932 C   0  0  0  0  0  0  0  0  0  0  0  0
    2.1087   -1.6328    4.0416 C   0  0  0  0  0  0  0  0  0  0  0  0
    2.4768    0.5662   -1.1619 C   0  0  0  0  0  0  0  0  0  0  0  0
    2.4836    2.0941   -1.1655 C   0  0  0  0  0  0  0  0  0  0  0  0
   -2.2593   -2.0825    0.9941 H   0  0  0  0  0  0  0  0  0  0  0  0
   -4.7121   -2.1512    0.6476 H   0  0  0  0  0  0  0  0  0  0  0  0
   -6.1827   -0.5227    1.8028 H   0  0  0  0  0  0  0  0  0  0  0  0
   -5.2099    1.1626    3.3418 H   0  0  0  0  0  0  0  0  0  0  0  0
   -2.7444    1.2523    3.6963 H   0  0  0  0  0  0  0  0  0  0  0  0
    1.0818    1.6322    4.1809 H   0  0  0  0  0  0  0  0  0  0  0  0
    1.5734    1.2561    6.5925 H   0  0  0  0  0  0  0  0  0  0  0  0
    2.3952   -0.9545    7.3617 H   0  0  0  0  0  0  0  0  0  0  0  0
    2.7458   -2.7946    5.7353 H   0  0  0  0  0  0  0  0  0  0  0  0
    2.2597   -2.4358    3.3224 H   0  0  0  0  0  0  0  0  0  0  0  0
    1.9973    0.1662   -2.0870 H   0  0  0  0  0  0  0  0  0  0  0  0
    3.5269    0.1714   -1.1716 H   0  0  0  0  0  0  0  0  0  0  0  0
    1.4797    2.5194   -1.2731 H   0  0  0  0  0  0  0  0  0  0  0  0
    3.0939    2.4774   -1.9928 H   0  0  0  0  0  0  0  0  0  0  0  0
    2.9167    2.5008   -0.2396 H   0  0  0  0  0  0  0  0  0  0  0  0
  1  2  1  0  0  0  0
  1  6  1  0  0  0  0
  2  3  1  0  0  0  0
  3  4  2  0  0  0  0
  3  5  1  0  0  0  0
  5 14  1  0  0  0  0
  6  5  1  0  0  0  0
  6  7  2  0  0  0  0
  8  7  1  0  0  0  0
  8 13  2  0  0  0  0
  9  8  1  0  0  0  0
 10  9  2  0  0  0  0
 10 11  1  0  0  0  0
 11 12  2  0  0  0  0
 12 13  1  0  0  0  0
 12 25  1  0  0  0  0
 13 26  1  0  0  0  0
 14 19  2  0  0  0  0
 14 15  1  0  0  0  0
 15 16  2  0  0  0  0
 16 17  1  0  0  0  0
 16 28  1  0  0  0  0
 17 29  1  0  0  0  0
 18 30  1  0  0  0  0
 18 17  2  0  0  0  0
 19 18  1  0  0  0  0
 20  2  1  0  0  0  0
 21 20  1  0  0  0  0
 21 36  1  0  0  0  0
 22  9  1  0  0  0  0
 23 10  1  0  0  0  0
 24 11  1  0  0  0  0
 27 15  1  0  0  0  0
 31 19  1  0  0  0  0
 32 20  1  0  0  0  0
 33 20  1  0  0  0  0
 34 21  1  0  0  0  0
 35 21  1  0  0  0  0
M  END
$$$$
