rmsd16.gzmat
 OpenBabel08211713383D

 36 38  0  0  0  0  0  0  0  0999 V2000
    0.0000    0.0000    0.0000 S   0  0  0  0  0  0  0  0  0  0  0  0
    1.7859    0.0000    0.0000 N   0  0  0  0  0  0  0  0  0  0  0  0
    2.3137    0.0000    1.2711 C   0  0  0  0  0  0  0  0  0  0  0  0
    3.9241   -0.0917    1.6602 S   0  0  0  0  0  0  0  0  0  0  0  0
    1.3188    0.1621    2.2407 N   0  0  0  0  0  0  0  0  0  0  0  0
   -0.0244    0.1661    1.8126 C   0  0  0  0  0  0  0  0  0  0  0  0
   -0.9926    0.2529    2.6348 N   0  0  0  0  0  0  0  0  0  0  0  0
   -2.3594    0.2713    2.3138 C   0  0  0  0  0  0  0  0  0  0  0  0
   -3.1517   -0.7995    2.7543 C   0  0  0  0  0  0  0  0  0  0  0  0
   -4.5247   -0.7611    2.5374 C   0  0  0  0  0  0  0  0  0  0  0  0
   -5.1078    0.3329    1.8982 C   0  0  0  0  0  0  0  0  0  0  0  0
   -4.3155    1.3976    1.4719 C   0  0  0  0  0  0  0  0  0  0  0  0
   -2.9384    1.3755    1.6724 C   0  0  0  0  0  0  0  0  0  0  0  0
    1.6465    0.3560    3.6298 C   0  0  0  0  0  0  0  0  0  0  0  0
    2.1107    1.6027    4.0565 C   0  0  0  0  0  0  0  0  0  0  0  0
    2.4247    1.7712    5.4028 C   0  0  0  0  0  0  0  0  0  0  0  0
    2.2683    0.7140    6.2982 C   0  0  0  0  0  0  0  0  0  0  0  0
    1.7919   -0.5201    5.8576 C   0  0  0  0  0  0  0  0  0  0  0  0
    1.4758   -0.7113    4.5150 C   0  0  0  0  0  0  0  0  0  0  0  0
    2.4801   -0.5704   -1.1581 C   0  0  0  0  0  0  0  0  0  0  0  0
    2.4402   -2.0975   -1.1893 C   0  0  0  0  0  0  0  0  0  0  0  0
   -2.6890   -1.6416    3.2656 H   0  0  0  0  0  0  0  0  0  0  0  0
   -5.1481   -1.5901    2.8695 H   0  0  0  0  0  0  0  0  0  0  0  0
   -6.1827    0.3558    1.7349 H   0  0  0  0  0  0  0  0  0  0  0  0
   -4.7755    2.2525    0.9779 H   0  0  0  0  0  0  0  0  0  0  0  0
   -2.3209    2.2115    1.3518 H   0  0  0  0  0  0  0  0  0  0  0  0
    2.2297    2.4227    3.3510 H   0  0  0  0  0  0  0  0  0  0  0  0
    2.7966    2.7329    5.7526 H   0  0  0  0  0  0  0  0  0  0  0  0
    2.5175    0.8534    7.3482 H   0  0  0  0  0  0  0  0  0  0  0  0
    1.6652   -1.3394    6.5628 H   0  0  0  0  0  0  0  0  0  0  0  0
    1.0997   -1.6683    4.1598 H   0  0  0  0  0  0  0  0  0  0  0  0
    3.5429   -0.2102   -1.1430 H   0  0  0  0  0  0  0  0  0  0  0  0
    2.0303   -0.1400   -2.0844 H   0  0  0  0  0  0  0  0  0  0  0  0
    2.8560   -2.5343   -0.2699 H   0  0  0  0  0  0  0  0  0  0  0  0
    3.0427   -2.4839   -2.0213 H   0  0  0  0  0  0  0  0  0  0  0  0
    1.4253   -2.4915   -1.3116 H   0  0  0  0  0  0  0  0  0  0  0  0
  1  2  1  0  0  0  0
  1  6  1  0  0  0  0
  2  3  1  0  0  0  0
  3  4  2  0  0  0  0
  3  5  1  0  0  0  0
  5 14  1  0  0  0  0
  6  5  1  0  0  0  0
  6  7  2  0  0  0  0
  8  7  1  0  0  0  0
  8  9  2  0  0  0  0
  9 22  1  0  0  0  0
 10  9  1  0  0  0  0
 10 23  1  0  0  0  0
 11 10  2  0  0  0  0
 12 13  2  0  0  0  0
 12 11  1  0  0  0  0
 13  8  1  0  0  0  0
 14 15  2  0  0  0  0
 14 19  1  0  0  0  0
 15 16  1  0  0  0  0
 16 28  1  0  0  0  0
 16 17  2  0  0  0  0
 17 29  1  0  0  0  0
 18 17  1  0  0  0  0
 18 30  1  0  0  0  0
 19 18  2  0  0  0  0
 20 32  1  0  0  0  0
 20  2  1  0  0  0  0
 21 20  1  0  0  0  0
 21 34  1  0  0  0  0
 24 11  1  0  0  0  0
 25 12  1  0  0  0  0
 26 13  1  0  0  0  0
 27 15  1  0  0  0  0
 31 19  1  0  0  0  0
 33 20  1  0  0  0  0
 35 21  1  0  0  0  0
 36 21  1  0  0  0  0
M  END
$$$$
