36
rmsd3.gzmat
S          0.00000        0.00000        0.00000
N          1.78610        0.00000        0.00000
C          2.31510        0.00000        1.26950
S          3.92580       -0.07920        1.66030
N          1.31920        0.14270        2.24030
C         -0.02500        0.16950        1.81200
N         -0.97950        0.30930        2.64200
C         -2.35580        0.30070        2.37670
C         -2.99560       -0.82930        1.84850
C         -4.38200       -0.82690        1.72320
C         -5.12420        0.28550        2.11550
C         -4.48090        1.40500        2.64400
C         -3.09760        1.42230        2.77930
C          1.64790        0.37390        3.62390
C          1.99250        1.66320        4.03770
C          2.30070        1.87150        5.37950
C          2.25670        0.81070        6.28360
C          1.90020       -0.46720        5.85490
C          1.59250       -0.69870        4.51630
C          2.48720       -0.55310       -1.16210
C          2.43730       -2.07930       -1.21920
H         -2.42010       -1.70570        1.56210
H         -4.88840       -1.70220        1.31920
H         -6.20690        0.27950        2.01420
H         -5.06600        2.26890        2.95730
H         -2.58560        2.28540        3.20260
H          2.02220        2.48410        3.32400
H          2.57660        2.86740        5.72130
H          2.50110        0.98190        7.33000
H          1.86050       -1.29080        6.56540
H          1.31370       -1.69190        4.17120
H          3.55280       -0.20110       -1.13010
H          2.04930       -0.10250       -2.08430
H          2.83130       -2.53370       -0.29920
H          3.05220       -2.45660       -2.04580
H          1.42250       -2.46350       -1.36590
