36
rmsd27.gzmat
S          0.00000        0.00000        0.00000
N          1.78550        0.00000        0.00000
C          2.31460        0.00000        1.27030
S          3.92450        0.10450        1.65900
N          1.32060       -0.17280        2.23870
C         -0.02270       -0.20470        1.80800
N         -0.98340       -0.33450        2.63400
C         -2.35330       -0.38300        2.33720
C         -2.89930       -1.35520        1.48780
C         -4.27890       -1.39860        1.30490
C         -5.10700       -0.48850        1.95900
C         -4.55830        0.46330        2.81960
C         -3.18380        0.52230        3.01760
C          1.64120       -0.38320        3.62750
C          1.44720        0.66790        4.52760
C          1.72310        0.45100        5.87530
C          2.18620       -0.79150        6.30620
C          2.38140       -1.82730        5.39320
C          2.10870       -1.63280        4.04160
C          2.47680        0.56620       -1.16190
C          2.48360        2.09410       -1.16550
H         -2.25930       -2.08250        0.99410
H         -4.71210       -2.15120        0.64760
H         -6.18270       -0.52270        1.80280
H         -5.20990        1.16260        3.34180
H         -2.74440        1.25230        3.69630
H          1.08180        1.63220        4.18090
H          1.57340        1.25610        6.59250
H          2.39520       -0.95450        7.36170
H          2.74580       -2.79460        5.73530
H          2.25970       -2.43580        3.32240
H          1.99730        0.16620       -2.08700
H          3.52690        0.17140       -1.17160
H          1.47970        2.51940       -1.27310
H          3.09390        2.47740       -1.99280
H          2.91670        2.50080       -0.23960
