36
rmsd23.gzmat
S          0.00000        0.00000        0.00000
N          1.78540        0.00000        0.00000
C          2.31570        0.00000        1.26890
S          3.92770        0.07310        1.65770
N          1.32050       -0.15520        2.23860
C         -0.02220       -0.19700        1.81000
N         -0.97910       -0.33330        2.63850
C         -2.34960       -0.40290        2.34980
C         -2.88740       -1.43300        1.56600
C         -4.26780       -1.51160        1.40380
C         -5.10480       -0.57960        2.01420
C         -4.56290        0.43730        2.80130
C         -3.18730        0.53260        2.97690
C          1.64400       -0.27670        3.63740
C          1.83590        0.88810        4.38490
C          2.13240        0.76770        5.73990
C          2.22770       -0.49270        6.32910
C          2.02770       -1.64420        5.56900
C          1.73280       -1.54680        4.21110
C          2.48920        0.54060       -1.16630
C          2.55380        2.06740       -1.17230
H         -2.23780       -2.17590        1.10950
H         -4.69460       -2.31000        0.79870
H         -6.18200       -0.64800        1.88260
H         -5.22030        1.15830        3.28520
H         -2.75310        1.31370        3.59980
H          1.75800        1.86630        3.91450
H          2.28980        1.66290        6.33880
H          2.45880       -0.57800        7.38900
H          2.09940       -2.62520        6.03620
H          1.57270       -2.43870        3.60880
H          1.99070        0.15880       -2.08860
H          3.52460        0.10770       -1.17910
H          1.56160        2.53150       -1.18030
H          3.09220        2.42860       -2.05740
H          3.09150        2.45560       -0.29500
