38
rmsd192.gzmat
N          0.00000        0.00000        0.00000
C          1.40920        0.00000        0.00000
O          2.07530        0.00000        1.01210
C          1.85800        0.00030       -1.41400
C          3.15540       -0.00430       -1.81780
N          4.17880       -0.00150       -0.89930
C          5.54180       -0.04020       -1.22230
C          6.01010       -0.09890       -2.54450
C          7.38000       -0.14950       -2.78270
C          8.28430       -0.14440       -1.72260
C          7.81860       -0.06540       -0.40820
C          6.45660       -0.01610       -0.15020
S         10.00500       -0.22390       -2.03720
O         10.24390        0.22080       -3.39140
O         10.70400        0.33850       -0.90360
N         10.35100       -1.93410       -1.97620
C         10.87270       -2.56050       -3.20020
C          0.65140        0.00600       -2.22360
C          0.43670        0.01450       -3.58670
C         -0.88380        0.01890       -4.05790
C         -1.96280        0.01540       -3.17890
C         -1.77370        0.00910       -1.79130
C         -0.46890        0.00490       -1.32980
H         -0.57900        0.00240        0.81170
H          3.41690       -0.00730       -2.88560
H          3.91330        0.01240        0.09910
H          5.32350       -0.10600       -3.38510
H          7.73570       -0.18460       -3.82070
H          8.52230       -0.03240        0.43490
H          6.09900        0.04330        0.87640
H         10.87560       -2.22530       -1.15220
H         11.93830       -2.34490       -3.38970
H         10.30430       -2.23080       -4.08950
H         10.74690       -3.65530       -3.11770
H          1.26790        0.01870       -4.28610
H         -1.06400        0.02510       -5.13040
H         -2.97880        0.01810       -3.57280
H         -2.62030        0.00810       -1.11390
