
     RDKit          3D

 38 40  0  0  0  0  0  0  0  0999 V2000
    0.1351   -0.0437   -0.0273 N   0  0  0  0  0  0  0  0  0  0  0  0
    1.5181   -0.0256   -0.0543 C   0  0  0  0  0  0  0  0  0  0  0  0
    2.2595   -0.0523    0.9275 O   0  0  0  0  0  0  0  0  0  0  0  0
    1.8957    0.0313   -1.4852 C   0  0  0  0  0  0  0  0  0  0  0  0
    3.2044    0.0618   -1.8820 C   0  0  0  0  0  0  0  0  0  0  0  0
    4.2240    0.0404   -0.9897 N   0  0  0  0  0  0  0  0  0  0  0  0
    5.5884    0.0706   -1.2433 C   0  0  0  0  0  0  0  0  0  0  0  0
    6.1238    0.1457   -2.5467 C   0  0  0  0  0  0  0  0  0  0  0  0
    7.4996    0.1736   -2.7362 C   0  0  0  0  0  0  0  0  0  0  0  0
    8.3544    0.1321   -1.6303 C   0  0  0  0  0  0  0  0  0  0  0  0
    7.8437    0.0482   -0.3334 C   0  0  0  0  0  0  0  0  0  0  0  0
    6.4663    0.0202   -0.1425 C   0  0  0  0  0  0  0  0  0  0  0  0
   10.1154    0.1615   -1.8904 S   0  0  0  0  0  0  0  0  0  0  0  0
   10.7516   -0.1227   -0.5989 O   0  0  0  0  0  0  0  0  0  0  0  0
   10.4410   -0.6125   -3.0902 O   0  0  0  0  0  0  0  0  0  0  0  0
   10.3768    1.7693   -2.3374 N   0  0  0  0  0  0  0  0  0  0  0  0
   10.5329    2.7402   -1.2608 C   0  0  0  0  0  0  0  0  0  0  0  0
    0.6588    0.0435   -2.2548 C   0  0  0  0  0  0  0  0  0  0  0  0
    0.3659    0.0888   -3.6185 C   0  0  0  0  0  0  0  0  0  0  0  0
   -0.9729    0.0867   -4.0310 C   0  0  0  0  0  0  0  0  0  0  0  0
   -2.0094    0.0397   -3.0911 C   0  0  0  0  0  0  0  0  0  0  0  0
   -1.7371   -0.0064   -1.7159 C   0  0  0  0  0  0  0  0  0  0  0  0
   -0.4058   -0.0039   -1.3157 C   0  0  0  0  0  0  0  0  0  0  0  0
   -0.3924   -0.0834    0.8357 H   0  0  0  0  0  0  0  0  0  0  0  0
    3.4638    0.1034   -2.9418 H   0  0  0  0  0  0  0  0  0  0  0  0
    3.9056   -0.0038   -0.0110 H   0  0  0  0  0  0  0  0  0  0  0  0
    5.4701    0.1781   -3.4181 H   0  0  0  0  0  0  0  0  0  0  0  0
    7.9205    0.2211   -3.7417 H   0  0  0  0  0  0  0  0  0  0  0  0
    8.5327   -0.0043    0.5106 H   0  0  0  0  0  0  0  0  0  0  0  0
    6.0542   -0.0471    0.8671 H   0  0  0  0  0  0  0  0  0  0  0  0
   11.1239    1.7657   -3.0327 H   0  0  0  0  0  0  0  0  0  0  0  0
   11.3751    2.5169   -0.5841 H   0  0  0  0  0  0  0  0  0  0  0  0
    9.6087    2.7732   -0.6636 H   0  0  0  0  0  0  0  0  0  0  0  0
   10.6747    3.7348   -1.7079 H   0  0  0  0  0  0  0  0  0  0  0  0
    1.1686    0.1251   -4.3593 H   0  0  0  0  0  0  0  0  0  0  0  0
   -1.2100    0.1217   -5.0964 H   0  0  0  0  0  0  0  0  0  0  0  0
   -3.0478    0.0386   -3.4300 H   0  0  0  0  0  0  0  0  0  0  0  0
   -2.5469   -0.0433   -0.9840 H   0  0  0  0  0  0  0  0  0  0  0  0
  1  2  1  0
  1 23  1  0
  1 24  1  0
  2  3  2  0
  2  4  1  0
  4  5  2  0
  4 18  1  0
  5  6  1  0
  5 25  1  0
  6  7  1  0
  6 26  1  0
  7  8  2  0
  7 12  1  0
  8  9  1  0
  8 27  1  0
  9 10  2  0
  9 28  1  0
 10 11  1  0
 10 13  1  0
 11 12  2  0
 11 29  1  0
 12 30  1  0
 13 14  2  0
 13 15  2  0
 13 16  1  0
 16 17  1  0
 16 31  1  0
 17 32  1  0
 17 33  1  0
 17 34  1  0
 18 19  2  0
 18 23  1  0
 19 20  1  0
 19 35  1  0
 20 21  2  0
 20 36  1  0
 21 22  1  0
 21 37  1  0
 22 23  2  0
 22 38  1  0
M  END

