38
rmsd122.gzmat
N          0.00000        0.00000        0.00000
C          1.40970        0.00000        0.00000
O          2.07690        0.00000        1.01110
C          1.85770        0.00370       -1.41400
C          3.15380        0.00810       -1.82140
N          4.18240        0.01110       -0.90880
C          5.54270        0.01340       -1.24650
C          5.99480       -0.07120       -2.57330
C          7.36110       -0.05710       -2.83240
C          8.27910        0.04290       -1.78880
C          7.83000        0.11150       -0.46830
C          6.47090        0.09830       -0.18930
S          9.99540        0.06970       -2.13460
O         10.71730       -0.27770       -0.93080
O         10.21720       -0.60860       -3.39110
N         10.33810        1.76290       -2.38850
C         10.64180        2.18090       -3.76560
C          0.65140        0.00700       -2.22370
C          0.43810        0.01060       -3.58690
C         -0.88180        0.01200       -4.05970
C         -1.96100        0.01210       -3.18140
C         -1.77290        0.01020       -1.79360
C         -0.46880        0.00590       -1.33010
H         -0.57930       -0.00260        0.81150
H          3.41010        0.01280       -2.89050
H          3.92440        0.01750        0.09100
H          5.29720       -0.15360       -3.40090
H          7.70260       -0.13750       -3.87240
H          8.54480        0.16860        0.36440
H          6.12690        0.15380        0.84200
H         10.98990        2.16490       -1.71560
H          9.85500        1.83420       -4.46030
H         11.60800        1.80380       -4.14470
H         10.65470        3.28400       -3.81150
H          1.26980        0.01250       -4.28540
H         -1.06020        0.01250       -5.13240
H         -2.97640        0.01350       -3.57670
H         -2.61960        0.01060       -1.11650
