38
rmsd11.gzmat
N          0.00000        0.00000        0.00000
C          1.40900        0.00000        0.00000
O          2.07500        0.00000        1.01240
C          1.85840        0.00400       -1.41410
C          3.15660        0.01890       -1.81530
N          4.17650        0.02150       -0.89250
C          5.54120        0.06550       -1.20700
C          6.02000        0.12180       -2.52540
C          7.39190        0.16500       -2.75360
C          8.28840        0.15710       -1.68680
C          7.81180        0.09190       -0.37570
C          6.44780        0.04970       -0.12790
S         10.01340        0.21650       -1.98320
O         10.69390       -0.14570       -0.76080
O         10.30160       -0.43350       -3.24250
N         10.32770        1.90590       -2.29240
C         10.89190        2.69050       -1.18380
C          0.65190        0.00010       -2.22390
C          0.43670       -0.00550       -3.58710
C         -0.88400       -0.00460       -4.05830
C         -1.96280        0.00290       -3.17930
C         -1.77330        0.00500       -1.79170
C         -0.46860        0.00230       -1.32990
H         -0.57840       -0.00140        0.81230
H          3.42190        0.02710       -2.88190
H          3.90610        0.00360        0.10460
H          5.33890        0.13210       -3.37070
H          7.75410        0.19790       -3.78920
H          8.50940        0.06340        0.47330
H          6.08120        0.00030        0.89600
H         10.80880        2.08480       -3.17280
H         11.86910        2.32030       -0.82410
H         10.19530        2.69080       -0.32580
H         11.01410        3.74030       -1.50300
H          1.26770       -0.01000       -4.28680
H         -1.06420       -0.00890       -5.13080
H         -2.97870        0.00690       -3.57360
H         -2.61930        0.00670       -1.11370
