rmsd192.gzmat
 OpenBabel08211713373D

 38 40  0  0  1  0  0  0  0  0999 V2000
    0.0000    0.0000    0.0000 N   0  0  0  0  0  0  0  0  0  0  0  0
    1.4092    0.0000    0.0000 C   0  0  0  0  0  0  0  0  0  0  0  0
    2.0753    0.0000    1.0121 O   0  0  0  0  0  0  0  0  0  0  0  0
    1.8580    0.0003   -1.4140 C   0  0  1  0  0  0  0  0  0  0  0  0
    3.1554   -0.0043   -1.8178 C   0  0  0  0  0  0  0  0  0  0  0  0
    4.1788   -0.0015   -0.8993 N   0  0  0  0  0  0  0  0  0  0  0  0
    5.5418   -0.0402   -1.2223 C   0  0  0  0  0  0  0  0  0  0  0  0
    6.0101   -0.0989   -2.5445 C   0  0  0  0  0  0  0  0  0  0  0  0
    7.3800   -0.1495   -2.7827 C   0  0  0  0  0  0  0  0  0  0  0  0
    8.2843   -0.1444   -1.7226 C   0  0  0  0  0  0  0  0  0  0  0  0
    7.8186   -0.0654   -0.4082 C   0  0  0  0  0  0  0  0  0  0  0  0
    6.4566   -0.0161   -0.1502 C   0  0  0  0  0  0  0  0  0  0  0  0
   10.0050   -0.2239   -2.0372 S   0  0  0  0  0  0  0  0  0  0  0  0
   10.2439    0.2208   -3.3914 O   0  0  0  0  0  0  0  0  0  0  0  0
   10.7040    0.3385   -0.9036 O   0  0  0  0  0  0  0  0  0  0  0  0
   10.3510   -1.9341   -1.9762 N   0  0  0  0  0  0  0  0  0  0  0  0
   10.8727   -2.5605   -3.2002 C   0  0  0  0  0  0  0  0  0  0  0  0
    0.6514    0.0060   -2.2236 C   0  0  0  0  0  0  0  0  0  0  0  0
    0.4367    0.0145   -3.5867 C   0  0  0  0  0  0  0  0  0  0  0  0
   -0.8838    0.0189   -4.0579 C   0  0  0  0  0  0  0  0  0  0  0  0
   -1.9628    0.0154   -3.1789 C   0  0  0  0  0  0  0  0  0  0  0  0
   -1.7737    0.0091   -1.7913 C   0  0  0  0  0  0  0  0  0  0  0  0
   -0.4689    0.0049   -1.3298 C   0  0  0  0  0  0  0  0  0  0  0  0
   -0.5790    0.0024    0.8117 H   0  0  0  0  0  0  0  0  0  0  0  0
    3.4169   -0.0073   -2.8856 H   0  0  0  0  0  0  0  0  0  0  0  0
    3.9133    0.0124    0.0991 H   0  0  0  0  0  0  0  0  0  0  0  0
    5.3235   -0.1060   -3.3851 H   0  0  0  0  0  0  0  0  0  0  0  0
    7.7357   -0.1846   -3.8207 H   0  0  0  0  0  0  0  0  0  0  0  0
    8.5223   -0.0324    0.4349 H   0  0  0  0  0  0  0  0  0  0  0  0
    6.0990    0.0433    0.8764 H   0  0  0  0  0  0  0  0  0  0  0  0
   10.8756   -2.2253   -1.1522 H   0  0  0  0  0  0  0  0  0  0  0  0
   11.9383   -2.3449   -3.3897 H   0  0  0  0  0  0  0  0  0  0  0  0
   10.3043   -2.2308   -4.0895 H   0  0  0  0  0  0  0  0  0  0  0  0
   10.7469   -3.6553   -3.1177 H   0  0  0  0  0  0  0  0  0  0  0  0
    1.2679    0.0187   -4.2861 H   0  0  0  0  0  0  0  0  0  0  0  0
   -1.0640    0.0251   -5.1304 H   0  0  0  0  0  0  0  0  0  0  0  0
   -2.9788    0.0181   -3.5728 H   0  0  0  0  0  0  0  0  0  0  0  0
   -2.6203    0.0081   -1.1139 H   0  0  0  0  0  0  0  0  0  0  0  0
  1 24  1  0  0  0  0
  2  1  1  0  0  0  0
  2  3  2  0  0  0  0
  4  5  1  6  0  0  0
  4  2  1  0  0  0  0
  5  6  2  0  0  0  0
  6 26  1  0  0  0  0
  7  6  1  0  0  0  0
  7 12  2  0  0  0  0
  8  7  1  0  0  0  0
  9  8  2  0  0  0  0
  9 10  1  0  0  0  0
 10 11  2  0  0  0  0
 11 12  1  0  0  0  0
 11 29  1  0  0  0  0
 12 30  1  0  0  0  0
 13 16  1  0  0  0  0
 13 10  1  0  0  0  0
 13 15  2  0  0  0  0
 14 13  2  0  0  0  0
 16 31  1  0  0  0  0
 17 34  1  0  0  0  0
 17 16  1  0  0  0  0
 18  4  1  0  0  0  0
 18 23  2  0  0  0  0
 19 18  1  0  0  0  0
 20 19  2  0  0  0  0
 20 21  1  0  0  0  0
 21 22  2  0  0  0  0
 22 23  1  0  0  0  0
 22 38  1  0  0  0  0
 23  1  1  0  0  0  0
 25  5  1  0  0  0  0
 27  8  1  0  0  0  0
 28  9  1  0  0  0  0
 32 17  1  0  0  0  0
 33 17  1  0  0  0  0
 35 19  1  0  0  0  0
 36 20  1  0  0  0  0
 37 21  1  0  0  0  0
M  RAD  1   4   2
M  END
$$$$
