38
rmsd159.gzmat
N          0.00000        0.00000        0.00000
C          1.40990        0.00000        0.00000
O          2.07690        0.00000        1.01110
C          1.85740        0.00170       -1.41420
C          3.15270        0.00650       -1.82330
N          4.18470        0.02090       -0.91450
C          5.54230        0.05030       -1.26320
C          5.98690       -0.11990       -2.58430
C          7.34930       -0.06880       -2.85950
C          8.26990        0.15350       -1.83720
C          7.82900        0.30090       -0.52060
C          6.47420        0.25010       -0.22520
S          9.98030        0.23760       -2.20240
O         10.71820        0.05660       -0.97340
O         10.24510       -0.55180       -3.38510
N         10.21180        1.88910       -2.72100
C         10.89230        2.79020       -1.77860
C          0.65060        0.00640       -2.22360
C          0.43690        0.01420       -3.58660
C         -0.88310        0.03150       -4.05900
C         -1.96220        0.03760       -3.18070
C         -1.77360        0.02370       -1.79290
C         -0.46920        0.00910       -1.33000
H         -0.57940       -0.00510        0.81160
H          3.40680        0.00670       -2.89310
H          3.93240        0.03990        0.08590
H          5.28730       -0.30110       -3.39470
H          7.68530       -0.21600       -3.89440
H          8.54770        0.45090        0.29670
H          6.13630        0.36670        0.80280
H         10.57610        1.98040       -3.66850
H         11.93250        2.49770       -1.55020
H         10.34000        2.83200       -0.82220
H         10.90220        3.81230       -2.19510
H          1.26850        0.00840       -4.28490
H         -1.06140        0.04180       -5.13180
H         -2.97760        0.05420       -3.57580
H         -2.62040        0.02610       -1.11590
