rmsd159.gzmat
 OpenBabel08211713373D

 38 40  0  0  1  0  0  0  0  0999 V2000
    0.0000    0.0000    0.0000 N   0  0  0  0  0  0  0  0  0  0  0  0
    1.4099    0.0000    0.0000 C   0  0  0  0  0  0  0  0  0  0  0  0
    2.0769    0.0000    1.0111 O   0  0  0  0  0  0  0  0  0  0  0  0
    1.8574    0.0017   -1.4142 C   0  0  2  0  0  0  0  0  0  0  0  0
    3.1527    0.0065   -1.8233 C   0  0  0  0  0  0  0  0  0  0  0  0
    4.1847    0.0209   -0.9145 N   0  0  0  0  0  0  0  0  0  0  0  0
    5.5423    0.0503   -1.2632 C   0  0  0  0  0  0  0  0  0  0  0  0
    5.9869   -0.1199   -2.5843 C   0  0  0  0  0  0  0  0  0  0  0  0
    7.3493   -0.0688   -2.8595 C   0  0  0  0  0  0  0  0  0  0  0  0
    8.2699    0.1535   -1.8372 C   0  0  0  0  0  0  0  0  0  0  0  0
    7.8290    0.3009   -0.5206 C   0  0  0  0  0  0  0  0  0  0  0  0
    6.4742    0.2501   -0.2252 C   0  0  0  0  0  0  0  0  0  0  0  0
    9.9803    0.2376   -2.2024 S   0  0  0  0  0  0  0  0  0  0  0  0
   10.7182    0.0566   -0.9734 O   0  0  0  0  0  0  0  0  0  0  0  0
   10.2451   -0.5518   -3.3851 O   0  0  0  0  0  0  0  0  0  0  0  0
   10.2118    1.8891   -2.7210 N   0  0  0  0  0  0  0  0  0  0  0  0
   10.8923    2.7902   -1.7786 C   0  0  0  0  0  0  0  0  0  0  0  0
    0.6506    0.0064   -2.2236 C   0  0  0  0  0  0  0  0  0  0  0  0
    0.4369    0.0142   -3.5866 C   0  0  0  0  0  0  0  0  0  0  0  0
   -0.8831    0.0315   -4.0590 C   0  0  0  0  0  0  0  0  0  0  0  0
   -1.9622    0.0376   -3.1807 C   0  0  0  0  0  0  0  0  0  0  0  0
   -1.7736    0.0237   -1.7929 C   0  0  0  0  0  0  0  0  0  0  0  0
   -0.4692    0.0091   -1.3300 C   0  0  0  0  0  0  0  0  0  0  0  0
   -0.5794   -0.0051    0.8116 H   0  0  0  0  0  0  0  0  0  0  0  0
    3.4068    0.0067   -2.8931 H   0  0  0  0  0  0  0  0  0  0  0  0
    3.9324    0.0399    0.0859 H   0  0  0  0  0  0  0  0  0  0  0  0
    5.2873   -0.3011   -3.3947 H   0  0  0  0  0  0  0  0  0  0  0  0
    7.6853   -0.2160   -3.8944 H   0  0  0  0  0  0  0  0  0  0  0  0
    8.5477    0.4509    0.2967 H   0  0  0  0  0  0  0  0  0  0  0  0
    6.1363    0.3667    0.8028 H   0  0  0  0  0  0  0  0  0  0  0  0
   10.5761    1.9804   -3.6685 H   0  0  0  0  0  0  0  0  0  0  0  0
   11.9325    2.4977   -1.5502 H   0  0  0  0  0  0  0  0  0  0  0  0
   10.3400    2.8320   -0.8222 H   0  0  0  0  0  0  0  0  0  0  0  0
   10.9022    3.8123   -2.1951 H   0  0  0  0  0  0  0  0  0  0  0  0
    1.2685    0.0084   -4.2849 H   0  0  0  0  0  0  0  0  0  0  0  0
   -1.0614    0.0418   -5.1318 H   0  0  0  0  0  0  0  0  0  0  0  0
   -2.9776    0.0542   -3.5758 H   0  0  0  0  0  0  0  0  0  0  0  0
   -2.6204    0.0261   -1.1159 H   0  0  0  0  0  0  0  0  0  0  0  0
  1 24  1  0  0  0  0
  2  1  1  0  0  0  0
  2  3  2  0  0  0  0
  4  5  1  1  0  0  0
  4  2  1  0  0  0  0
  5  6  2  0  0  0  0
  6 26  1  0  0  0  0
  7  6  1  0  0  0  0
  7 12  2  0  0  0  0
  8  7  1  0  0  0  0
  9  8  2  0  0  0  0
  9 10  1  0  0  0  0
 10 11  2  0  0  0  0
 11 12  1  0  0  0  0
 11 29  1  0  0  0  0
 12 30  1  0  0  0  0
 13 10  1  0  0  0  0
 13 14  2  0  0  0  0
 15 13  2  0  0  0  0
 16 13  1  0  0  0  0
 16 17  1  0  0  0  0
 17 32  1  0  0  0  0
 17 33  1  0  0  0  0
 18  4  1  0  0  0  0
 18 23  2  0  0  0  0
 19 18  1  0  0  0  0
 20 19  2  0  0  0  0
 20 21  1  0  0  0  0
 21 22  2  0  0  0  0
 22 23  1  0  0  0  0
 22 38  1  0  0  0  0
 23  1  1  0  0  0  0
 25  5  1  0  0  0  0
 27  8  1  0  0  0  0
 28  9  1  0  0  0  0
 31 16  1  0  0  0  0
 34 17  1  0  0  0  0
 35 19  1  0  0  0  0
 36 20  1  0  0  0  0
 37 21  1  0  0  0  0
M  RAD  1   4   2
M  END
$$$$
