37
rmsd40.gzmat
C          0.00000        0.00000        0.00000
O          1.20090        0.00000        0.00000
C         -0.89380        0.00000       -1.18790
C         -0.56010        0.54410       -2.36410
C         -1.48840        0.47730       -3.53320
H         -0.96060        0.10370       -4.44540
C         -2.76140       -0.38210       -3.25810
H         -3.60920        0.03330       -3.88000
C         -3.15830       -0.30450       -1.77080
H         -3.88680       -1.10170       -1.48720
C         -3.65280        1.09750       -1.37180
H         -2.96210        1.88690       -1.75760
C         -5.10410        1.36150       -1.83630
H         -5.78550        0.51710       -1.59080
C         -5.61720        2.68810       -1.25100
O         -4.65580        3.70670       -1.42640
O         -5.13830        1.40340       -3.24120
O         -3.69910        1.22800        0.03340
O         -2.05680       -0.65270       -0.92670
N         -2.49250       -1.76710       -3.60900
C         -2.95720       -2.40130       -4.75540
O         -2.64110       -3.56260       -4.91430
C         -3.81190       -1.63910       -5.72030
O         -2.01150        1.76190       -3.83190
O         -0.72090        0.04540        1.14480
H          0.39530        1.04130       -2.52080
H         -5.86740        2.58650       -0.17930
H         -6.49230        3.06330       -1.81550
H         -3.90950        3.56450       -0.80350
H         -4.59470        2.15570       -3.57650
H         -2.94130        0.75330        0.45240
H         -1.91830       -2.29510       -2.95870
H         -4.79900       -1.40590       -5.29270
H         -3.99010       -2.24720       -6.62360
H         -3.35280       -0.69740       -6.04860
H         -1.29670        2.42180       -3.93370
H         -0.15950        0.05480        1.96500
