
     RDKit          3D

 37 37  0  0  0  0  0  0  0  0999 V2000
    0.0826    0.0276   -0.2397 C   0  0  0  0  0  0  0  0  0  0  0  0
    1.2554    0.1751   -0.4776 O   0  0  0  0  0  0  0  0  0  0  0  0
   -0.9844   -0.0233   -1.2901 C   0  0  0  0  0  0  0  0  0  0  0  0
   -0.7008    0.2790   -2.5701 C   0  0  0  0  0  0  0  0  0  0  0  0
   -1.7555    0.2605   -3.6358 C   0  0  1  0  0  0  0  0  0  0  0  0
   -1.3844   -0.3134   -4.5041 H   0  0  0  0  0  0  0  0  0  0  0  0
   -3.0266   -0.4525   -3.1236 C   0  0  2  0  0  0  0  0  0  0  0  0
   -3.8698   -0.1297   -3.7429 H   0  0  0  0  0  0  0  0  0  0  0  0
   -3.3342   -0.0471   -1.6787 C   0  0  2  0  0  0  0  0  0  0  0  0
   -4.1514   -0.6725   -1.2932 H   0  0  0  0  0  0  0  0  0  0  0  0
   -3.6702    1.4237   -1.4213 C   0  0  1  0  0  0  0  0  0  0  0  0
   -2.8514    2.0503   -1.8141 H   0  0  0  0  0  0  0  0  0  0  0  0
   -4.9603    1.9061   -2.0992 C   0  0  1  0  0  0  0  0  0  0  0  0
   -5.7867    1.2245   -1.8286 H   0  0  0  0  0  0  0  0  0  0  0  0
   -5.3218    3.3083   -1.5825 C   0  0  0  0  0  0  0  0  0  0  0  0
   -4.2026    4.1689   -1.5047 O   0  0  0  0  0  0  0  0  0  0  0  0
   -4.8468    1.8628   -3.5071 O   0  0  0  0  0  0  0  0  0  0  0  0
   -3.8129    1.6341   -0.0260 O   0  0  0  0  0  0  0  0  0  0  0  0
   -2.2077   -0.3771   -0.8284 O   0  0  0  0  0  0  0  0  0  0  0  0
   -2.8815   -1.8898   -3.1909 N   0  0  0  0  0  0  0  0  0  0  0  0
   -3.2569   -2.7182   -4.2241 C   0  0  0  0  0  0  0  0  0  0  0  0
   -2.9964   -3.9059   -4.1989 O   0  0  0  0  0  0  0  0  0  0  0  0
   -4.0188   -2.0702   -5.3679 C   0  0  0  0  0  0  0  0  0  0  0  0
   -2.1139    1.5793   -4.0670 O   0  0  0  0  0  0  0  0  0  0  0  0
   -0.4206   -0.0758    1.0012 O   0  0  0  0  0  0  0  0  0  0  0  0
    0.3321    0.5369   -2.8118 H   0  0  0  0  0  0  0  0  0  0  0  0
   -5.8291    3.2178   -0.6059 H   0  0  0  0  0  0  0  0  0  0  0  0
   -6.0306    3.7489   -2.3003 H   0  0  0  0  0  0  0  0  0  0  0  0
   -3.7299    3.9198   -0.6980 H   0  0  0  0  0  0  0  0  0  0  0  0
   -3.9589    2.1676   -3.7619 H   0  0  0  0  0  0  0  0  0  0  0  0
   -3.1005    1.1437    0.4119 H   0  0  0  0  0  0  0  0  0  0  0  0
   -2.3521   -2.3528   -2.4573 H   0  0  0  0  0  0  0  0  0  0  0  0
   -4.9668   -1.6309   -5.0189 H   0  0  0  0  0  0  0  0  0  0  0  0
   -4.2322   -2.8463   -6.1118 H   0  0  0  0  0  0  0  0  0  0  0  0
   -3.4380   -1.2625   -5.8405 H   0  0  0  0  0  0  0  0  0  0  0  0
   -1.3213    2.1313   -4.1026 H   0  0  0  0  0  0  0  0  0  0  0  0
    0.3337   -0.0241    1.6133 H   0  0  0  0  0  0  0  0  0  0  0  0
  1  2  2  0
  1  3  1  0
  1 25  1  0
  3  4  2  0
  3 19  1  0
  4  5  1  0
  4 26  1  0
  5  6  1  6
  5  7  1  0
  5 24  1  0
  7  8  1  6
  7  9  1  0
  7 20  1  0
  9 10  1  1
  9 11  1  0
  9 19  1  0
 11 12  1  6
 11 13  1  0
 11 18  1  0
 13 14  1  1
 13 15  1  0
 13 17  1  0
 15 16  1  0
 15 27  1  0
 15 28  1  0
 16 29  1  0
 17 30  1  0
 18 31  1  0
 20 21  1  0
 20 32  1  0
 21 22  2  0
 21 23  1  0
 23 33  1  0
 23 34  1  0
 23 35  1  0
 24 36  1  0
 25 37  1  0
M  END

