rmsd123.gzmat
 OpenBabel08211713423D

 37 37  0  0  1  0  0  0  0  0999 V2000
    0.0000    0.0000    0.0000 C   0  0  0  0  0  0  0  0  0  0  0  0
    1.2015    0.0000    0.0000 O   0  0  0  0  0  0  0  0  0  0  0  0
   -0.8792    0.0000   -1.2005 C   0  0  0  0  0  0  0  0  0  0  0  0
   -1.9222   -0.8045   -1.4245 C   0  0  0  0  0  0  0  0  0  0  0  0
   -2.6682   -0.7487   -2.7180 C   0  0  1  0  0  0  0  0  0  0  0  0
   -3.7710   -0.6857   -2.5461 H   0  0  0  0  0  0  0  0  0  0  0  0
   -2.2034    0.4090   -3.6547 C   0  0  2  0  0  0  0  0  0  0  0  0
   -2.3524    0.0724   -4.7243 H   0  0  0  0  0  0  0  0  0  0  0  0
   -0.7101    0.7241   -3.4384 C   0  0  2  0  0  0  0  0  0  0  0  0
   -0.4206    1.7148   -3.8665 H   0  0  0  0  0  0  0  0  0  0  0  0
    0.2122   -0.4061   -3.9314 C   0  0  1  0  0  0  0  0  0  0  0  0
   -0.1111   -1.3959   -3.5245 H   0  0  0  0  0  0  0  0  0  0  0  0
    0.3007   -0.4564   -5.4728 C   0  0  1  0  0  0  0  0  0  0  0  0
    0.4029    0.5571   -5.9220 H   0  0  0  0  0  0  0  0  0  0  0  0
    1.4378   -1.3850   -5.9376 C   0  0  0  0  0  0  0  0  0  0  0  0
    1.6765   -2.4221   -5.0151 O   0  0  0  0  0  0  0  0  0  0  0  0
   -0.9300   -0.9014   -5.9902 O   0  0  0  0  0  0  0  0  0  0  0  0
    1.5353   -0.1637   -3.4961 O   0  0  0  0  0  0  0  0  0  0  0  0
   -0.4230    0.9528   -2.0573 O   0  0  0  0  0  0  0  0  0  0  0  0
   -2.9899    1.5988   -3.3751 N   0  0  0  0  0  0  0  0  0  0  0  0
   -4.0018    2.0958   -4.1889 C   0  0  0  0  0  0  0  0  0  0  0  0
   -4.5956    3.0788   -3.7954 O   0  0  0  0  0  0  0  0  0  0  0  0
   -4.3036    1.4151   -5.4878 C   0  0  0  0  0  0  0  0  0  0  0  0
   -2.4203   -1.9164   -3.4871 O   0  0  0  0  0  0  0  0  0  0  0  0
   -0.7354   -0.0280    1.1312 O   0  0  0  0  0  0  0  0  0  0  0  0
   -2.2728   -1.5212   -0.6860 H   0  0  0  0  0  0  0  0  0  0  0  0
    2.3731   -0.8201   -6.1017 H   0  0  0  0  0  0  0  0  0  0  0  0
    1.1543   -1.9207   -6.8646 H   0  0  0  0  0  0  0  0  0  0  0  0
    2.0342   -2.0409   -4.1799 H   0  0  0  0  0  0  0  0  0  0  0  0
   -1.2080   -1.7487   -5.5696 H   0  0  0  0  0  0  0  0  0  0  0  0
    1.5465    0.0596   -2.5325 H   0  0  0  0  0  0  0  0  0  0  0  0
   -2.7982    2.0701   -2.4959 H   0  0  0  0  0  0  0  0  0  0  0  0
   -3.4293    1.3758   -6.1541 H   0  0  0  0  0  0  0  0  0  0  0  0
   -5.0949    1.9653   -6.0260 H   0  0  0  0  0  0  0  0  0  0  0  0
   -4.6680    0.3887   -5.3451 H   0  0  0  0  0  0  0  0  0  0  0  0
   -2.5069   -2.7256   -2.9447 H   0  0  0  0  0  0  0  0  0  0  0  0
   -0.1873   -0.0086    1.9612 H   0  0  0  0  0  0  0  0  0  0  0  0
  1  2  2  0  0  0  0
  1 25  1  0  0  0  0
  3  1  1  0  0  0  0
  4  3  2  0  0  0  0
  4 26  1  0  0  0  0
  5  7  1  0  0  0  0
  5  6  1  1  0  0  0
  5  4  1  0  0  0  0
  7  9  1  0  0  0  0
  7 20  1  0  0  0  0
  7  8  1  6  0  0  0
  9 10  1  6  0  0  0
  9 19  1  0  0  0  0
 11 12  1  1  0  0  0
 11 18  1  0  0  0  0
 11  9  1  0  0  0  0
 13 14  1  6  0  0  0
 13 11  1  0  0  0  0
 15 13  1  0  0  0  0
 15 16  1  0  0  0  0
 16 29  1  0  0  0  0
 17 30  1  0  0  0  0
 17 13  1  0  0  0  0
 18 31  1  0  0  0  0
 19  3  1  0  0  0  0
 20 32  1  0  0  0  0
 21 22  2  0  0  0  0
 21 20  1  0  0  0  0
 23 35  1  0  0  0  0
 23 21  1  0  0  0  0
 24 36  1  0  0  0  0
 24  5  1  0  0  0  0
 25 37  1  0  0  0  0
 27 15  1  0  0  0  0
 28 15  1  0  0  0  0
 33 23  1  0  0  0  0
 34 23  1  0  0  0  0
M  END
$$$$
