37

C         -0.20420        0.09210        0.01940
O          0.91430        0.52240        0.14770
C         -0.94910        0.11430       -1.27830
C         -1.98430       -0.69700       -1.56500
C         -2.61360       -0.71650       -2.92820
H         -3.71050       -0.63360       -2.82400
C         -2.13860        0.49230       -3.76510
H         -2.28250        0.24950       -4.82290
C         -0.64440        0.75150       -3.54700
H         -0.36400        1.69430       -4.03650
C          0.33040       -0.34570       -3.98190
H          0.03670       -1.29400       -3.50000
C          0.35050       -0.61030       -5.49350
H          0.51770        0.34310       -6.02580
C          1.51790       -1.55000       -5.83700
O          1.64550       -2.62220       -4.92400
O         -0.89480       -1.10780       -5.94130
O          1.64430        0.00940       -3.58740
O         -0.39810        0.99570       -2.14280
N         -2.87850        1.68670       -3.42160
C         -4.02950        2.15330       -4.01410
O         -4.61280        3.12370       -3.56950
C         -4.50650        1.40430       -5.24710
O         -2.30270       -1.91690       -3.64640
O         -0.90040       -0.49330        1.00780
H         -2.35510       -1.36320       -0.78450
H          2.45110       -0.96330       -5.90140
H          1.31160       -1.98030       -6.82910
H          2.07770       -2.25320       -4.14060
H         -1.23220       -1.74560       -5.28920
H          1.59550        0.35310       -2.68120
H         -2.60100        2.19780       -2.58810
H         -3.75680        1.44470       -6.05330
H         -5.43300        1.87830       -5.59100
H         -4.69890        0.34140       -5.03230
H         -2.30790       -2.66670       -3.03650
H         -0.32200       -0.50960        1.78950
