37

C          0.01780       -0.20500        0.00050
O          1.12270       -0.69220       -0.04840
C         -0.88950       -0.07910       -1.18220
C         -0.50640       -0.52220       -2.39330
C         -1.42250       -0.50470       -3.58390
H         -1.64720       -1.55600       -3.84340
C         -2.77630        0.17290       -3.25150
H         -3.05910        0.73740       -4.14140
C         -2.70270        1.13210       -2.05150
H         -3.72620        1.34610       -1.71900
C         -2.04210        2.49230       -2.32980
H         -1.00570        2.34750       -2.66700
C         -2.80220        3.33750       -3.38500
H         -2.46120        4.36440       -3.16290
C         -2.45930        3.06340       -4.86000
O         -1.08280        2.78060       -5.07340
O         -4.19350        3.34510       -3.17210
O         -1.95210        3.22370       -1.12630
O         -2.09020        0.49410       -0.93100
N         -3.85440       -0.78490       -3.05690
C         -5.13540       -0.37670       -3.24470
O         -5.39940        0.76790       -3.61390
C         -6.22200       -1.39490       -2.98310
O         -0.82220        0.01720       -4.74450
O         -0.52870        0.27290        1.12780
H          0.49030       -0.94920       -2.50460
H         -2.79000        3.92730       -5.46250
H         -3.01390        2.19470       -5.24130
H         -0.55480        3.55410       -4.83310
H         -4.58550        2.48280       -3.42330
H         -2.85780        3.42490       -0.84710
H         -3.66230       -1.68610       -2.63700
H         -5.83610       -2.39630       -2.74580
H         -6.86790       -1.45300       -3.87120
H         -6.84660       -1.03850       -2.14990
H         -0.71590        0.98530       -4.68390
H          0.13680        0.14620        1.82510
