37
rmsd108.gzmat
C          0.00000        0.00000        0.00000
O          1.19920        0.00000        0.00000
C         -0.93770        0.00000       -1.14850
C         -2.22760        0.35030       -1.12050
C         -3.04730        0.41340       -2.36860
H         -3.37450        1.47000       -2.56480
C         -2.32550       -0.17450       -3.61790
H         -3.07730       -0.81910       -4.16620
C         -1.09510       -1.02790       -3.24220
H         -0.37200       -1.11220       -4.09290
C         -1.49350       -2.41420       -2.70680
H         -2.23930       -2.33180       -1.87740
C         -1.97580       -3.37320       -3.82020
H         -1.55370       -4.39230       -3.62210
C         -3.51250       -3.41720       -3.93230
O         -4.11020       -3.27470       -2.66200
O         -1.41620       -3.06360       -5.06450
O         -0.40690       -3.01240       -2.04690
O         -0.27590       -0.36460       -2.28560
N         -1.91430        0.90630       -4.51440
C         -1.88800        0.66620       -5.87770
O         -2.24770       -0.41520       -6.30660
C         -1.43360        1.79660       -6.74790
O         -4.27980       -0.23290       -2.18870
O         -0.70590        0.02250        1.16310
H         -2.74890        0.61440       -0.19940
H         -3.85960       -4.35050       -4.40940
H         -3.91990       -2.56200       -4.50760
H         -3.92800       -4.05400       -2.09690
H         -1.77940       -2.23180       -5.45760
H          0.41590       -2.95370       -2.58150
H         -1.47640        1.71320       -4.10100
H         -1.69580        2.78680       -6.35570
H         -1.88890        1.70800       -7.75000
H         -0.34270        1.76510       -6.89540
H         -4.17960       -1.21120       -2.11070
H         -0.12910        0.00410        1.96830
