
     RDKit          3D

 37 37  0  0  0  0  0  0  0  0999 V2000
   -0.0119    0.1648    0.0418 C   0  0  0  0  0  0  0  0  0  0  0  0
    1.1786   -0.0027   -0.0157 O   0  0  0  0  0  0  0  0  0  0  0  0
   -0.9451    0.0282   -1.1179 C   0  0  0  0  0  0  0  0  0  0  0  0
   -2.2642    0.2896   -1.0614 C   0  0  0  0  0  0  0  0  0  0  0  0
   -3.1446    0.2609   -2.2813 C   0  0  1  0  0  0  0  0  0  0  0  0
   -3.4648    1.3011   -2.4783 H   0  0  0  0  0  0  0  0  0  0  0  0
   -2.3703   -0.2160   -3.5356 C   0  0  2  0  0  0  0  0  0  0  0  0
   -3.0666   -0.8364   -4.1027 H   0  0  0  0  0  0  0  0  0  0  0  0
   -1.1198   -1.0437   -3.1956 C   0  0  2  0  0  0  0  0  0  0  0  0
   -0.4917   -1.1102   -4.0927 H   0  0  0  0  0  0  0  0  0  0  0  0
   -1.4015   -2.4881   -2.7493 C   0  0  1  0  0  0  0  0  0  0  0  0
   -2.0802   -2.4927   -1.8846 H   0  0  0  0  0  0  0  0  0  0  0  0
   -2.0238   -3.3542   -3.8775 C   0  0  1  0  0  0  0  0  0  0  0  0
   -1.7752   -4.3820   -3.5590 H   0  0  0  0  0  0  0  0  0  0  0  0
   -3.5546   -3.2815   -4.0247 C   0  0  0  0  0  0  0  0  0  0  0  0
   -4.2390   -3.1597   -2.7844 O   0  0  0  0  0  0  0  0  0  0  0  0
   -1.3880   -3.1744   -5.1201 O   0  0  0  0  0  0  0  0  0  0  0  0
   -0.2103   -3.0883   -2.2935 O   0  0  0  0  0  0  0  0  0  0  0  0
   -0.3061   -0.3621   -2.2446 O   0  0  0  0  0  0  0  0  0  0  0  0
   -2.0191    0.8730   -4.4343 N   0  0  0  0  0  0  0  0  0  0  0  0
   -1.7821    0.5930   -5.7414 C   0  0  0  0  0  0  0  0  0  0  0  0
   -1.9060   -0.5473   -6.1891 O   0  0  0  0  0  0  0  0  0  0  0  0
   -1.3604    1.7480   -6.6211 C   0  0  0  0  0  0  0  0  0  0  0  0
   -4.3473   -0.4426   -2.0812 O   0  0  0  0  0  0  0  0  0  0  0  0
   -0.6548    0.5164    1.1763 O   0  0  0  0  0  0  0  0  0  0  0  0
   -2.7165    0.5773   -0.1134 H   0  0  0  0  0  0  0  0  0  0  0  0
   -3.8965   -4.1689   -4.5851 H   0  0  0  0  0  0  0  0  0  0  0  0
   -3.8466   -2.4092   -4.6262 H   0  0  0  0  0  0  0  0  0  0  0  0
   -4.0873   -3.9549   -2.2558 H   0  0  0  0  0  0  0  0  0  0  0  0
   -1.6472   -2.3150   -5.5123 H   0  0  0  0  0  0  0  0  0  0  0  0
    0.4093   -3.1089   -3.0376 H   0  0  0  0  0  0  0  0  0  0  0  0
   -1.7867    1.7843   -4.0588 H   0  0  0  0  0  0  0  0  0  0  0  0
   -1.3981    2.7218   -6.1130 H   0  0  0  0  0  0  0  0  0  0  0  0
   -2.0133    1.7708   -7.5056 H   0  0  0  0  0  0  0  0  0  0  0  0
   -0.3355    1.5638   -6.9780 H   0  0  0  0  0  0  0  0  0  0  0  0
   -4.2041   -1.4071   -2.1197 H   0  0  0  0  0  0  0  0  0  0  0  0
    0.0276    0.5808    1.8650 H   0  0  0  0  0  0  0  0  0  0  0  0
  1  2  2  0
  1  3  1  0
  1 25  1  0
  3  4  2  0
  3 19  1  0
  4  5  1  0
  4 26  1  0
  5  6  1  6
  5  7  1  0
  5 24  1  0
  7  8  1  6
  7  9  1  0
  7 20  1  0
  9 10  1  6
  9 11  1  0
  9 19  1  0
 11 12  1  1
 11 13  1  0
 11 18  1  0
 13 14  1  1
 13 15  1  0
 13 17  1  0
 15 16  1  0
 15 27  1  0
 15 28  1  0
 16 29  1  0
 17 30  1  0
 18 31  1  0
 20 21  1  0
 20 32  1  0
 21 22  2  0
 21 23  1  0
 23 33  1  0
 23 34  1  0
 23 35  1  0
 24 36  1  0
 25 37  1  0
M  END

