37
rmsd29.gzmat
C          0.00000        0.00000        0.00000
O          1.20080        0.00000        0.00000
C         -0.89590        0.00000       -1.18590
C         -0.56480        0.54580       -2.36190
C         -1.50860        0.50930       -3.51910
H         -1.00010        0.12910       -4.43980
C         -2.80100       -0.31800       -3.23880
H         -3.64710        0.14220       -3.83240
C         -3.17030       -0.26810       -1.74360
H         -3.90470       -1.06140       -1.46380
C         -3.63860        1.13280       -1.30550
H         -2.93240        1.91730       -1.67040
C         -5.08560        1.43490       -1.75940
H         -5.77860        0.59500       -1.53270
C         -5.57990        2.75270       -1.14010
O         -4.64190        3.78090       -1.37830
O         -5.11950        1.51960       -3.16210
O         -3.68520        1.22220        0.10260
O         -2.06180       -0.64570       -0.92220
N         -2.58270       -1.69850       -3.63910
C         -3.07250       -2.27060       -4.80830
O         -2.75110       -3.41760       -5.04230
C         -3.96840       -1.46480       -5.69710
O         -2.00110        1.80950       -3.80250
O         -0.72100        0.05540        1.14490
H          0.39760        1.02580       -2.52880
H         -5.76310        2.64850       -0.05540
H         -6.49350        3.11470       -1.64950
H         -3.87240        3.66840       -0.77920
H         -4.57530        2.28380       -3.47150
H         -2.92630        0.73780        0.50800
H         -1.97890       -2.25370       -3.04120
H         -4.93200       -1.24500       -5.21180
H         -4.19480       -2.02880       -6.61770
H         -3.51720       -0.51170       -6.00380
H         -1.27160        2.45650       -3.87960
H         -0.15990        0.07930        1.96460
