
     RDKit          3D

 37 37  0  0  0  0  0  0  0  0999 V2000
   -0.2042    0.0921    0.0194 C   0  0  0  0  0  0  0  0  0  0  0  0
    0.9143    0.5224    0.1477 O   0  0  0  0  0  0  0  0  0  0  0  0
   -0.9491    0.1143   -1.2783 C   0  0  0  0  0  0  0  0  0  0  0  0
   -1.9843   -0.6970   -1.5650 C   0  0  0  0  0  0  0  0  0  0  0  0
   -2.6136   -0.7165   -2.9282 C   0  0  1  0  0  0  0  0  0  0  0  0
   -3.7105   -0.6336   -2.8240 H   0  0  0  0  0  0  0  0  0  0  0  0
   -2.1386    0.4923   -3.7651 C   0  0  2  0  0  0  0  0  0  0  0  0
   -2.2825    0.2495   -4.8229 H   0  0  0  0  0  0  0  0  0  0  0  0
   -0.6444    0.7515   -3.5470 C   0  0  2  0  0  0  0  0  0  0  0  0
   -0.3640    1.6943   -4.0365 H   0  0  0  0  0  0  0  0  0  0  0  0
    0.3304   -0.3457   -3.9819 C   0  0  1  0  0  0  0  0  0  0  0  0
    0.0367   -1.2940   -3.5000 H   0  0  0  0  0  0  0  0  0  0  0  0
    0.3505   -0.6103   -5.4935 C   0  0  1  0  0  0  0  0  0  0  0  0
    0.5177    0.3431   -6.0258 H   0  0  0  0  0  0  0  0  0  0  0  0
    1.5179   -1.5500   -5.8370 C   0  0  0  0  0  0  0  0  0  0  0  0
    1.6455   -2.6222   -4.9240 O   0  0  0  0  0  0  0  0  0  0  0  0
   -0.8948   -1.1078   -5.9413 O   0  0  0  0  0  0  0  0  0  0  0  0
    1.6443    0.0094   -3.5874 O   0  0  0  0  0  0  0  0  0  0  0  0
   -0.3981    0.9957   -2.1428 O   0  0  0  0  0  0  0  0  0  0  0  0
   -2.8785    1.6867   -3.4216 N   0  0  0  0  0  0  0  0  0  0  0  0
   -4.0295    2.1533   -4.0141 C   0  0  0  0  0  0  0  0  0  0  0  0
   -4.6128    3.1237   -3.5695 O   0  0  0  0  0  0  0  0  0  0  0  0
   -4.5065    1.4043   -5.2471 C   0  0  0  0  0  0  0  0  0  0  0  0
   -2.3027   -1.9169   -3.6464 O   0  0  0  0  0  0  0  0  0  0  0  0
   -0.9004   -0.4933    1.0078 O   0  0  0  0  0  0  0  0  0  0  0  0
   -2.3551   -1.3632   -0.7845 H   0  0  0  0  0  0  0  0  0  0  0  0
    2.4511   -0.9633   -5.9014 H   0  0  0  0  0  0  0  0  0  0  0  0
    1.3116   -1.9803   -6.8291 H   0  0  0  0  0  0  0  0  0  0  0  0
    2.0777   -2.2532   -4.1406 H   0  0  0  0  0  0  0  0  0  0  0  0
   -1.2322   -1.7456   -5.2892 H   0  0  0  0  0  0  0  0  0  0  0  0
    1.5955    0.3531   -2.6812 H   0  0  0  0  0  0  0  0  0  0  0  0
   -2.6010    2.1978   -2.5881 H   0  0  0  0  0  0  0  0  0  0  0  0
   -3.7568    1.4447   -6.0533 H   0  0  0  0  0  0  0  0  0  0  0  0
   -5.4330    1.8783   -5.5910 H   0  0  0  0  0  0  0  0  0  0  0  0
   -4.6989    0.3414   -5.0323 H   0  0  0  0  0  0  0  0  0  0  0  0
   -2.3079   -2.6667   -3.0365 H   0  0  0  0  0  0  0  0  0  0  0  0
   -0.3220   -0.5096    1.7895 H   0  0  0  0  0  0  0  0  0  0  0  0
  1  2  2  0
  1  3  1  0
  1 25  1  0
  3  4  2  0
  3 19  1  0
  4  5  1  0
  4 26  1  0
  5  6  1  1
  5  7  1  0
  5 24  1  0
  7  8  1  6
  7  9  1  0
  7 20  1  0
  9 10  1  6
  9 11  1  0
  9 19  1  0
 11 12  1  1
 11 13  1  0
 11 18  1  0
 13 14  1  6
 13 15  1  0
 13 17  1  0
 15 16  1  0
 15 27  1  0
 15 28  1  0
 16 29  1  0
 17 30  1  0
 18 31  1  0
 20 21  1  0
 20 32  1  0
 21 22  2  0
 21 23  1  0
 23 33  1  0
 23 34  1  0
 23 35  1  0
 24 36  1  0
 25 37  1  0
M  END

