rmsd40.gzmat
 OpenBabel08211713423D

 37 37  0  0  1  0  0  0  0  0999 V2000
    0.0000    0.0000    0.0000 C   0  0  0  0  0  0  0  0  0  0  0  0
    1.2009    0.0000    0.0000 O   0  0  0  0  0  0  0  0  0  0  0  0
   -0.8938    0.0000   -1.1879 C   0  0  0  0  0  0  0  0  0  0  0  0
   -0.5601    0.5441   -2.3641 C   0  0  0  0  0  0  0  0  0  0  0  0
   -1.4884    0.4773   -3.5332 C   0  0  1  0  0  0  0  0  0  0  0  0
   -0.9606    0.1037   -4.4454 H   0  0  0  0  0  0  0  0  0  0  0  0
   -2.7614   -0.3821   -3.2581 C   0  0  2  0  0  0  0  0  0  0  0  0
   -3.6092    0.0333   -3.8800 H   0  0  0  0  0  0  0  0  0  0  0  0
   -3.1583   -0.3045   -1.7708 C   0  0  2  0  0  0  0  0  0  0  0  0
   -3.8868   -1.1017   -1.4872 H   0  0  0  0  0  0  0  0  0  0  0  0
   -3.6528    1.0975   -1.3718 C   0  0  1  0  0  0  0  0  0  0  0  0
   -2.9621    1.8869   -1.7576 H   0  0  0  0  0  0  0  0  0  0  0  0
   -5.1041    1.3615   -1.8363 C   0  0  1  0  0  0  0  0  0  0  0  0
   -5.7855    0.5171   -1.5908 H   0  0  0  0  0  0  0  0  0  0  0  0
   -5.6172    2.6881   -1.2510 C   0  0  0  0  0  0  0  0  0  0  0  0
   -4.6558    3.7067   -1.4264 O   0  0  0  0  0  0  0  0  0  0  0  0
   -5.1383    1.4034   -3.2412 O   0  0  0  0  0  0  0  0  0  0  0  0
   -3.6991    1.2280    0.0334 O   0  0  0  0  0  0  0  0  0  0  0  0
   -2.0568   -0.6527   -0.9267 O   0  0  0  0  0  0  0  0  0  0  0  0
   -2.4925   -1.7671   -3.6090 N   0  0  0  0  0  0  0  0  0  0  0  0
   -2.9572   -2.4013   -4.7554 C   0  0  0  0  0  0  0  0  0  0  0  0
   -2.6411   -3.5626   -4.9143 O   0  0  0  0  0  0  0  0  0  0  0  0
   -3.8119   -1.6391   -5.7203 C   0  0  0  0  0  0  0  0  0  0  0  0
   -2.0115    1.7619   -3.8319 O   0  0  0  0  0  0  0  0  0  0  0  0
   -0.7209    0.0454    1.1448 O   0  0  0  0  0  0  0  0  0  0  0  0
    0.3953    1.0413   -2.5208 H   0  0  0  0  0  0  0  0  0  0  0  0
   -5.8674    2.5865   -0.1793 H   0  0  0  0  0  0  0  0  0  0  0  0
   -6.4923    3.0633   -1.8155 H   0  0  0  0  0  0  0  0  0  0  0  0
   -3.9095    3.5645   -0.8035 H   0  0  0  0  0  0  0  0  0  0  0  0
   -4.5947    2.1557   -3.5765 H   0  0  0  0  0  0  0  0  0  0  0  0
   -2.9413    0.7533    0.4524 H   0  0  0  0  0  0  0  0  0  0  0  0
   -1.9183   -2.2951   -2.9587 H   0  0  0  0  0  0  0  0  0  0  0  0
   -4.7990   -1.4059   -5.2927 H   0  0  0  0  0  0  0  0  0  0  0  0
   -3.9901   -2.2472   -6.6236 H   0  0  0  0  0  0  0  0  0  0  0  0
   -3.3528   -0.6974   -6.0486 H   0  0  0  0  0  0  0  0  0  0  0  0
   -1.2967    2.4218   -3.9337 H   0  0  0  0  0  0  0  0  0  0  0  0
   -0.1595    0.0548    1.9650 H   0  0  0  0  0  0  0  0  0  0  0  0
  1  2  2  0  0  0  0
  1 25  1  0  0  0  0
  3 19  1  0  0  0  0
  3  1  1  0  0  0  0
  4  3  2  0  0  0  0
  5  7  1  0  0  0  0
  5  4  1  0  0  0  0
  5  6  1  6  0  0  0
  7  9  1  0  0  0  0
  7  8  1  6  0  0  0
  9 10  1  1  0  0  0
  9 11  1  0  0  0  0
  9 19  1  0  0  0  0
 11 12  1  6  0  0  0
 11 18  1  0  0  0  0
 13 14  1  1  0  0  0
 13 11  1  0  0  0  0
 13 15  1  0  0  0  0
 15 27  1  0  0  0  0
 16 15  1  0  0  0  0
 16 29  1  0  0  0  0
 17 13  1  0  0  0  0
 18 31  1  0  0  0  0
 20  7  1  0  0  0  0
 20 32  1  0  0  0  0
 21 20  1  0  0  0  0
 22 21  2  0  0  0  0
 23 33  1  0  0  0  0
 23 21  1  0  0  0  0
 24  5  1  0  0  0  0
 25 37  1  0  0  0  0
 26  4  1  0  0  0  0
 28 15  1  0  0  0  0
 30 17  1  0  0  0  0
 34 23  1  0  0  0  0
 35 23  1  0  0  0  0
 36 24  1  0  0  0  0
M  END
$$$$
