19
rmsd23.gzmat
C          0.00000        0.00000        0.00000
C          1.36260        0.00000        0.00000
C          1.94040        0.00000        1.32440
C          0.98510       -0.00110        2.32060
S         -0.61780        0.00980        1.60680
C          1.14010        0.03010        3.75040
O          2.14600       -0.07480        4.41540
O         -0.05640        0.18050        4.38510
O          3.27860       -0.03070        1.29730
C          4.03650        0.05160        2.49200
C          3.90310        1.41830        3.11050
O          3.03870        2.23290        2.93910
O          4.96590        1.65400        3.91900
Br         2.42560        0.01420       -1.53560
H         -0.64700       -0.00200       -0.86640
H          0.03650        0.22750        5.37050
H          5.06560       -0.13350        2.10500
H          3.77100       -0.75610        3.20790
H          4.90650        2.51630        4.40330
