19
rmsd192.gzmat
C          0.00000        0.00000        0.00000
C          1.36260        0.00000        0.00000
C          1.93950        0.00000        1.32430
C          0.98490       -0.02000        2.32130
S         -0.61720       -0.00340        1.60710
C          1.13950       -0.02270        3.75150
O          2.15000       -0.08400        4.41460
O         -0.06220        0.02920        4.39310
O          3.27890       -0.02380        1.29870
C          4.03210        0.19440        2.47910
C          3.78770        1.58010        3.01390
O          2.84030        2.29200        2.82330
O          4.84250        1.96980        3.77050
Br         2.42710        0.01040       -1.53500
H         -0.64810        0.00620       -0.86540
H          0.03310        0.04280        5.37990
H          5.07210        0.06740        2.09930
H          3.83060       -0.58700        3.24370
H          4.71200        2.85280        4.20090
