rmsd169.gzmat
 OpenBabel08211713433D

 19 19  0  0  0  0  0  0  0  0999 V2000
    0.0000    0.0000    0.0000 C   0  0  0  0  0  0  0  0  0  0  0  0
    1.3625    0.0000    0.0000 C   0  0  0  0  0  0  0  0  0  0  0  0
    1.9400    0.0000    1.3244 C   0  0  0  0  0  0  0  0  0  0  0  0
    0.9847   -0.0124    2.3203 C   0  0  0  0  0  0  0  0  0  0  0  0
   -0.6175    0.0039    1.6070 S   0  0  0  0  0  0  0  0  0  0  0  0
    1.1412   -0.0060    3.7502 C   0  0  0  0  0  0  0  0  0  0  0  0
    2.1453   -0.1446    4.4115 O   0  0  0  0  0  0  0  0  0  0  0  0
   -0.0500    0.1580    4.3908 O   0  0  0  0  0  0  0  0  0  0  0  0
    3.2790   -0.0205    1.2975 O   0  0  0  0  0  0  0  0  0  0  0  0
    4.0366    0.1202    2.4870 C   0  0  0  0  0  0  0  0  0  0  0  0
    3.8417    1.4891    3.0819 C   0  0  0  0  0  0  0  0  0  0  0  0
    2.9353    2.2549    2.9014 O   0  0  0  0  0  0  0  0  0  0  0  0
    4.8923    1.7914    3.8832 O   0  0  0  0  0  0  0  0  0  0  0  0
    2.4274    0.0118   -1.5344 Br  0  0  0  0  0  0  0  0  0  0  0  0
   -0.6478    0.0021   -0.8656 H   0  0  0  0  0  0  0  0  0  0  0  0
    0.0467    0.1790    5.3772 H   0  0  0  0  0  0  0  0  0  0  0  0
    5.0721   -0.0249    2.1001 H   0  0  0  0  0  0  0  0  0  0  0  0
    3.8101   -0.6862    3.2180 H   0  0  0  0  0  0  0  0  0  0  0  0
    4.7920    2.6589    4.3517 H   0  0  0  0  0  0  0  0  0  0  0  0
  1  5  1  0  0  0  0
  2  1  2  0  0  0  0
  2  3  1  0  0  0  0
  3  4  2  0  0  0  0
  4  6  1  0  0  0  0
  5  4  1  0  0  0  0
  6  8  1  0  0  0  0
  6  7  2  0  0  0  0
  8 16  1  0  0  0  0
  9  3  1  0  0  0  0
  9 10  1  0  0  0  0
 10 11  1  0  0  0  0
 10 18  1  0  0  0  0
 11 13  1  0  0  0  0
 12 11  2  0  0  0  0
 13 19  1  0  0  0  0
 14  2  1  0  0  0  0
 15  1  1  0  0  0  0
 17 10  1  0  0  0  0
M  END
$$$$
