rmsd232.gzmat
 OpenBabel08211713433D

 19 19  0  0  0  0  0  0  0  0999 V2000
    0.0000    0.0000    0.0000 C   0  0  0  0  0  0  0  0  0  0  0  0
    1.3625    0.0000    0.0000 C   0  0  0  0  0  0  0  0  0  0  0  0
    1.9393    0.0000    1.3248 C   0  0  0  0  0  0  0  0  0  0  0  0
    0.9850    0.0309    2.3204 C   0  0  0  0  0  0  0  0  0  0  0  0
   -0.6169    0.0070    1.6078 S   0  0  0  0  0  0  0  0  0  0  0  0
    1.1428    0.0541    3.7507 C   0  0  0  0  0  0  0  0  0  0  0  0
    2.1397    0.2576    4.4069 O   0  0  0  0  0  0  0  0  0  0  0  0
   -0.0391   -0.1551    4.3940 O   0  0  0  0  0  0  0  0  0  0  0  0
    3.2781   -0.0214    1.2998 O   0  0  0  0  0  0  0  0  0  0  0  0
    4.0315   -0.0828    2.4981 C   0  0  0  0  0  0  0  0  0  0  0  0
    3.8264   -1.3990    3.2001 C   0  0  0  0  0  0  0  0  0  0  0  0
    2.9018   -2.1592    3.1124 O   0  0  0  0  0  0  0  0  0  0  0  0
    4.8973   -1.6593    3.9900 O   0  0  0  0  0  0  0  0  0  0  0  0
    2.4267   -0.0005   -1.5351 Br  0  0  0  0  0  0  0  0  0  0  0  0
   -0.6477   -0.0060   -0.8657 H   0  0  0  0  0  0  0  0  0  0  0  0
    0.0588   -0.1599    5.3804 H   0  0  0  0  0  0  0  0  0  0  0  0
    3.8123    0.7779    3.1672 H   0  0  0  0  0  0  0  0  0  0  0  0
    5.0682    0.0228    2.1010 H   0  0  0  0  0  0  0  0  0  0  0  0
    4.7932   -2.4813    4.5334 H   0  0  0  0  0  0  0  0  0  0  0  0
  1  5  1  0  0  0  0
  2  1  2  0  0  0  0
  2  3  1  0  0  0  0
  3  4  2  0  0  0  0
  4  6  1  0  0  0  0
  5  4  1  0  0  0  0
  6  8  1  0  0  0  0
  6  7  2  0  0  0  0
  8 16  1  0  0  0  0
  9  3  1  0  0  0  0
  9 10  1  0  0  0  0
 10 17  1  0  0  0  0
 10 11  1  0  0  0  0
 11 13  1  0  0  0  0
 12 11  2  0  0  0  0
 13 19  1  0  0  0  0
 14  2  1  0  0  0  0
 15  1  1  0  0  0  0
 18 10  1  0  0  0  0
M  END
$$$$
