rmsd243.gzmat
 OpenBabel08211713433D

 19 19  0  0  0  0  0  0  0  0999 V2000
    0.0000    0.0000    0.0000 C   0  0  0  0  0  0  0  0  0  0  0  0
    1.3624    0.0000    0.0000 C   0  0  0  0  0  0  0  0  0  0  0  0
    1.9392    0.0000    1.3246 C   0  0  0  0  0  0  0  0  0  0  0  0
    0.9849    0.0115    2.3211 C   0  0  0  0  0  0  0  0  0  0  0  0
   -0.6169   -0.0031    1.6078 S   0  0  0  0  0  0  0  0  0  0  0  0
    1.1436   -0.0025    3.7513 C   0  0  0  0  0  0  0  0  0  0  0  0
    2.1458    0.1521    4.4122 O   0  0  0  0  0  0  0  0  0  0  0  0
   -0.0429   -0.1955    4.3923 O   0  0  0  0  0  0  0  0  0  0  0  0
    3.2783    0.0173    1.2977 O   0  0  0  0  0  0  0  0  0  0  0  0
    4.0345   -0.1333    2.4861 C   0  0  0  0  0  0  0  0  0  0  0  0
    3.8327   -1.5043    3.0746 C   0  0  0  0  0  0  0  0  0  0  0  0
    2.8936   -2.2399    2.9448 O   0  0  0  0  0  0  0  0  0  0  0  0
    4.9215   -1.8497    3.8042 O   0  0  0  0  0  0  0  0  0  0  0  0
    2.4316   -0.0168   -1.5315 Br  0  0  0  0  0  0  0  0  0  0  0  0
   -0.6486   -0.0041   -0.8651 H   0  0  0  0  0  0  0  0  0  0  0  0
    0.0572   -0.2287    5.3779 H   0  0  0  0  0  0  0  0  0  0  0  0
    3.8110    0.6698    3.2225 H   0  0  0  0  0  0  0  0  0  0  0  0
    5.0700    0.0104    2.0985 H   0  0  0  0  0  0  0  0  0  0  0  0
    4.8283   -2.7237    4.2618 H   0  0  0  0  0  0  0  0  0  0  0  0
  1  5  1  0  0  0  0
  2  1  2  0  0  0  0
  2  3  1  0  0  0  0
  3  4  2  0  0  0  0
  4  6  1  0  0  0  0
  5  4  1  0  0  0  0
  6  8  1  0  0  0  0
  6  7  2  0  0  0  0
  8 16  1  0  0  0  0
  9  3  1  0  0  0  0
  9 10  1  0  0  0  0
 10 11  1  0  0  0  0
 10 17  1  0  0  0  0
 11 13  1  0  0  0  0
 12 11  2  0  0  0  0
 13 19  1  0  0  0  0
 14  2  1  0  0  0  0
 15  1  1  0  0  0  0
 18 10  1  0  0  0  0
M  END
$$$$
