19
rmsd169.gzmat
C          0.00000        0.00000        0.00000
C          1.36250        0.00000        0.00000
C          1.94000        0.00000        1.32440
C          0.98470       -0.01240        2.32030
S         -0.61750        0.00390        1.60700
C          1.14120       -0.00600        3.75020
O          2.14530       -0.14460        4.41150
O         -0.05000        0.15800        4.39080
O          3.27900       -0.02050        1.29750
C          4.03660        0.12020        2.48700
C          3.84170        1.48910        3.08190
O          2.93530        2.25490        2.90140
O          4.89230        1.79140        3.88320
Br         2.42740        0.01180       -1.53440
H         -0.64780        0.00210       -0.86560
H          0.04670        0.17900        5.37720
H          5.07210       -0.02490        2.10010
H          3.81010       -0.68620        3.21800
H          4.79200        2.65890        4.35170
