
     RDKit          3D

 19 19  0  0  0  0  0  0  0  0999 V2000
    0.1235    0.4436    0.1630 C   0  0  0  0  0  0  0  0  0  0  0  0
    1.4654    0.1748    0.2184 C   0  0  0  0  0  0  0  0  0  0  0  0
    1.9290   -0.1434    1.5375 C   0  0  0  0  0  0  0  0  0  0  0  0
    0.8888   -0.1204    2.4665 C   0  0  0  0  0  0  0  0  0  0  0  0
   -0.6272    0.3189    1.7059 S   0  0  0  0  0  0  0  0  0  0  0  0
    0.9025   -0.5029    3.8767 C   0  0  0  0  0  0  0  0  0  0  0  0
    1.8682   -0.8755    4.5127 O   0  0  0  0  0  0  0  0  0  0  0  0
   -0.3222   -0.4058    4.4385 O   0  0  0  0  0  0  0  0  0  0  0  0
    3.2205   -0.4666    1.7163 O   0  0  0  0  0  0  0  0  0  0  0  0
    3.9906    0.1476    2.7290 C   0  0  0  0  0  0  0  0  0  0  0  0
    4.0737    1.6498    2.5402 C   0  0  0  0  0  0  0  0  0  0  0  0
    3.4478    2.2928    1.7398 O   0  0  0  0  0  0  0  0  0  0  0  0
    4.9419    2.1840    3.4179 O   0  0  0  0  0  0  0  0  0  0  0  0
    2.6263    0.2476   -1.2605 Br  0  0  0  0  0  0  0  0  0  0  0  0
   -0.4504    0.7325   -0.7151 H   0  0  0  0  0  0  0  0  0  0  0  0
   -0.2278   -0.6912    5.3623 H   0  0  0  0  0  0  0  0  0  0  0  0
    5.0002   -0.2794    2.6518 H   0  0  0  0  0  0  0  0  0  0  0  0
    3.5968   -0.0772    3.7326 H   0  0  0  0  0  0  0  0  0  0  0  0
    4.9440    3.1453    3.2688 H   0  0  0  0  0  0  0  0  0  0  0  0
  1  2  2  0
  1  5  1  0
  1 15  1  0
  2  3  1  0
  2 14  1  0
  3  4  2  0
  3  9  1  0
  4  5  1  0
  4  6  1  0
  6  7  2  0
  6  8  1  0
  8 16  1  0
  9 10  1  0
 10 11  1  0
 10 17  1  0
 10 18  1  0
 11 12  2  0
 11 13  1  0
 13 19  1  0
M  END

