rmsd103.gzmat
 OpenBabel08211713433D

 19 19  0  0  0  0  0  0  0  0999 V2000
    0.0000    0.0000    0.0000 C   0  0  0  0  0  0  0  0  0  0  0  0
    1.3626    0.0000    0.0000 C   0  0  0  0  0  0  0  0  0  0  0  0
    1.9401    0.0000    1.3244 C   0  0  0  0  0  0  0  0  0  0  0  0
    0.9859    0.0078    2.3208 C   0  0  0  0  0  0  0  0  0  0  0  0
   -0.6166   -0.0079    1.6080 S   0  0  0  0  0  0  0  0  0  0  0  0
    1.1468   -0.0109    3.7511 C   0  0  0  0  0  0  0  0  0  0  0  0
    2.1435    0.1797    4.4115 O   0  0  0  0  0  0  0  0  0  0  0  0
   -0.0300   -0.2573    4.3914 O   0  0  0  0  0  0  0  0  0  0  0  0
    3.2791    0.0158    1.2966 O   0  0  0  0  0  0  0  0  0  0  0  0
    4.0381   -0.1021    2.4872 C   0  0  0  0  0  0  0  0  0  0  0  0
    3.8540   -1.4636    3.1029 C   0  0  0  0  0  0  0  0  0  0  0  0
    2.9178   -2.2071    2.9973 O   0  0  0  0  0  0  0  0  0  0  0  0
    4.9545   -1.7893    3.8239 O   0  0  0  0  0  0  0  0  0  0  0  0
    2.4289   -0.0163   -1.5335 Br  0  0  0  0  0  0  0  0  0  0  0  0
   -0.6473   -0.0017   -0.8659 H   0  0  0  0  0  0  0  0  0  0  0  0
    0.0744   -0.3010    5.3764 H   0  0  0  0  0  0  0  0  0  0  0  0
    3.8055    0.7115    3.2092 H   0  0  0  0  0  0  0  0  0  0  0  0
    5.0710    0.0461    2.0941 H   0  0  0  0  0  0  0  0  0  0  0  0
    4.8724   -2.6561    4.2964 H   0  0  0  0  0  0  0  0  0  0  0  0
  1  5  1  0  0  0  0
  2  1  2  0  0  0  0
  2  3  1  0  0  0  0
  3  4  2  0  0  0  0
  4  6  1  0  0  0  0
  5  4  1  0  0  0  0
  6  8  1  0  0  0  0
  6  7  2  0  0  0  0
  8 16  1  0  0  0  0
  9  3  1  0  0  0  0
  9 10  1  0  0  0  0
 10 11  1  0  0  0  0
 10 17  1  0  0  0  0
 11 13  1  0  0  0  0
 12 11  2  0  0  0  0
 13 19  1  0  0  0  0
 14  2  1  0  0  0  0
 15  1  1  0  0  0  0
 18 10  1  0  0  0  0
M  END
$$$$
