19
rmsd191.gzmat
C          0.00000        0.00000        0.00000
C          1.36250        0.00000        0.00000
C          1.93950        0.00000        1.32450
C          0.98480       -0.00400        2.32140
S         -0.61710        0.00480        1.60760
C          1.14370        0.02910        3.75060
O          2.15600       -0.02790        4.41160
O         -0.05450        0.12110        4.39270
O          3.27770       -0.03870        1.29880
C          4.03640        0.12580        2.48440
C          3.84120        1.50720        3.05040
O          2.93620        2.26940        2.84940
O          4.89180        1.82680        3.84470
Br         2.43000        0.01900       -1.53240
H         -0.64790        0.00230       -0.86570
H          0.04370        0.17170        5.37780
H          5.07060       -0.02760        2.09850
H          3.81090       -0.66500        3.23190
H          4.79150        2.70410        4.29400
