19
rmsd139.gzmat
C          0.00000        0.00000        0.00000
C          1.36250        0.00000        0.00000
C          1.93980        0.00000        1.32460
C          0.98460        0.01180        2.32070
S         -0.61730       -0.00220        1.60720
C          1.14040       -0.00270        3.75060
O          2.14850        0.09220        4.41370
O         -0.05760       -0.12220        4.38930
O          3.27840        0.02290        1.29960
C          4.03580       -0.14070        2.48630
C          3.82440       -1.51380        3.06590
O          2.91360       -2.27000        2.86840
O          4.86770       -1.83490        3.86940
Br         2.42760       -0.01710       -1.53410
H         -0.64820       -0.00380       -0.86520
H          0.03740       -0.15150        5.37540
H          3.82080        0.66040        3.22620
H          5.07170       -0.00550        2.09730
H          4.75780       -2.70740        4.32520
