36

O          0.14790        0.15650        0.14930
C          1.51500       -0.16960        0.13150
C          2.08980       -0.62640        1.46890
O          1.52200       -1.82510        1.98340
C          0.22770       -1.73080        2.49470
N          0.16810       -0.99790        3.76800
C         -0.21500        0.33810        3.77250
O         -0.50880        0.96650        2.76580
N         -0.23370        0.91340        5.02390
H         -0.52400        1.88790        5.05100
C          0.14490        0.34420        6.25230
O          0.09160        0.99220        7.27910
C          0.59500       -1.04650        6.14450
C          0.58490       -1.63250        4.92440
C          1.03730       -1.72530        7.41860
C          1.45420       -3.16250        7.23320
C          0.51390       -4.19880        7.33070
C          0.88640       -5.52670        7.10770
C          2.20900       -5.83800        6.77980
C          3.15490       -4.81400        6.67870
C          2.77810       -3.48750        6.90330
H         -0.05270        0.67800        0.94820
H          2.14260        0.68180       -0.21310
H          1.64430       -0.98020       -0.60540
H          2.01330        0.18780        2.21400
H          3.16160       -0.84150        1.33720
H         -0.09870       -2.75980        2.69570
H         -0.46320       -1.24230        1.79880
H          0.91780       -2.66180        4.78430
H          0.21470       -1.65000        8.14890
H          1.86150       -1.13550        7.85360
H         -0.52190       -3.95930        7.58660
H          0.14180       -6.32180        7.19340
H          2.50250       -6.87600        6.60670
H          4.19160       -5.04910        6.42610
H          3.52100       -2.68930        6.82190
