rmsd164.gzmat
 OpenBabel08211713373D

 36 37  0  0  0  0  0  0  0  0999 V2000
    0.0000    0.0000    0.0000 O   0  0  0  0  0  0  0  0  0  0  0  0
    1.4122    0.0000    0.0000 C   0  0  0  0  0  0  0  0  0  0  0  0
    1.9386    0.0000    1.4354 C   0  0  0  0  0  0  0  0  0  0  0  0
    2.1721   -1.3096    1.9181 O   0  0  0  0  0  0  0  0  0  0  0  0
    1.0699   -2.1624    2.0483 C   0  0  0  0  0  0  0  0  0  0  0  0
    0.2269   -1.7461    3.1831 N   0  0  0  0  0  0  0  0  0  0  0  0
    0.6522   -2.0907    4.4897 C   0  0  0  0  0  0  0  0  0  0  0  0
    1.4708   -2.9609    4.6825 O   0  0  0  0  0  0  0  0  0  0  0  0
    0.0383   -1.4073    5.5443 N   0  0  0  0  0  0  0  0  0  0  0  0
    0.3244   -1.6582    6.4945 H   0  0  0  0  0  0  0  0  0  0  0  0
   -0.9274   -0.3783    5.3815 C   0  0  0  0  0  0  0  0  0  0  0  0
   -1.3397    0.1584    6.3832 O   0  0  0  0  0  0  0  0  0  0  0  0
   -1.3063   -0.0939    4.0038 C   0  0  0  0  0  0  0  0  0  0  0  0
   -0.7375   -0.7737    2.9760 C   0  0  0  0  0  0  0  0  0  0  0  0
   -2.3102    0.9848    3.7677 C   0  0  0  0  0  0  0  0  0  0  0  0
   -1.8604    1.8649    2.6376 C   0  0  0  0  0  0  0  0  0  0  0  0
   -2.5366    1.8549    1.4168 C   0  0  0  0  0  0  0  0  0  0  0  0
   -2.0784    2.6378    0.3582 C   0  0  0  0  0  0  0  0  0  0  0  0
   -0.9399    3.4264    0.5128 C   0  0  0  0  0  0  0  0  0  0  0  0
   -0.2713    3.4482    1.7370 C   0  0  0  0  0  0  0  0  0  0  0  0
   -0.7312    2.6734    2.7975 C   0  0  0  0  0  0  0  0  0  0  0  0
   -0.3555    0.8975    0.1904 H   0  0  0  0  0  0  0  0  0  0  0  0
    1.7881    0.8583   -0.5817 H   0  0  0  0  0  0  0  0  0  0  0  0
    1.6685   -0.9370   -0.5340 H   0  0  0  0  0  0  0  0  0  0  0  0
    1.2687    0.5504    2.1200 H   0  0  0  0  0  0  0  0  0  0  0  0
    2.9563    0.4345    1.5077 H   0  0  0  0  0  0  0  0  0  0  0  0
    1.5609   -3.1427    2.2734 H   0  0  0  0  0  0  0  0  0  0  0  0
    0.4577   -2.1994    1.1212 H   0  0  0  0  0  0  0  0  0  0  0  0
   -1.0184   -0.5924    1.9232 H   0  0  0  0  0  0  0  0  0  0  0  0
   -2.4557    1.5944    4.6947 H   0  0  0  0  0  0  0  0  0  0  0  0
   -3.3123    0.5425    3.5725 H   0  0  0  0  0  0  0  0  0  0  0  0
   -3.4268    1.2412    1.2886 H   0  0  0  0  0  0  0  0  0  0  0  0
   -2.6156    2.6358   -0.5889 H   0  0  0  0  0  0  0  0  0  0  0  0
   -0.5838    4.0369   -0.3140 H   0  0  0  0  0  0  0  0  0  0  0  0
    0.6065    4.0799    1.8658 H   0  0  0  0  0  0  0  0  0  0  0  0
   -0.2154    2.6970    3.7577 H   0  0  0  0  0  0  0  0  0  0  0  0
  1 22  1  0  0  0  0
  2  1  1  0  0  0  0
  2  3  1  0  0  0  0
  3 26  1  0  0  0  0
  3  4  1  0  0  0  0
  3 25  1  0  0  0  0
  4  5  1  0  0  0  0
  5 27  1  0  0  0  0
  5  6  1  0  0  0  0
  6  7  1  0  0  0  0
  7  8  2  0  0  0  0
  7  9  1  0  0  0  0
  9 10  1  0  0  0  0
 11  9  1  0  0  0  0
 11 12  2  0  0  0  0
 13 11  1  0  0  0  0
 14  6  1  0  0  0  0
 14 13  2  0  0  0  0
 15 13  1  0  0  0  0
 15 30  1  0  0  0  0
 16 21  1  0  0  0  0
 16 15  1  0  0  0  0
 17 16  2  0  0  0  0
 18 19  2  0  0  0  0
 18 17  1  0  0  0  0
 19 20  1  0  0  0  0
 20 35  1  0  0  0  0
 20 21  2  0  0  0  0
 21 36  1  0  0  0  0
 23  2  1  0  0  0  0
 24  2  1  0  0  0  0
 28  5  1  0  0  0  0
 29 14  1  0  0  0  0
 31 15  1  0  0  0  0
 32 17  1  0  0  0  0
 33 18  1  0  0  0  0
 34 19  1  0  0  0  0
M  END
$$$$
