rmsd210.gzmat
 OpenBabel08211713373D

 36 37  0  0  0  0  0  0  0  0999 V2000
    0.0000    0.0000    0.0000 O   0  0  0  0  0  0  0  0  0  0  0  0
    1.4121    0.0000    0.0000 C   0  0  0  0  0  0  0  0  0  0  0  0
    1.9380    0.0000    1.4355 C   0  0  0  0  0  0  0  0  0  0  0  0
    2.1479   -1.3115    1.9239 O   0  0  0  0  0  0  0  0  0  0  0  0
    1.0278   -2.1385    2.0694 C   0  0  0  0  0  0  0  0  0  0  0  0
    0.1982   -1.6889    3.2014 N   0  0  0  0  0  0  0  0  0  0  0  0
    0.6314   -2.0092    4.5116 C   0  0  0  0  0  0  0  0  0  0  0  0
    1.4439   -2.8820    4.7168 O   0  0  0  0  0  0  0  0  0  0  0  0
    0.0333   -1.2964    5.5560 N   0  0  0  0  0  0  0  0  0  0  0  0
    0.3262   -1.5284    6.5088 H   0  0  0  0  0  0  0  0  0  0  0  0
   -0.9298   -0.2678    5.3791 C   0  0  0  0  0  0  0  0  0  0  0  0
   -1.3298    0.2939    6.3722 O   0  0  0  0  0  0  0  0  0  0  0  0
   -1.3225   -0.0141    3.9990 C   0  0  0  0  0  0  0  0  0  0  0  0
   -0.7634   -0.7164    2.9812 C   0  0  0  0  0  0  0  0  0  0  0  0
   -2.3347    1.0546    3.7533 C   0  0  0  0  0  0  0  0  0  0  0  0
   -1.9107    1.9077    2.5930 C   0  0  0  0  0  0  0  0  0  0  0  0
   -2.5506    1.7946    1.3580 C   0  0  0  0  0  0  0  0  0  0  0  0
   -2.1212    2.5638    0.2774 C   0  0  0  0  0  0  0  0  0  0  0  0
   -1.0502    3.4428    0.4260 C   0  0  0  0  0  0  0  0  0  0  0  0
   -0.4144    3.5617    1.6617 C   0  0  0  0  0  0  0  0  0  0  0  0
   -0.8435    2.7979    2.7431 C   0  0  0  0  0  0  0  0  0  0  0  0
   -0.3554    0.8996    0.1785 H   0  0  0  0  0  0  0  0  0  0  0  0
    1.7890    0.8574   -0.5827 H   0  0  0  0  0  0  0  0  0  0  0  0
    1.6687   -0.9382   -0.5321 H   0  0  0  0  0  0  0  0  0  0  0  0
    1.2788    0.5658    2.1174 H   0  0  0  0  0  0  0  0  0  0  0  0
    2.9635    0.4165    1.5049 H   0  0  0  0  0  0  0  0  0  0  0  0
    1.4983   -3.1261    2.3057 H   0  0  0  0  0  0  0  0  0  0  0  0
    0.4120   -2.1745    1.1445 H   0  0  0  0  0  0  0  0  0  0  0  0
   -1.0520   -0.5566    1.9268 H   0  0  0  0  0  0  0  0  0  0  0  0
   -2.4661    1.6862    4.6675 H   0  0  0  0  0  0  0  0  0  0  0  0
   -3.3386    0.6044    3.5877 H   0  0  0  0  0  0  0  0  0  0  0  0
   -3.3890    1.1108    1.2353 H   0  0  0  0  0  0  0  0  0  0  0  0
   -2.6288    2.4809   -0.6823 H   0  0  0  0  0  0  0  0  0  0  0  0
   -0.7203    4.0457   -0.4170 H   0  0  0  0  0  0  0  0  0  0  0  0
    0.4127    4.2596    1.7829 H   0  0  0  0  0  0  0  0  0  0  0  0
   -0.3518    2.8942    3.7113 H   0  0  0  0  0  0  0  0  0  0  0  0
  1 22  1  0  0  0  0
  2  1  1  0  0  0  0
  2  3  1  0  0  0  0
  3 26  1  0  0  0  0
  3  4  1  0  0  0  0
  3 25  1  0  0  0  0
  4  5  1  0  0  0  0
  5 27  1  0  0  0  0
  5  6  1  0  0  0  0
  6  7  1  0  0  0  0
  7  8  2  0  0  0  0
  7  9  1  0  0  0  0
  9 10  1  0  0  0  0
 11  9  1  0  0  0  0
 11 12  2  0  0  0  0
 13 11  1  0  0  0  0
 14  6  1  0  0  0  0
 14 13  2  0  0  0  0
 15 13  1  0  0  0  0
 15 30  1  0  0  0  0
 16 21  1  0  0  0  0
 16 15  1  0  0  0  0
 17 16  2  0  0  0  0
 18 19  2  0  0  0  0
 18 17  1  0  0  0  0
 19 20  1  0  0  0  0
 20 35  1  0  0  0  0
 20 21  2  0  0  0  0
 21 36  1  0  0  0  0
 23  2  1  0  0  0  0
 24  2  1  0  0  0  0
 28  5  1  0  0  0  0
 29 14  1  0  0  0  0
 31 15  1  0  0  0  0
 32 17  1  0  0  0  0
 33 18  1  0  0  0  0
 34 19  1  0  0  0  0
M  END
$$$$
