36
rmsd129.gzmat
O          0.00000        0.00000        0.00000
C          1.41190        0.00000        0.00000
C          1.94280        0.00000        1.43370
O          2.20480       -1.30680        1.90900
C          1.12290       -2.18620        2.03210
N          0.24660       -1.77860        3.14390
C          0.66720       -2.07410        4.46420
O          1.52860       -2.89390        4.68850
N         -0.00050       -1.40350        5.49410
H          0.28140       -1.62090        6.45390
C         -1.01730       -0.43200        5.29430
O         -1.47530        0.10080        6.27820
C         -1.38490       -0.19430        3.90500
C         -0.76070       -0.85940        2.90020
C         -2.44130        0.82300        3.62970
C         -1.98110        1.75940        2.55020
C         -0.91440        2.62840        2.79750
C         -0.45080        3.46870        1.78990
C         -1.05370        3.45080        0.53200
C         -2.12470        2.59380        0.28740
C         -2.58760        1.74680        1.29380
H         -0.35680        0.89090        0.21550
H          1.78620        0.85840       -0.58360
H          1.66800       -0.93640       -0.53520
H          1.26510        0.53150        2.12500
H          2.95230        0.45370        1.50580
H          1.63640       -3.14970        2.28010
H          0.53010       -2.25190        1.09420
H         -1.02950       -0.70890        1.83920
H         -2.68400        1.39870        4.55800
H         -3.39840        0.32340        3.36190
H         -0.45010        2.64590        3.78380
H          0.37730        4.14780        1.98670
H         -0.69690        4.11410       -0.25270
H         -2.60570        2.58820       -0.68930
H         -3.42650        1.08130        1.09710
