36
rmsd103.gzmat
O          0.00000        0.00000        0.00000
C          1.41230        0.00000        0.00000
C          1.93800        0.00000        1.43590
O          2.16430       -1.31000        1.92070
C          1.05590       -2.15390        2.05750
N          0.21530       -1.72180        3.18810
C          0.64900       -2.04260        4.49850
O          1.46800       -2.90970        4.70200
N          0.04330       -1.33840        5.54430
H          0.33600       -1.57170        6.49690
C         -0.92460       -0.31380        5.36880
O         -1.32900        0.24290        6.36290
C         -1.31490       -0.05700        3.98880
C         -0.75090       -0.75330        2.96960
C         -2.32740        1.01150        3.74300
C         -1.90410        1.86550        2.58300
C         -2.59780        1.81250        1.37320
C         -2.16960        2.57870        0.28990
C         -1.04720        3.39570        0.41070
C         -0.35750        3.45500        1.62180
C         -0.78520        2.69410        2.70580
H         -0.35630        0.90110        0.17040
H          1.78950        0.85790       -0.58150
H          1.66880       -0.93710       -0.53320
H          1.27040        0.55530        2.11870
H          2.95800        0.42910        1.50800
H          1.53980       -3.13590        2.29080
H          0.44470       -2.19380        1.12990
H         -1.03750       -0.59060        1.91500
H         -2.45870        1.64400        4.65700
H         -3.33120        0.56010        3.57750
H         -3.47610        1.17720        1.27180
H         -2.71810        2.54150       -0.65020
H         -0.71810        3.99760       -0.43340
H          0.51010        4.10550        1.72190
H         -0.25300        2.74440        3.65600
