rmsd103.gzmat
 OpenBabel08211713373D

 36 37  0  0  0  0  0  0  0  0999 V2000
    0.0000    0.0000    0.0000 O   0  0  0  0  0  0  0  0  0  0  0  0
    1.4123    0.0000    0.0000 C   0  0  0  0  0  0  0  0  0  0  0  0
    1.9380    0.0000    1.4359 C   0  0  0  0  0  0  0  0  0  0  0  0
    2.1643   -1.3100    1.9207 O   0  0  0  0  0  0  0  0  0  0  0  0
    1.0559   -2.1539    2.0575 C   0  0  0  0  0  0  0  0  0  0  0  0
    0.2153   -1.7218    3.1881 N   0  0  0  0  0  0  0  0  0  0  0  0
    0.6490   -2.0426    4.4985 C   0  0  0  0  0  0  0  0  0  0  0  0
    1.4680   -2.9097    4.7020 O   0  0  0  0  0  0  0  0  0  0  0  0
    0.0433   -1.3384    5.5443 N   0  0  0  0  0  0  0  0  0  0  0  0
    0.3360   -1.5717    6.4969 H   0  0  0  0  0  0  0  0  0  0  0  0
   -0.9246   -0.3138    5.3688 C   0  0  0  0  0  0  0  0  0  0  0  0
   -1.3290    0.2429    6.3629 O   0  0  0  0  0  0  0  0  0  0  0  0
   -1.3149   -0.0570    3.9888 C   0  0  0  0  0  0  0  0  0  0  0  0
   -0.7509   -0.7533    2.9696 C   0  0  0  0  0  0  0  0  0  0  0  0
   -2.3274    1.0115    3.7430 C   0  0  0  0  0  0  0  0  0  0  0  0
   -1.9041    1.8655    2.5830 C   0  0  0  0  0  0  0  0  0  0  0  0
   -2.5978    1.8125    1.3732 C   0  0  0  0  0  0  0  0  0  0  0  0
   -2.1696    2.5787    0.2899 C   0  0  0  0  0  0  0  0  0  0  0  0
   -1.0472    3.3957    0.4107 C   0  0  0  0  0  0  0  0  0  0  0  0
   -0.3575    3.4550    1.6218 C   0  0  0  0  0  0  0  0  0  0  0  0
   -0.7852    2.6941    2.7058 C   0  0  0  0  0  0  0  0  0  0  0  0
   -0.3563    0.9011    0.1704 H   0  0  0  0  0  0  0  0  0  0  0  0
    1.7895    0.8579   -0.5815 H   0  0  0  0  0  0  0  0  0  0  0  0
    1.6688   -0.9371   -0.5332 H   0  0  0  0  0  0  0  0  0  0  0  0
    1.2704    0.5553    2.1187 H   0  0  0  0  0  0  0  0  0  0  0  0
    2.9580    0.4291    1.5080 H   0  0  0  0  0  0  0  0  0  0  0  0
    1.5398   -3.1359    2.2908 H   0  0  0  0  0  0  0  0  0  0  0  0
    0.4447   -2.1938    1.1299 H   0  0  0  0  0  0  0  0  0  0  0  0
   -1.0375   -0.5906    1.9150 H   0  0  0  0  0  0  0  0  0  0  0  0
   -2.4587    1.6440    4.6570 H   0  0  0  0  0  0  0  0  0  0  0  0
   -3.3312    0.5601    3.5775 H   0  0  0  0  0  0  0  0  0  0  0  0
   -3.4761    1.1772    1.2718 H   0  0  0  0  0  0  0  0  0  0  0  0
   -2.7181    2.5415   -0.6502 H   0  0  0  0  0  0  0  0  0  0  0  0
   -0.7181    3.9976   -0.4334 H   0  0  0  0  0  0  0  0  0  0  0  0
    0.5101    4.1055    1.7219 H   0  0  0  0  0  0  0  0  0  0  0  0
   -0.2530    2.7444    3.6560 H   0  0  0  0  0  0  0  0  0  0  0  0
  1 22  1  0  0  0  0
  2  1  1  0  0  0  0
  2  3  1  0  0  0  0
  3 26  1  0  0  0  0
  3  4  1  0  0  0  0
  3 25  1  0  0  0  0
  4  5  1  0  0  0  0
  5 27  1  0  0  0  0
  5  6  1  0  0  0  0
  6  7  1  0  0  0  0
  7  8  2  0  0  0  0
  7  9  1  0  0  0  0
  9 10  1  0  0  0  0
 11  9  1  0  0  0  0
 11 12  2  0  0  0  0
 13 11  1  0  0  0  0
 14  6  1  0  0  0  0
 14 13  2  0  0  0  0
 15 13  1  0  0  0  0
 15 30  1  0  0  0  0
 16 21  1  0  0  0  0
 16 15  1  0  0  0  0
 17 16  2  0  0  0  0
 18 19  2  0  0  0  0
 18 17  1  0  0  0  0
 19 20  1  0  0  0  0
 20 35  1  0  0  0  0
 20 21  2  0  0  0  0
 21 36  1  0  0  0  0
 23  2  1  0  0  0  0
 24  2  1  0  0  0  0
 28  5  1  0  0  0  0
 29 14  1  0  0  0  0
 31 15  1  0  0  0  0
 32 17  1  0  0  0  0
 33 18  1  0  0  0  0
 34 19  1  0  0  0  0
M  END
$$$$
