36
rmsd164.gzmat
O          0.00000        0.00000        0.00000
C          1.41220        0.00000        0.00000
C          1.93860        0.00000        1.43540
O          2.17210       -1.30960        1.91810
C          1.06990       -2.16240        2.04830
N          0.22690       -1.74610        3.18310
C          0.65220       -2.09070        4.48970
O          1.47080       -2.96090        4.68250
N          0.03830       -1.40730        5.54430
H          0.32440       -1.65820        6.49450
C         -0.92740       -0.37830        5.38150
O         -1.33970        0.15840        6.38320
C         -1.30630       -0.09390        4.00380
C         -0.73750       -0.77370        2.97600
C         -2.31020        0.98480        3.76770
C         -1.86040        1.86490        2.63760
C         -2.53660        1.85490        1.41680
C         -2.07840        2.63780        0.35820
C         -0.93990        3.42640        0.51280
C         -0.27130        3.44820        1.73700
C         -0.73120        2.67340        2.79750
H         -0.35550        0.89750        0.19040
H          1.78810        0.85830       -0.58170
H          1.66850       -0.93700       -0.53400
H          1.26870        0.55040        2.12000
H          2.95630        0.43450        1.50770
H          1.56090       -3.14270        2.27340
H          0.45770       -2.19940        1.12120
H         -1.01840       -0.59240        1.92320
H         -2.45570        1.59440        4.69470
H         -3.31230        0.54250        3.57250
H         -3.42680        1.24120        1.28860
H         -2.61560        2.63580       -0.58890
H         -0.58380        4.03690       -0.31400
H          0.60650        4.07990        1.86580
H         -0.21540        2.69700        3.75770
