rmsd79.gzmat
 OpenBabel08211713373D

 36 37  0  0  0  0  0  0  0  0999 V2000
    0.0000    0.0000    0.0000 O   0  0  0  0  0  0  0  0  0  0  0  0
    1.4125    0.0000    0.0000 C   0  0  0  0  0  0  0  0  0  0  0  0
    1.9401    0.0000    1.4349 C   0  0  0  0  0  0  0  0  0  0  0  0
    2.1719   -1.3091    1.9193 O   0  0  0  0  0  0  0  0  0  0  0  0
    1.0688   -2.1606    2.0491 C   0  0  0  0  0  0  0  0  0  0  0  0
    0.2256   -1.7436    3.1834 N   0  0  0  0  0  0  0  0  0  0  0  0
    0.6494   -2.0908    4.4899 C   0  0  0  0  0  0  0  0  0  0  0  0
    1.4686   -2.9606    4.6828 O   0  0  0  0  0  0  0  0  0  0  0  0
    0.0333   -1.4108    5.5453 N   0  0  0  0  0  0  0  0  0  0  0  0
    0.3155   -1.6679    6.4952 H   0  0  0  0  0  0  0  0  0  0  0  0
   -0.9288   -0.3787    5.3837 C   0  0  0  0  0  0  0  0  0  0  0  0
   -1.3437    0.1545    6.3863 O   0  0  0  0  0  0  0  0  0  0  0  0
   -1.3015   -0.0863    4.0060 C   0  0  0  0  0  0  0  0  0  0  0  0
   -0.7345   -0.7659    2.9772 C   0  0  0  0  0  0  0  0  0  0  0  0
   -2.2990    0.9990    3.7739 C   0  0  0  0  0  0  0  0  0  0  0  0
   -1.8583    1.8689    2.6323 C   0  0  0  0  0  0  0  0  0  0  0  0
   -2.5422    1.8429    1.4162 C   0  0  0  0  0  0  0  0  0  0  0  0
   -2.0975    2.6223    0.3491 C   0  0  0  0  0  0  0  0  0  0  0  0
   -0.9660    3.4230    0.4905 C   0  0  0  0  0  0  0  0  0  0  0  0
   -0.2887    3.4589    1.7095 C   0  0  0  0  0  0  0  0  0  0  0  0
   -0.7338    2.6864    2.7780 C   0  0  0  0  0  0  0  0  0  0  0  0
   -0.3552    0.8983    0.1852 H   0  0  0  0  0  0  0  0  0  0  0  0
    1.7882    0.8591   -0.5805 H   0  0  0  0  0  0  0  0  0  0  0  0
    1.6692   -0.9364   -0.5346 H   0  0  0  0  0  0  0  0  0  0  0  0
    1.2725    0.5526    2.1199 H   0  0  0  0  0  0  0  0  0  0  0  0
    2.9587    0.4328    1.5056 H   0  0  0  0  0  0  0  0  0  0  0  0
    1.5589   -3.1415    2.2743 H   0  0  0  0  0  0  0  0  0  0  0  0
    0.4569   -2.1967    1.1219 H   0  0  0  0  0  0  0  0  0  0  0  0
   -1.0136   -0.5815    1.9244 H   0  0  0  0  0  0  0  0  0  0  0  0
   -2.4288    1.6153    4.6987 H   0  0  0  0  0  0  0  0  0  0  0  0
   -3.3073    0.5637    3.5949 H   0  0  0  0  0  0  0  0  0  0  0  0
   -3.4256    1.2176    1.2970 H   0  0  0  0  0  0  0  0  0  0  0  0
   -2.6394    2.6080   -0.5950 H   0  0  0  0  0  0  0  0  0  0  0  0
   -0.6212    4.0306   -0.3426 H   0  0  0  0  0  0  0  0  0  0  0  0
    0.5834    4.1006    1.8282 H   0  0  0  0  0  0  0  0  0  0  0  0
   -0.2096    2.7188    3.7335 H   0  0  0  0  0  0  0  0  0  0  0  0
  1 22  1  0  0  0  0
  2  1  1  0  0  0  0
  2  3  1  0  0  0  0
  3 26  1  0  0  0  0
  3  4  1  0  0  0  0
  3 25  1  0  0  0  0
  4  5  1  0  0  0  0
  5 27  1  0  0  0  0
  5  6  1  0  0  0  0
  6  7  1  0  0  0  0
  7  8  2  0  0  0  0
  7  9  1  0  0  0  0
  9 10  1  0  0  0  0
 11  9  1  0  0  0  0
 11 12  2  0  0  0  0
 13 11  1  0  0  0  0
 14  6  1  0  0  0  0
 14 13  2  0  0  0  0
 15 13  1  0  0  0  0
 15 30  1  0  0  0  0
 16 21  1  0  0  0  0
 16 15  1  0  0  0  0
 17 16  2  0  0  0  0
 18 19  2  0  0  0  0
 18 17  1  0  0  0  0
 19 20  1  0  0  0  0
 20 35  1  0  0  0  0
 20 21  2  0  0  0  0
 21 36  1  0  0  0  0
 23  2  1  0  0  0  0
 24  2  1  0  0  0  0
 28  5  1  0  0  0  0
 29 14  1  0  0  0  0
 31 15  1  0  0  0  0
 32 17  1  0  0  0  0
 33 18  1  0  0  0  0
 34 19  1  0  0  0  0
M  END
$$$$
