36
rmsd211.gzmat
O          0.00000        0.00000        0.00000
C          1.41230        0.00000        0.00000
C          1.93950        0.00000        1.43510
O          2.17750       -1.30910        1.91660
C          1.07800       -2.16520        2.04910
N          0.23260       -1.74810        3.18160
C          0.66160       -2.07910        4.49050
O          1.48980       -2.93870        4.68950
N          0.03990       -1.39560        5.54050
H          0.32690       -1.63940        6.49200
C         -0.93700       -0.37850        5.37120
O         -1.35730        0.15810        6.36980
C         -1.31610       -0.10470        3.99160
C         -0.74040       -0.78520        2.96830
C         -2.32940        0.96350        3.74790
C         -1.89050        1.83730        2.60860
C         -0.75600        2.64180        2.75070
C         -0.31150        3.41650        1.68380
C         -1.00050        3.39770        0.47120
C         -2.13900        2.60710        0.33200
C         -2.58310        1.82520        1.39740
H         -0.35500        0.89630        0.19510
H          1.78770        0.85840       -0.58210
H          1.66940       -0.93680       -0.53370
H          1.26860        0.54840        2.12060
H          2.95600        0.43730        1.50640
H          1.57210       -3.14310        2.27700
H          0.46670       -2.20710        1.12160
H         -1.02180       -0.61260        1.91410
H         -2.47830        1.58040        4.66950
H         -3.32800        0.51070        3.55860
H         -0.22400        2.66170        3.70200
H          0.56950        4.04600        1.79870
H         -0.65900        4.01200       -0.35910
H         -2.68770        2.60370       -0.60860
H         -3.47310        1.20920        1.28120
