36
rmsd79.gzmat
O          0.00000        0.00000        0.00000
C          1.41250        0.00000        0.00000
C          1.94010        0.00000        1.43490
O          2.17190       -1.30910        1.91930
C          1.06880       -2.16060        2.04910
N          0.22560       -1.74360        3.18340
C          0.64940       -2.09080        4.48990
O          1.46860       -2.96060        4.68280
N          0.03330       -1.41080        5.54530
H          0.31550       -1.66790        6.49520
C         -0.92880       -0.37870        5.38370
O         -1.34370        0.15450        6.38630
C         -1.30150       -0.08630        4.00600
C         -0.73450       -0.76590        2.97720
C         -2.29900        0.99900        3.77390
C         -1.85830        1.86890        2.63230
C         -2.54220        1.84290        1.41620
C         -2.09750        2.62230        0.34910
C         -0.96600        3.42300        0.49050
C         -0.28870        3.45890        1.70950
C         -0.73380        2.68640        2.77800
H         -0.35520        0.89830        0.18520
H          1.78820        0.85910       -0.58050
H          1.66920       -0.93640       -0.53460
H          1.27250        0.55260        2.11990
H          2.95870        0.43280        1.50560
H          1.55890       -3.14150        2.27430
H          0.45690       -2.19670        1.12190
H         -1.01360       -0.58150        1.92440
H         -2.42880        1.61530        4.69870
H         -3.30730        0.56370        3.59490
H         -3.42560        1.21760        1.29700
H         -2.63940        2.60800       -0.59500
H         -0.62120        4.03060       -0.34260
H          0.58340        4.10060        1.82820
H         -0.20960        2.71880        3.73350
