rmsd130.gzmat
 OpenBabel08211713363D

 38 41  0  0  0  0  0  0  0  0999 V2000
    0.0000    0.0000    0.0000 S   0  0  0  0  0  0  0  0  0  0  0  0
    1.7778    0.0000    0.0000 C   0  0  0  0  0  0  0  0  0  0  0  0
    2.5377    0.0000    1.1334 N   0  0  0  0  0  0  0  0  0  0  0  0
    2.0662   -0.0697    2.0600 H   0  0  0  0  0  0  0  0  0  0  0  0
    3.9041    0.0242    1.0650 C   0  0  0  0  0  0  0  0  0  0  0  0
    4.5472    0.0837   -0.1641 C   0  0  0  0  0  0  0  0  0  0  0  0
    3.7860    0.1042   -1.3382 C   0  0  0  0  0  0  0  0  0  0  0  0
    2.3969    0.0552   -1.2555 C   0  0  0  0  0  0  0  0  0  0  0  0
   -0.5962   -0.5707    1.5672 C   0  0  0  0  0  0  0  0  0  0  0  0
    0.2335   -0.5364    2.6077 N   0  0  0  0  0  0  0  0  0  0  0  0
   -0.1488   -0.9333    3.8031 N   0  0  0  0  0  0  0  0  0  0  0  0
   -1.3849   -1.3754    4.0238 C   0  0  0  0  0  0  0  0  0  0  0  0
   -1.7970   -1.9321    5.6541 S   0  0  0  0  0  0  0  0  0  0  0  0
   -0.6606   -1.2321    6.8282 C   0  0  0  0  0  0  0  0  0  0  0  0
    0.5709   -0.7478    6.4954 N   0  0  0  0  0  0  0  0  0  0  0  0
    0.8504   -0.7203    5.4920 H   0  0  0  0  0  0  0  0  0  0  0  0
    1.4126   -0.2475    7.4511 C   0  0  0  0  0  0  0  0  0  0  0  0
    1.0421   -0.2536    8.7892 C   0  0  0  0  0  0  0  0  0  0  0  0
   -0.2108   -0.7593    9.1540 C   0  0  0  0  0  0  0  0  0  0  0  0
   -1.0666   -1.2455    8.1689 C   0  0  0  0  0  0  0  0  0  0  0  0
   -2.3691   -1.4490    2.9815 C   0  0  0  0  0  0  0  0  0  0  0  0
   -1.9541   -1.0219    1.6860 C   0  0  0  0  0  0  0  0  0  0  0  0
   -2.8742   -1.0659    0.6157 C   0  0  0  0  0  0  0  0  0  0  0  0
   -4.1606   -1.5159    0.8255 C   0  0  0  0  0  0  0  0  0  0  0  0
   -4.5712   -1.9371    2.1071 C   0  0  0  0  0  0  0  0  0  0  0  0
   -3.6923   -1.9042    3.1691 C   0  0  0  0  0  0  0  0  0  0  0  0
    4.4557    0.0010    2.0199 H   0  0  0  0  0  0  0  0  0  0  0  0
    5.6464    0.1118   -0.2107 H   0  0  0  0  0  0  0  0  0  0  0  0
    4.2831    0.1533   -2.3207 H   0  0  0  0  0  0  0  0  0  0  0  0
    1.7996    0.0548   -2.1820 H   0  0  0  0  0  0  0  0  0  0  0  0
    2.3849    0.1455    7.1090 H   0  0  0  0  0  0  0  0  0  0  0  0
    1.7314    0.1371    9.5527 H   0  0  0  0  0  0  0  0  0  0  0  0
   -0.5181   -0.7679   10.2124 H   0  0  0  0  0  0  0  0  0  0  0  0
   -2.0591   -1.6292    8.4563 H   0  0  0  0  0  0  0  0  0  0  0  0
   -2.5848   -0.7487   -0.3913 H   0  0  0  0  0  0  0  0  0  0  0  0
   -4.8788   -1.5500   -0.0064 H   0  0  0  0  0  0  0  0  0  0  0  0
   -5.6019   -2.2920    2.2511 H   0  0  0  0  0  0  0  0  0  0  0  0
   -4.0423   -2.2315    4.1536 H   0  0  0  0  0  0  0  0  0  0  0  0
  1  9  1  0  0  0  0
  2  1  1  0  0  0  0
  2  3  1  0  0  0  0
  3  4  1  0  0  0  0
  5  3  1  0  0  0  0
  5 27  1  0  0  0  0
  6  5  2  0  0  0  0
  7  8  1  0  0  0  0
  7  6  1  0  0  0  0
  8  2  2  0  0  0  0
  9 22  1  0  0  0  0
  9 10  2  0  0  0  0
 10 11  1  0  0  0  0
 11 12  2  0  0  0  0
 12 13  1  0  0  0  0
 13 14  1  0  0  0  0
 14 20  2  0  0  0  0
 15 14  1  0  0  0  0
 15 17  1  0  0  0  0
 16 15  1  0  0  0  0
 17 18  2  0  0  0  0
 18 19  1  0  0  0  0
 18 32  1  0  0  0  0
 19 33  1  0  0  0  0
 20 34  1  0  0  0  0
 20 19  1  0  0  0  0
 21 26  1  0  0  0  0
 21 12  1  0  0  0  0
 22 21  2  0  0  0  0
 23 24  2  0  0  0  0
 23 22  1  0  0  0  0
 24 25  1  0  0  0  0
 25 37  1  0  0  0  0
 25 26  2  0  0  0  0
 26 38  1  0  0  0  0
 28  6  1  0  0  0  0
 29  7  1  0  0  0  0
 30  8  1  0  0  0  0
 31 17  1  0  0  0  0
 35 23  1  0  0  0  0
 36 24  1  0  0  0  0
M  END
$$$$
