38
rmsd167.gzmat
S          0.00000        0.00000        0.00000
C          1.77680        0.00000        0.00000
N          2.53840        0.00000        1.13170
H          2.06810       -0.05710        2.05980
C          3.90500        0.01970        1.06210
C          4.54680        0.07370       -0.16730
C          3.78370        0.09340       -1.34090
C          2.39500        0.04780       -1.25720
C         -0.60910       -0.45410        1.59930
N          0.23090       -0.42790        2.63120
N         -0.16820       -0.73030        3.84900
C         -1.43120       -1.06560        4.10060
S         -1.88740       -1.46670        5.76300
C         -0.61180       -0.95750        6.88920
N          0.65910       -0.63770        6.51070
H          0.89990       -0.63160        5.49700
C          1.59980       -0.27560        7.43660
C          1.28770       -0.26010        8.78890
C         -0.00630       -0.60070        9.20000
C         -0.96050       -0.94300        8.24630
C         -2.42540       -1.13500        3.06660
C         -1.99210       -0.81050        1.74810
C         -2.91840       -0.86120        0.68380
C         -4.22800       -1.22270        0.92070
C         -4.65680       -1.54310        2.22510
C         -3.77250       -1.49900        3.28230
H          4.45670       -0.00440        2.01660
H          5.64570        0.09780       -0.21520
H          4.28080        0.13760       -2.32370
H          1.79770        0.04270       -2.18330
H          2.60030       -0.00870        7.05740
H          2.05300        0.01960        9.52830
H         -0.26710       -0.59450       10.27050
H         -1.98360       -1.19480        8.57050
H         -2.61530       -0.62010       -0.33990
H         -4.95040       -1.26390        0.09300
H         -5.70550       -1.82900        2.39090
H         -4.13670       -1.74940        4.28380
