38
rmsd121.gzmat
S          0.00000        0.00000        0.00000
C          1.77860        0.00000        0.00000
N          2.53330        0.00000        1.13720
H          2.05910       -0.07180        2.06160
C          3.89970        0.02910        1.07530
C          4.54810        0.09210       -0.15110
C          3.79260        0.10960       -1.32850
C          2.40280        0.05920       -1.25220
C         -0.57160       -0.69490        1.52760
N          0.20490       -0.55600        2.60000
N         -0.16350       -1.01810        3.77570
C         -1.32320       -1.65200        3.94090
S         -1.70240       -2.29970        5.54510
C         -0.71310       -1.48820        6.77830
N          0.32080       -0.64420        6.49790
H          0.56010       -0.44490        5.50400
C          1.03330       -0.04330        7.50050
C          0.72910       -0.29780        8.83010
C         -0.31780       -1.17380        9.14080
C         -1.04360       -1.76720        8.11210
C         -2.24260       -1.85730        2.85860
C         -1.85180       -1.34050        1.58820
C         -2.71690       -1.49430        0.48290
C         -3.92510       -2.14110        0.63330
C         -4.30970       -2.65600        1.88880
C         -3.48460       -2.51730        2.98450
H          4.44740        0.00650        2.03270
H          5.64720        0.12570       -0.19160
H          4.29480        0.15660       -2.30820
H          1.80930        0.05840       -2.18120
H          1.84550        0.63980        7.19890
H          1.30670        0.18800        9.63030
H         -0.56670       -1.38700       10.19310
H         -1.87550       -2.44640        8.35990
H         -2.44340       -1.10780       -0.50420
H         -4.60090       -2.26150       -0.22540
H         -5.27710       -3.16960        1.98440
H         -3.81320       -2.92260        3.94660
