rmsd121.gzmat
 OpenBabel08211713363D

 38 40  0  0  0  0  0  0  0  0999 V2000
    0.0000    0.0000    0.0000 S   0  0  0  0  0  0  0  0  0  0  0  0
    1.7786    0.0000    0.0000 C   0  0  0  0  0  0  0  0  0  0  0  0
    2.5333    0.0000    1.1372 N   0  0  0  0  0  0  0  0  0  0  0  0
    2.0591   -0.0718    2.0616 H   0  0  0  0  0  0  0  0  0  0  0  0
    3.8997    0.0291    1.0753 C   0  0  0  0  0  0  0  0  0  0  0  0
    4.5481    0.0921   -0.1511 C   0  0  0  0  0  0  0  0  0  0  0  0
    3.7926    0.1096   -1.3285 C   0  0  0  0  0  0  0  0  0  0  0  0
    2.4028    0.0592   -1.2522 C   0  0  0  0  0  0  0  0  0  0  0  0
   -0.5716   -0.6949    1.5276 C   0  0  0  0  0  0  0  0  0  0  0  0
    0.2049   -0.5560    2.6000 N   0  0  0  0  0  0  0  0  0  0  0  0
   -0.1635   -1.0181    3.7757 N   0  0  0  0  0  0  0  0  0  0  0  0
   -1.3232   -1.6520    3.9409 C   0  0  0  0  0  0  0  0  0  0  0  0
   -1.7024   -2.2997    5.5451 S   0  0  0  0  0  0  0  0  0  0  0  0
   -0.7131   -1.4882    6.7783 C   0  0  0  0  0  0  0  0  0  0  0  0
    0.3208   -0.6442    6.4979 N   0  0  0  0  0  0  0  0  0  0  0  0
    0.5601   -0.4449    5.5040 H   0  0  0  0  0  0  0  0  0  0  0  0
    1.0333   -0.0433    7.5005 C   0  0  0  0  0  0  0  0  0  0  0  0
    0.7291   -0.2978    8.8301 C   0  0  0  0  0  0  0  0  0  0  0  0
   -0.3178   -1.1738    9.1408 C   0  0  0  0  0  0  0  0  0  0  0  0
   -1.0436   -1.7672    8.1121 C   0  0  0  0  0  0  0  0  0  0  0  0
   -2.2426   -1.8573    2.8586 C   0  0  0  0  0  0  0  0  0  0  0  0
   -1.8518   -1.3405    1.5882 C   0  0  0  0  0  0  0  0  0  0  0  0
   -2.7169   -1.4943    0.4829 C   0  0  0  0  0  0  0  0  0  0  0  0
   -3.9251   -2.1411    0.6333 C   0  0  0  0  0  0  0  0  0  0  0  0
   -4.3097   -2.6560    1.8888 C   0  0  0  0  0  0  0  0  0  0  0  0
   -3.4846   -2.5173    2.9845 C   0  0  0  0  0  0  0  0  0  0  0  0
    4.4474    0.0065    2.0327 H   0  0  0  0  0  0  0  0  0  0  0  0
    5.6472    0.1257   -0.1916 H   0  0  0  0  0  0  0  0  0  0  0  0
    4.2948    0.1566   -2.3082 H   0  0  0  0  0  0  0  0  0  0  0  0
    1.8093    0.0584   -2.1812 H   0  0  0  0  0  0  0  0  0  0  0  0
    1.8455    0.6398    7.1989 H   0  0  0  0  0  0  0  0  0  0  0  0
    1.3067    0.1880    9.6303 H   0  0  0  0  0  0  0  0  0  0  0  0
   -0.5667   -1.3870   10.1931 H   0  0  0  0  0  0  0  0  0  0  0  0
   -1.8755   -2.4464    8.3599 H   0  0  0  0  0  0  0  0  0  0  0  0
   -2.4434   -1.1078   -0.5042 H   0  0  0  0  0  0  0  0  0  0  0  0
   -4.6009   -2.2615   -0.2254 H   0  0  0  0  0  0  0  0  0  0  0  0
   -5.2771   -3.1696    1.9844 H   0  0  0  0  0  0  0  0  0  0  0  0
   -3.8132   -2.9226    3.9466 H   0  0  0  0  0  0  0  0  0  0  0  0
  1  9  1  0  0  0  0
  2  1  1  0  0  0  0
  2  3  1  0  0  0  0
  3  4  1  0  0  0  0
  5  3  1  0  0  0  0
  5 27  1  0  0  0  0
  6  5  2  0  0  0  0
  7  8  1  0  0  0  0
  7  6  1  0  0  0  0
  8  2  2  0  0  0  0
  9 22  1  0  0  0  0
  9 10  2  0  0  0  0
 10 11  1  0  0  0  0
 11 12  2  0  0  0  0
 13 14  2  0  0  0  0
 14 20  1  0  0  0  0
 15 14  1  0  0  0  0
 15 17  1  0  0  0  0
 16 15  1  0  0  0  0
 17 18  2  0  0  0  0
 18 19  1  0  0  0  0
 18 32  1  0  0  0  0
 19 33  1  0  0  0  0
 20 34  1  0  0  0  0
 20 19  2  0  0  0  0
 21 26  1  0  0  0  0
 21 12  1  0  0  0  0
 22 21  2  0  0  0  0
 23 24  2  0  0  0  0
 23 22  1  0  0  0  0
 24 25  1  0  0  0  0
 25 37  1  0  0  0  0
 25 26  2  0  0  0  0
 26 38  1  0  0  0  0
 28  6  1  0  0  0  0
 29  7  1  0  0  0  0
 30  8  1  0  0  0  0
 31 17  1  0  0  0  0
 35 23  1  0  0  0  0
 36 24  1  0  0  0  0
M  RAD  1  12   2
M  END
$$$$
