rmsd131.gzmat
 OpenBabel08211713363D

 38 41  0  0  0  0  0  0  0  0999 V2000
    0.0000    0.0000    0.0000 S   0  0  0  0  0  0  0  0  0  0  0  0
    1.7756    0.0000    0.0000 C   0  0  0  0  0  0  0  0  0  0  0  0
    2.5484    0.0000    1.1232 N   0  0  0  0  0  0  0  0  0  0  0  0
    2.0877    0.0435    2.0561 H   0  0  0  0  0  0  0  0  0  0  0  0
    3.9149   -0.0272    1.0391 C   0  0  0  0  0  0  0  0  0  0  0  0
    4.5439   -0.0610   -0.1970 C   0  0  0  0  0  0  0  0  0  0  0  0
    3.7691   -0.0553   -1.3634 C   0  0  0  0  0  0  0  0  0  0  0  0
    2.3814   -0.0233   -1.2642 C   0  0  0  0  0  0  0  0  0  0  0  0
   -0.6252    0.0598    1.6534 C   0  0  0  0  0  0  0  0  0  0  0  0
    0.2322    0.2308    2.6572 N   0  0  0  0  0  0  0  0  0  0  0  0
   -0.1799    0.3121    3.9049 N   0  0  0  0  0  0  0  0  0  0  0  0
   -1.4716    0.2295    4.2142 C   0  0  0  0  0  0  0  0  0  0  0  0
   -1.9342    0.3207    5.9214 S   0  0  0  0  0  0  0  0  0  0  0  0
   -0.6330    1.0942    6.8524 C   0  0  0  0  0  0  0  0  0  0  0  0
    0.6608    1.1744    6.4264 N   0  0  0  0  0  0  0  0  0  0  0  0
    0.9023    0.8363    5.4713 H   0  0  0  0  0  0  0  0  0  0  0  0
    1.6256    1.7477    7.2092 C   0  0  0  0  0  0  0  0  0  0  0  0
    1.3115    2.2351    8.4706 C   0  0  0  0  0  0  0  0  0  0  0  0
   -0.0078    2.1550    8.9303 C   0  0  0  0  0  0  0  0  0  0  0  0
   -0.9840    1.5868    8.1162 C   0  0  0  0  0  0  0  0  0  0  0  0
   -2.4868    0.0342    3.2179 C   0  0  0  0  0  0  0  0  0  0  0  0
   -2.0406   -0.0558    1.8674 C   0  0  0  0  0  0  0  0  0  0  0  0
   -2.9870   -0.2522    0.8382 C   0  0  0  0  0  0  0  0  0  0  0  0
   -4.3292   -0.3505    1.1397 C   0  0  0  0  0  0  0  0  0  0  0  0
   -4.7710   -0.2549    2.4751 C   0  0  0  0  0  0  0  0  0  0  0  0
   -3.8666   -0.0655    3.4988 C   0  0  0  0  0  0  0  0  0  0  0  0
    4.4759   -0.0256    1.9888 H   0  0  0  0  0  0  0  0  0  0  0  0
    5.6419   -0.0912   -0.2566 H   0  0  0  0  0  0  0  0  0  0  0  0
    4.2565   -0.0767   -2.3513 H   0  0  0  0  0  0  0  0  0  0  0  0
    1.7735   -0.0181   -2.1834 H   0  0  0  0  0  0  0  0  0  0  0  0
    2.6468    1.7948    6.7952 H   0  0  0  0  0  0  0  0  0  0  0  0
    2.0962    2.6823    9.0990 H   0  0  0  0  0  0  0  0  0  0  0  0
   -0.2718    2.5441    9.9269 H   0  0  0  0  0  0  0  0  0  0  0  0
   -2.0254    1.5374    8.4740 H   0  0  0  0  0  0  0  0  0  0  0  0
   -2.6759   -0.3335   -0.2079 H   0  0  0  0  0  0  0  0  0  0  0  0
   -5.0676   -0.5047    0.3398 H   0  0  0  0  0  0  0  0  0  0  0  0
   -5.8459   -0.3336    2.6919 H   0  0  0  0  0  0  0  0  0  0  0  0
   -4.2402    0.0081    4.5250 H   0  0  0  0  0  0  0  0  0  0  0  0
  1  9  1  0  0  0  0
  2  1  1  0  0  0  0
  2  3  1  0  0  0  0
  3  4  1  0  0  0  0
  5  3  1  0  0  0  0
  5 27  1  0  0  0  0
  6  5  2  0  0  0  0
  7  8  1  0  0  0  0
  7  6  1  0  0  0  0
  8  2  2  0  0  0  0
  9 22  1  0  0  0  0
  9 10  2  0  0  0  0
 10 11  1  0  0  0  0
 11 12  2  0  0  0  0
 12 13  1  0  0  0  0
 13 14  1  0  0  0  0
 14 20  2  0  0  0  0
 15 14  1  0  0  0  0
 15 17  1  0  0  0  0
 16 15  1  0  0  0  0
 17 18  2  0  0  0  0
 18 19  1  0  0  0  0
 18 32  1  0  0  0  0
 19 33  1  0  0  0  0
 20 34  1  0  0  0  0
 20 19  1  0  0  0  0
 21 26  1  0  0  0  0
 21 12  1  0  0  0  0
 22 21  2  0  0  0  0
 23 24  2  0  0  0  0
 23 22  1  0  0  0  0
 24 25  1  0  0  0  0
 25 37  1  0  0  0  0
 25 26  2  0  0  0  0
 26 38  1  0  0  0  0
 28  6  1  0  0  0  0
 29  7  1  0  0  0  0
 30  8  1  0  0  0  0
 31 17  1  0  0  0  0
 35 23  1  0  0  0  0
 36 24  1  0  0  0  0
M  END
$$$$
