38
rmsd131.gzmat
S          0.00000        0.00000        0.00000
C          1.77560        0.00000        0.00000
N          2.54840        0.00000        1.12320
H          2.08770        0.04350        2.05610
C          3.91490       -0.02720        1.03910
C          4.54390       -0.06100       -0.19700
C          3.76910       -0.05530       -1.36340
C          2.38140       -0.02330       -1.26420
C         -0.62520        0.05980        1.65340
N          0.23220        0.23080        2.65720
N         -0.17990        0.31210        3.90490
C         -1.47160        0.22950        4.21420
S         -1.93420        0.32070        5.92140
C         -0.63300        1.09420        6.85240
N          0.66080        1.17440        6.42640
H          0.90230        0.83630        5.47130
C          1.62560        1.74770        7.20920
C          1.31150        2.23510        8.47060
C         -0.00780        2.15500        8.93030
C         -0.98400        1.58680        8.11620
C         -2.48680        0.03420        3.21790
C         -2.04060       -0.05580        1.86740
C         -2.98700       -0.25220        0.83820
C         -4.32920       -0.35050        1.13970
C         -4.77100       -0.25490        2.47510
C         -3.86660       -0.06550        3.49880
H          4.47590       -0.02560        1.98880
H          5.64190       -0.09120       -0.25660
H          4.25650       -0.07670       -2.35130
H          1.77350       -0.01810       -2.18340
H          2.64680        1.79480        6.79520
H          2.09620        2.68230        9.09900
H         -0.27180        2.54410        9.92690
H         -2.02540        1.53740        8.47400
H         -2.67590       -0.33350       -0.20790
H         -5.06760       -0.50470        0.33980
H         -5.84590       -0.33360        2.69190
H         -4.24020        0.00810        4.52500
