rmsd168.gzmat
 OpenBabel08211713363D

 38 41  0  0  0  0  0  0  0  0999 V2000
    0.0000    0.0000    0.0000 S   0  0  0  0  0  0  0  0  0  0  0  0
    1.7774    0.0000    0.0000 C   0  0  0  0  0  0  0  0  0  0  0  0
    2.5353    0.0000    1.1347 N   0  0  0  0  0  0  0  0  0  0  0  0
    2.0644   -0.0795    2.0602 H   0  0  0  0  0  0  0  0  0  0  0  0
    3.9016    0.0336    1.0688 C   0  0  0  0  0  0  0  0  0  0  0  0
    4.5460    0.0998   -0.1592 C   0  0  0  0  0  0  0  0  0  0  0  0
    3.7870    0.1162   -1.3348 C   0  0  0  0  0  0  0  0  0  0  0  0
    2.3980    0.0599   -1.2546 C   0  0  0  0  0  0  0  0  0  0  0  0
   -0.5858   -0.6292    1.5488 C   0  0  0  0  0  0  0  0  0  0  0  0
    0.2195   -0.5441    2.6049 N   0  0  0  0  0  0  0  0  0  0  0  0
   -0.1601   -0.9691    3.7913 N   0  0  0  0  0  0  0  0  0  0  0  0
   -1.3661   -1.4986    3.9857 C   0  0  0  0  0  0  0  0  0  0  0  0
   -1.7778   -2.0990    5.5981 S   0  0  0  0  0  0  0  0  0  0  0  0
   -0.5495   -1.6021    6.7808 C   0  0  0  0  0  0  0  0  0  0  0  0
    0.5459   -0.8458    6.4840 N   0  0  0  0  0  0  0  0  0  0  0  0
    0.7181   -0.5671    5.4956 H   0  0  0  0  0  0  0  0  0  0  0  0
    1.4332   -0.4767    7.4591 C   0  0  0  0  0  0  0  0  0  0  0  0
    1.2358   -0.8675    8.7756 C   0  0  0  0  0  0  0  0  0  0  0  0
    0.1220   -1.6517    9.1007 C   0  0  0  0  0  0  0  0  0  0  0  0
   -0.7726   -2.0193    8.1005 C   0  0  0  0  0  0  0  0  0  0  0  0
   -2.3255   -1.6262    2.9251 C   0  0  0  0  0  0  0  0  0  0  0  0
   -1.9125   -1.1695    1.6394 C   0  0  0  0  0  0  0  0  0  0  0  0
   -2.8035   -1.2731    0.5491 C   0  0  0  0  0  0  0  0  0  0  0  0
   -4.0650   -1.7990    0.7320 C   0  0  0  0  0  0  0  0  0  0  0  0
   -4.4775   -2.2412    2.0059 C   0  0  0  0  0  0  0  0  0  0  0  0
   -3.6232   -2.1598    3.0853 C   0  0  0  0  0  0  0  0  0  0  0  0
    4.4521    0.0126    2.0240 H   0  0  0  0  0  0  0  0  0  0  0  0
    5.6451    0.1354   -0.2030 H   0  0  0  0  0  0  0  0  0  0  0  0
    4.2861    0.1657   -2.3160 H   0  0  0  0  0  0  0  0  0  0  0  0
    1.8019    0.0535   -2.1817 H   0  0  0  0  0  0  0  0  0  0  0  0
    2.2929    0.1403    7.1476 H   0  0  0  0  0  0  0  0  0  0  0  0
    1.9503   -0.5620    9.5546 H   0  0  0  0  0  0  0  0  0  0  0  0
   -0.0436   -1.9729   10.1417 H   0  0  0  0  0  0  0  0  0  0  0  0
   -1.6495   -2.6351    8.3593 H   0  0  0  0  0  0  0  0  0  0  0  0
   -2.5098   -0.9440   -0.4526 H   0  0  0  0  0  0  0  0  0  0  0  0
   -4.7613   -1.8783   -0.1152 H   0  0  0  0  0  0  0  0  0  0  0  0
   -5.4895   -2.6530    2.1288 H   0  0  0  0  0  0  0  0  0  0  0  0
   -3.9735   -2.5107    4.0611 H   0  0  0  0  0  0  0  0  0  0  0  0
  1  9  1  0  0  0  0
  2  1  1  0  0  0  0
  2  3  1  0  0  0  0
  3  4  1  0  0  0  0
  5  3  1  0  0  0  0
  5 27  1  0  0  0  0
  6  5  2  0  0  0  0
  7  8  1  0  0  0  0
  7  6  1  0  0  0  0
  8  2  2  0  0  0  0
  9 22  1  0  0  0  0
  9 10  2  0  0  0  0
 10 11  1  0  0  0  0
 11 12  2  0  0  0  0
 12 13  1  0  0  0  0
 13 14  1  0  0  0  0
 14 20  2  0  0  0  0
 15 14  1  0  0  0  0
 15 17  1  0  0  0  0
 16 15  1  0  0  0  0
 17 18  2  0  0  0  0
 18 19  1  0  0  0  0
 18 32  1  0  0  0  0
 19 33  1  0  0  0  0
 20 34  1  0  0  0  0
 20 19  1  0  0  0  0
 21 26  1  0  0  0  0
 21 12  1  0  0  0  0
 22 21  2  0  0  0  0
 23 24  2  0  0  0  0
 23 22  1  0  0  0  0
 24 25  1  0  0  0  0
 25 37  1  0  0  0  0
 25 26  2  0  0  0  0
 26 38  1  0  0  0  0
 28  6  1  0  0  0  0
 29  7  1  0  0  0  0
 30  8  1  0  0  0  0
 31 17  1  0  0  0  0
 35 23  1  0  0  0  0
 36 24  1  0  0  0  0
M  END
$$$$
