45
rmsd118.gzmat
N          0.00000        0.00000        0.00000
C          1.40480        0.00000        0.00000
N          1.88800        0.00000        1.26470
N          0.78730        0.00530        2.08010
C          1.01630       -0.05150        3.50670
O          1.89760       -0.74570        3.94990
N          0.23080        0.78450        4.28540
C         -1.03170        1.33030        3.77160
C         -1.96830        0.22970        3.24160
C         -1.78400       -0.00190        1.74370
C         -0.37600        0.00340        1.28680
C          0.35420        0.60110        5.75700
H          1.35680        0.10650        5.95790
C          0.39120        1.97640        6.43300
C         -0.73960       -0.31320        6.26640
C         -1.88040        0.16580        6.90700
C         -2.86190       -0.72370        7.34430
C         -2.70860       -2.09210        7.13740
C         -1.56850       -2.57400        6.49410
C         -0.58600       -1.68830        6.06310
C          2.21060        0.00550       -1.20960
C          1.59300        0.15570       -2.45620
C          2.36570        0.16550       -3.61380
C          3.75030        0.02450       -3.53090
C          4.36560       -0.12830       -2.28910
C          3.59990       -0.13830       -1.12650
H         -0.79550        2.07480        2.97380
H         -1.53630        1.90100        4.58410
H         -3.02320        0.49910        3.44840
H         -1.80700       -0.71200        3.80830
H         -2.25900       -0.96900        1.44400
H         -2.34520        0.77240        1.16260
H         -0.50930        2.57200        6.25460
H          1.24290        2.56460        6.06090
H          0.51130        1.86720        7.51790
H         -2.01580        1.23190        7.07680
H         -3.74920       -0.34580        7.84830
H         -3.47600       -2.78450        7.47810
H         -1.44620       -3.64440        6.33180
H          0.30900       -2.06910        5.56300
H          0.50700        0.26200       -2.51220
H          1.88660        0.28240       -4.58320
H          4.35150        0.03310       -4.43750
H          5.44620       -0.23990       -2.22650
H          4.07690       -0.25760       -0.15060
