45
rmsd20.gzmat
N          0.00000        0.00000        0.00000
C          1.40450        0.00000        0.00000
N          1.88830        0.00000        1.26500
N          0.78780        0.00320        2.07940
C          1.01150       -0.01800        3.50880
O          1.87270       -0.72000        3.97770
N          0.23990        0.86030        4.25080
C         -1.00430        1.42220        3.71000
C         -1.96960        0.32310        3.23100
C         -1.78150       -0.00510        1.75070
C         -0.37560        0.00450        1.28710
C          0.37560        0.77100        5.72850
H          1.32250        0.18740        5.95580
C          0.56880        2.18340        6.29310
C         -0.80020        0.02470        6.32250
C         -0.78490       -1.37230        6.26860
C         -1.85470       -2.10380        6.77560
C         -2.94350       -1.44490        7.34600
C         -2.95640       -0.05390        7.40930
C         -1.88780        0.68020        6.89690
C          2.21010        0.01030       -1.20970
C          3.60190       -0.10730       -1.12570
C          4.36750       -0.09120       -2.28830
C          3.74970        0.04070       -3.53130
C          2.36270        0.15750       -3.61480
C          1.59020        0.14180       -2.45710
H         -0.74760        2.12270        2.87930
H         -1.49210        2.04420        4.49470
H         -3.01710        0.63690        3.41110
H         -1.84300       -0.58830        3.85320
H         -2.23080       -1.00270        1.52150
H         -2.36480        0.71200        1.12060
H         -0.26880        2.85320        6.07660
H          1.46740        2.65060        5.86270
H          0.70010        2.14740        7.38150
H          0.06870       -1.89160        5.82660
H         -1.84080       -3.19150        6.72920
H         -3.77880       -2.01640        7.74590
H         -3.80070        0.46270        7.86130
H         -1.91280        1.76650        6.95490
H          4.08070       -0.21180       -0.14930
H          5.44980       -0.18180       -2.22520
H          4.35060        0.05230       -4.43800
H          1.88170        0.25990       -4.58480
H          0.50260        0.23000       -2.51420
