45
rmsd13.gzmat
N          0.00000        0.00000        0.00000
C          1.40480        0.00000        0.00000
N          1.88820        0.00000        1.26460
N          0.78760        0.00550        2.08010
C          1.01950       -0.04590        3.50650
O          1.90750       -0.73180        3.94920
N          0.23060        0.78810        4.28550
C         -1.03310        1.32850        3.76870
C         -1.96690        0.22420        3.24220
C         -1.78350       -0.00790        1.74420
C         -0.37580        0.00220        1.28680
C          0.34780        0.59180        5.75620
H          1.36720        0.13290        5.95690
C          0.32710        1.95580        6.45480
C         -0.71550       -0.36860        6.24470
C         -0.47230       -1.73810        6.10310
C         -1.42510       -2.66470        6.51500
C         -2.62660       -2.22890        7.07300
C         -2.87000       -0.86510        7.21660
C         -1.91680        0.06440        6.80260
C          2.21230        0.00170       -1.20850
C          3.60270       -0.12960       -1.12030
C          4.37150       -0.12970       -2.28090
C          3.75800        0.00200       -3.52600
C          2.37240        0.13450       -3.61370
C          1.59660        0.13380       -2.45810
H         -0.79710        2.07060        2.96820
H         -1.53940        1.90240        4.57780
H         -3.02210        0.49020        3.45100
H         -1.80150       -0.71670        3.80890
H         -2.25400       -0.97750        1.44630
H         -2.34910        0.76310        1.16340
H         -0.60260        2.51080        6.29870
H          1.14610        2.59030        6.08550
H          0.46390        1.83210        7.53650
H          0.46860       -2.08240        5.66520
H         -1.23150       -3.73060        6.40240
H         -3.37140       -2.95270        7.39770
H         -3.80560       -0.52270        7.65370
H         -2.12120        1.12600        6.92420
H          4.07780       -0.23190       -0.14180
H          5.45240       -0.23250       -2.21400
H          4.36160        0.00090       -4.43100
H          1.89480        0.23830       -4.58540
H          0.51020        0.23440       -2.51790
