
     RDKit          3D

 45 48  0  0  0  0  0  0  0  0999 V2000
    0.2231   -0.4214    0.2319 N   0  0  0  0  0  0  0  0  0  0  0  0
    1.5267    0.0075    0.1033 C   0  0  0  0  0  0  0  0  0  0  0  0
    2.1118    0.2930    1.2555 N   0  0  0  0  0  0  0  0  0  0  0  0
    1.1361    0.0574    2.1639 N   0  0  0  0  0  0  0  0  0  0  0  0
    1.3975    0.1309    3.5775 C   0  0  0  0  0  0  0  0  0  0  0  0
    2.4654   -0.1957    4.0384 O   0  0  0  0  0  0  0  0  0  0  0  0
    0.3135    0.5556    4.2935 N   0  0  0  0  0  0  0  0  0  0  0  0
   -0.8035    1.2774    3.6787 C   0  0  0  0  0  0  0  0  0  0  0  0
   -1.8706    0.3702    3.0560 C   0  0  0  0  0  0  0  0  0  0  0  0
   -1.2395   -0.7856    2.2570 C   0  0  0  0  0  0  0  0  0  0  0  0
   -0.0005   -0.3886    1.5241 C   0  0  0  0  0  0  0  0  0  0  0  0
    0.3801    0.4459    5.7637 C   0  0  1  0  0  0  0  0  0  0  0  0
    1.1902   -0.2719    5.9499 H   0  0  0  0  0  0  0  0  0  0  0  0
    0.7865    1.7711    6.4057 C   0  0  0  0  0  0  0  0  0  0  0  0
   -0.9164   -0.1664    6.2736 C   0  0  0  0  0  0  0  0  0  0  0  0
   -1.1541   -1.5281    6.0265 C   0  0  0  0  0  0  0  0  0  0  0  0
   -2.3545   -2.1273    6.4060 C   0  0  0  0  0  0  0  0  0  0  0  0
   -3.3428   -1.3699    7.0455 C   0  0  0  0  0  0  0  0  0  0  0  0
   -3.1127   -0.0186    7.3078 C   0  0  0  0  0  0  0  0  0  0  0  0
   -1.9056    0.5780    6.9259 C   0  0  0  0  0  0  0  0  0  0  0  0
    2.2005    0.1389   -1.1947 C   0  0  0  0  0  0  0  0  0  0  0  0
    1.5085   -0.1673   -2.3770 C   0  0  0  0  0  0  0  0  0  0  0  0
    2.1441   -0.0444   -3.6133 C   0  0  0  0  0  0  0  0  0  0  0  0
    3.4731    0.3842   -3.6812 C   0  0  0  0  0  0  0  0  0  0  0  0
    4.1663    0.6898   -2.5043 C   0  0  0  0  0  0  0  0  0  0  0  0
    3.5363    0.5688   -1.2667 C   0  0  0  0  0  0  0  0  0  0  0  0
   -0.3981    1.9567    2.9140 H   0  0  0  0  0  0  0  0  0  0  0  0
   -1.2578    1.9124    4.4507 H   0  0  0  0  0  0  0  0  0  0  0  0
   -2.5022    0.9898    2.3990 H   0  0  0  0  0  0  0  0  0  0  0  0
   -2.5204   -0.0488    3.8380 H   0  0  0  0  0  0  0  0  0  0  0  0
   -0.9840   -1.5992    2.9555 H   0  0  0  0  0  0  0  0  0  0  0  0
   -1.9447   -1.1962    1.5230 H   0  0  0  0  0  0  0  0  0  0  0  0
    0.0797    2.5832    6.1756 H   0  0  0  0  0  0  0  0  0  0  0  0
    1.7779    2.0656    6.0333 H   0  0  0  0  0  0  0  0  0  0  0  0
    0.8413    1.6696    7.4999 H   0  0  0  0  0  0  0  0  0  0  0  0
   -0.3833   -2.1214    5.5266 H   0  0  0  0  0  0  0  0  0  0  0  0
   -2.5207   -3.1887    6.2070 H   0  0  0  0  0  0  0  0  0  0  0  0
   -4.2849   -1.8355    7.3437 H   0  0  0  0  0  0  0  0  0  0  0  0
   -3.8753    0.5785    7.8136 H   0  0  0  0  0  0  0  0  0  0  0  0
   -1.7430    1.6357    7.1403 H   0  0  0  0  0  0  0  0  0  0  0  0
    0.4723   -0.5013   -2.3059 H   0  0  0  0  0  0  0  0  0  0  0  0
    1.5995   -0.2848   -4.5297 H   0  0  0  0  0  0  0  0  0  0  0  0
    3.9697    0.4797   -4.6499 H   0  0  0  0  0  0  0  0  0  0  0  0
    5.2056    1.0238   -2.5532 H   0  0  0  0  0  0  0  0  0  0  0  0
    4.0663    0.8023   -0.3418 H   0  0  0  0  0  0  0  0  0  0  0  0
  1  2  1  0
  1 11  2  0
  2  3  2  0
  2 21  1  0
  3  4  1  0
  4  5  1  0
  4 11  1  0
  5  6  2  0
  5  7  1  0
  7  8  1  0
  7 12  1  0
  8  9  1  0
  8 27  1  0
  8 28  1  0
  9 10  1  0
  9 29  1  0
  9 30  1  0
 10 11  1  0
 10 31  1  0
 10 32  1  0
 12 13  1  6
 12 14  1  0
 12 15  1  0
 14 33  1  0
 14 34  1  0
 14 35  1  0
 15 16  2  0
 15 20  1  0
 16 17  1  0
 16 36  1  0
 17 18  2  0
 17 37  1  0
 18 19  1  0
 18 38  1  0
 19 20  2  0
 19 39  1  0
 20 40  1  0
 21 22  2  0
 21 26  1  0
 22 23  1  0
 22 41  1  0
 23 24  2  0
 23 42  1  0
 24 25  1  0
 24 43  1  0
 25 26  2  0
 25 44  1  0
 26 45  1  0
M  END

