rmsd124.gzmat
 OpenBabel08211713403D

 45 48  0  0  1  0  0  0  0  0999 V2000
    0.0000    0.0000    0.0000 N   0  0  0  0  0  0  0  0  0  0  0  0
    1.4046    0.0000    0.0000 C   0  0  0  0  0  0  0  0  0  0  0  0
    1.8882    0.0000    1.2650 N   0  0  0  0  0  0  0  0  0  0  0  0
    0.7877    0.0039    2.0793 N   0  0  0  0  0  0  0  0  0  0  0  0
    1.0123   -0.0140    3.5079 C   0  0  0  0  0  0  0  0  0  0  0  0
    1.8746   -0.7146    3.9773 O   0  0  0  0  0  0  0  0  0  0  0  0
    0.2426    0.8667    4.2509 N   0  0  0  0  0  0  0  0  0  0  0  0
   -1.0030    1.4249    3.7092 C   0  0  0  0  0  0  0  0  0  0  0  0
   -1.9709    0.3291    3.2286 C   0  0  0  0  0  0  0  0  0  0  0  0
   -1.7819   -0.0049    1.7498 C   0  0  0  0  0  0  0  0  0  0  0  0
   -0.3759    0.0049    1.2871 C   0  0  0  0  0  0  0  0  0  0  0  0
    0.3643    0.7502    5.7288 C   0  0  1  0  0  0  0  0  0  0  0  0
    1.3479    0.2284    5.9521 H   0  0  0  0  0  0  0  0  0  0  0  0
    0.4531    2.1545    6.3366 C   0  0  0  0  0  0  0  0  0  0  0  0
   -0.7602   -0.0973    6.2844 C   0  0  0  0  0  0  0  0  0  0  0  0
   -0.6539   -1.4858    6.1547 C   0  0  0  0  0  0  0  0  0  0  0  0
   -1.6644   -2.3133    6.6339 C   0  0  0  0  0  0  0  0  0  0  0  0
   -2.7884   -1.7591    7.2461 C   0  0  0  0  0  0  0  0  0  0  0  0
   -2.8948   -0.3770    7.3785 C   0  0  0  0  0  0  0  0  0  0  0  0
   -1.8825    0.4537    6.8992 C   0  0  0  0  0  0  0  0  0  0  0  0
    2.2121    0.0124   -1.2084 C   0  0  0  0  0  0  0  0  0  0  0  0
    1.5977    0.1736   -2.4551 C   0  0  0  0  0  0  0  0  0  0  0  0
    2.3738    0.1976   -3.6102 C   0  0  0  0  0  0  0  0  0  0  0  0
    3.7584    0.0575   -3.5252 C   0  0  0  0  0  0  0  0  0  0  0  0
    4.3702   -0.1096   -2.2836 C   0  0  0  0  0  0  0  0  0  0  0  0
    3.6015   -0.1316   -1.1231 C   0  0  0  0  0  0  0  0  0  0  0  0
   -0.7452    2.1258    2.8792 H   0  0  0  0  0  0  0  0  0  0  0  0
   -1.4912    2.0450    4.4949 H   0  0  0  0  0  0  0  0  0  0  0  0
   -3.0174    0.6491    3.4043 H   0  0  0  0  0  0  0  0  0  0  0  0
   -1.8509   -0.5809    3.8541 H   0  0  0  0  0  0  0  0  0  0  0  0
   -2.2316   -1.0032    1.5243 H   0  0  0  0  0  0  0  0  0  0  0  0
   -2.3651    0.7100    1.1168 H   0  0  0  0  0  0  0  0  0  0  0  0
   -0.4276    2.7708    6.1329 H   0  0  0  0  0  0  0  0  0  0  0  0
    1.3219    2.6948    5.9325 H   0  0  0  0  0  0  0  0  0  0  0  0
    0.5756    2.0940    7.4250 H   0  0  0  0  0  0  0  0  0  0  0  0
    0.2272   -1.9224    5.6772 H   0  0  0  0  0  0  0  0  0  0  0  0
   -1.5759   -3.3942    6.5332 H   0  0  0  0  0  0  0  0  0  0  0  0
   -3.5782   -2.4057    7.6232 H   0  0  0  0  0  0  0  0  0  0  0  0
   -3.7685    0.0580    7.8594 H   0  0  0  0  0  0  0  0  0  0  0  0
   -1.9788    1.5311    7.0174 H   0  0  0  0  0  0  0  0  0  0  0  0
    0.5121    0.2781   -2.5132 H   0  0  0  0  0  0  0  0  0  0  0  0
    1.8970    0.3253   -4.5794 H   0  0  0  0  0  0  0  0  0  0  0  0
    4.3624    0.0781   -4.4296 H   0  0  0  0  0  0  0  0  0  0  0  0
    5.4504   -0.2225   -2.2190 H   0  0  0  0  0  0  0  0  0  0  0  0
    4.0760   -0.2594   -0.1474 H   0  0  0  0  0  0  0  0  0  0  0  0
  1  2  2  0  0  0  0
  1 11  2  0  0  0  0
  2  3  2  0  0  0  0
  3  4  1  0  0  0  0
  4  5  1  0  0  0  0
  5  6  2  0  0  0  0
  5  7  1  0  0  0  0
  7 12  1  0  0  0  0
  8  7  1  0  0  0  0
  8 28  1  0  0  0  0
  9 29  1  0  0  0  0
  9  8  1  0  0  0  0
  9 30  1  0  0  0  0
 10  9  1  0  0  0  0
 11 10  1  0  0  0  0
 11  4  1  0  0  0  0
 12 13  1  1  0  0  0
 12 15  1  0  0  0  0
 12 14  1  0  0  0  0
 14 35  1  0  0  0  0
 15 20  1  0  0  0  0
 16 15  2  0  0  0  0
 16 17  1  0  0  0  0
 17 18  2  0  0  0  0
 18 19  1  0  0  0  0
 18 38  1  0  0  0  0
 19 39  1  0  0  0  0
 20 40  1  0  0  0  0
 20 19  2  0  0  0  0
 21 26  1  0  0  0  0
 21  2  1  0  0  0  0
 22 21  2  0  0  0  0
 23 24  2  0  0  0  0
 23 22  1  0  0  0  0
 24 25  1  0  0  0  0
 25 44  1  0  0  0  0
 25 26  2  0  0  0  0
 26 45  1  0  0  0  0
 27  8  1  0  0  0  0
 31 10  1  0  0  0  0
 32 10  1  0  0  0  0
 33 14  1  0  0  0  0
 34 14  1  0  0  0  0
 36 16  1  0  0  0  0
 37 17  1  0  0  0  0
 41 22  1  0  0  0  0
 42 23  1  0  0  0  0
 43 24  1  0  0  0  0
M  END
$$$$
