rmsd13.gzmat
 OpenBabel08211713403D

 45 48  0  0  1  0  0  0  0  0999 V2000
    0.0000    0.0000    0.0000 N   0  0  0  0  0  0  0  0  0  0  0  0
    1.4048    0.0000    0.0000 C   0  0  0  0  0  0  0  0  0  0  0  0
    1.8882    0.0000    1.2646 N   0  0  0  0  0  0  0  0  0  0  0  0
    0.7876    0.0055    2.0801 N   0  0  0  0  0  0  0  0  0  0  0  0
    1.0195   -0.0459    3.5065 C   0  0  0  0  0  0  0  0  0  0  0  0
    1.9075   -0.7318    3.9492 O   0  0  0  0  0  0  0  0  0  0  0  0
    0.2306    0.7881    4.2855 N   0  0  0  0  0  0  0  0  0  0  0  0
   -1.0331    1.3285    3.7687 C   0  0  0  0  0  0  0  0  0  0  0  0
   -1.9669    0.2242    3.2422 C   0  0  0  0  0  0  0  0  0  0  0  0
   -1.7835   -0.0079    1.7442 C   0  0  0  0  0  0  0  0  0  0  0  0
   -0.3758    0.0022    1.2868 C   0  0  0  0  0  0  0  0  0  0  0  0
    0.3478    0.5918    5.7562 C   0  0  1  0  0  0  0  0  0  0  0  0
    1.3672    0.1329    5.9569 H   0  0  0  0  0  0  0  0  0  0  0  0
    0.3271    1.9558    6.4548 C   0  0  0  0  0  0  0  0  0  0  0  0
   -0.7155   -0.3686    6.2447 C   0  0  0  0  0  0  0  0  0  0  0  0
   -0.4723   -1.7381    6.1031 C   0  0  0  0  0  0  0  0  0  0  0  0
   -1.4251   -2.6647    6.5150 C   0  0  0  0  0  0  0  0  0  0  0  0
   -2.6266   -2.2289    7.0730 C   0  0  0  0  0  0  0  0  0  0  0  0
   -2.8700   -0.8651    7.2166 C   0  0  0  0  0  0  0  0  0  0  0  0
   -1.9168    0.0644    6.8026 C   0  0  0  0  0  0  0  0  0  0  0  0
    2.2123    0.0017   -1.2085 C   0  0  0  0  0  0  0  0  0  0  0  0
    3.6027   -0.1296   -1.1203 C   0  0  0  0  0  0  0  0  0  0  0  0
    4.3715   -0.1297   -2.2809 C   0  0  0  0  0  0  0  0  0  0  0  0
    3.7580    0.0020   -3.5260 C   0  0  0  0  0  0  0  0  0  0  0  0
    2.3724    0.1345   -3.6137 C   0  0  0  0  0  0  0  0  0  0  0  0
    1.5966    0.1338   -2.4581 C   0  0  0  0  0  0  0  0  0  0  0  0
   -0.7971    2.0706    2.9682 H   0  0  0  0  0  0  0  0  0  0  0  0
   -1.5394    1.9024    4.5778 H   0  0  0  0  0  0  0  0  0  0  0  0
   -3.0221    0.4902    3.4510 H   0  0  0  0  0  0  0  0  0  0  0  0
   -1.8015   -0.7167    3.8089 H   0  0  0  0  0  0  0  0  0  0  0  0
   -2.2540   -0.9775    1.4463 H   0  0  0  0  0  0  0  0  0  0  0  0
   -2.3491    0.7631    1.1634 H   0  0  0  0  0  0  0  0  0  0  0  0
   -0.6026    2.5108    6.2987 H   0  0  0  0  0  0  0  0  0  0  0  0
    1.1461    2.5903    6.0855 H   0  0  0  0  0  0  0  0  0  0  0  0
    0.4639    1.8321    7.5365 H   0  0  0  0  0  0  0  0  0  0  0  0
    0.4686   -2.0824    5.6652 H   0  0  0  0  0  0  0  0  0  0  0  0
   -1.2315   -3.7306    6.4024 H   0  0  0  0  0  0  0  0  0  0  0  0
   -3.3714   -2.9527    7.3977 H   0  0  0  0  0  0  0  0  0  0  0  0
   -3.8056   -0.5227    7.6537 H   0  0  0  0  0  0  0  0  0  0  0  0
   -2.1212    1.1260    6.9242 H   0  0  0  0  0  0  0  0  0  0  0  0
    4.0778   -0.2319   -0.1418 H   0  0  0  0  0  0  0  0  0  0  0  0
    5.4524   -0.2325   -2.2140 H   0  0  0  0  0  0  0  0  0  0  0  0
    4.3616    0.0009   -4.4310 H   0  0  0  0  0  0  0  0  0  0  0  0
    1.8948    0.2383   -4.5854 H   0  0  0  0  0  0  0  0  0  0  0  0
    0.5102    0.2344   -2.5179 H   0  0  0  0  0  0  0  0  0  0  0  0
  1 11  2  0  0  0  0
  2  1  2  0  0  0  0
  2  3  2  0  0  0  0
  3  4  1  0  0  0  0
  4  5  1  0  0  0  0
  5  6  2  0  0  0  0
  5  7  1  0  0  0  0
  7 12  1  0  0  0  0
  8  7  1  0  0  0  0
  8 28  1  0  0  0  0
  9 29  1  0  0  0  0
  9  8  1  0  0  0  0
  9 30  1  0  0  0  0
 10  9  1  0  0  0  0
 11 10  1  0  0  0  0
 11  4  1  0  0  0  0
 12 13  1  1  0  0  0
 12 15  1  0  0  0  0
 12 14  1  0  0  0  0
 14 35  1  0  0  0  0
 15 20  1  0  0  0  0
 16 15  2  0  0  0  0
 16 17  1  0  0  0  0
 17 18  2  0  0  0  0
 18 19  1  0  0  0  0
 18 38  1  0  0  0  0
 19 39  1  0  0  0  0
 20 40  1  0  0  0  0
 20 19  2  0  0  0  0
 21 22  1  0  0  0  0
 21  2  1  0  0  0  0
 22 41  1  0  0  0  0
 23 42  1  0  0  0  0
 23 22  2  0  0  0  0
 24 23  1  0  0  0  0
 25 24  2  0  0  0  0
 25 26  1  0  0  0  0
 26 21  2  0  0  0  0
 27  8  1  0  0  0  0
 31 10  1  0  0  0  0
 32 10  1  0  0  0  0
 33 14  1  0  0  0  0
 34 14  1  0  0  0  0
 36 16  1  0  0  0  0
 37 17  1  0  0  0  0
 43 24  1  0  0  0  0
 44 25  1  0  0  0  0
 45 26  1  0  0  0  0
M  END
$$$$
