rmsd30.gzmat
 OpenBabel08211713403D

 45 48  0  0  1  0  0  0  0  0999 V2000
    0.0000    0.0000    0.0000 N   0  0  0  0  0  0  0  0  0  0  0  0
    1.4046    0.0000    0.0000 C   0  0  0  0  0  0  0  0  0  0  0  0
    1.8881    0.0000    1.2649 N   0  0  0  0  0  0  0  0  0  0  0  0
    0.7879    0.0032    2.0797 N   0  0  0  0  0  0  0  0  0  0  0  0
    1.0181   -0.0250    3.5073 C   0  0  0  0  0  0  0  0  0  0  0  0
    1.8918   -0.7187    3.9657 O   0  0  0  0  0  0  0  0  0  0  0  0
    0.2410    0.8374    4.2631 N   0  0  0  0  0  0  0  0  0  0  0  0
   -1.0193    1.3804    3.7406 C   0  0  0  0  0  0  0  0  0  0  0  0
   -1.9635    0.2726    3.2399 C   0  0  0  0  0  0  0  0  0  0  0  0
   -1.7817   -0.0049    1.7491 C   0  0  0  0  0  0  0  0  0  0  0  0
   -0.3756    0.0040    1.2871 C   0  0  0  0  0  0  0  0  0  0  0  0
    0.3841    0.7230    5.7390 C   0  0  1  0  0  0  0  0  0  0  0  0
    1.3563    0.1768    5.9520 H   0  0  0  0  0  0  0  0  0  0  0  0
    0.5188    2.1298    6.3330 C   0  0  0  0  0  0  0  0  0  0  0  0
   -0.7550   -0.0906    6.3152 C   0  0  0  0  0  0  0  0  0  0  0  0
   -0.6938   -1.4816    6.1849 C   0  0  0  0  0  0  0  0  0  0  0  0
   -1.7250   -2.2767    6.6750 C   0  0  0  0  0  0  0  0  0  0  0  0
   -2.8234   -1.6872    7.3007 C   0  0  0  0  0  0  0  0  0  0  0  0
   -2.8834   -0.3027    7.4368 C   0  0  0  0  0  0  0  0  0  0  0  0
   -1.8504    0.4953    6.9459 C   0  0  0  0  0  0  0  0  0  0  0  0
    2.2135    0.0034   -1.2074 C   0  0  0  0  0  0  0  0  0  0  0  0
    3.6055   -0.1076   -1.1161 C   0  0  0  0  0  0  0  0  0  0  0  0
    4.3764   -0.1050   -2.2751 C   0  0  0  0  0  0  0  0  0  0  0  0
    3.7637    0.0090   -3.5223 C   0  0  0  0  0  0  0  0  0  0  0  0
    2.3765    0.1207   -3.6133 C   0  0  0  0  0  0  0  0  0  0  0  0
    1.5984    0.1162   -2.4591 C   0  0  0  0  0  0  0  0  0  0  0  0
   -0.7820    2.1049    2.9250 H   0  0  0  0  0  0  0  0  0  0  0  0
   -1.5178    1.9722    4.5419 H   0  0  0  0  0  0  0  0  0  0  0  0
   -3.0163    0.5568    3.4383 H   0  0  0  0  0  0  0  0  0  0  0  0
   -1.8092   -0.6536    3.8327 H   0  0  0  0  0  0  0  0  0  0  0  0
   -2.2451   -0.9869    1.4835 H   0  0  0  0  0  0  0  0  0  0  0  0
   -2.3554    0.7426    1.1462 H   0  0  0  0  0  0  0  0  0  0  0  0
   -0.3491    2.7661    6.1345 H   0  0  0  0  0  0  0  0  0  0  0  0
    1.3945    2.6434    5.9086 H   0  0  0  0  0  0  0  0  0  0  0  0
    0.6583    2.0770    7.4196 H   0  0  0  0  0  0  0  0  0  0  0  0
    0.1671   -1.9449    5.6970 H   0  0  0  0  0  0  0  0  0  0  0  0
   -1.6743   -3.3596    6.5718 H   0  0  0  0  0  0  0  0  0  0  0  0
   -3.6309   -2.3083    7.6833 H   0  0  0  0  0  0  0  0  0  0  0  0
   -3.7367    0.1592    7.9292 H   0  0  0  0  0  0  0  0  0  0  0  0
   -1.9090    1.5748    7.0671 H   0  0  0  0  0  0  0  0  0  0  0  0
    4.0806   -0.1969   -0.1363 H   0  0  0  0  0  0  0  0  0  0  0  0
    5.4585   -0.1933   -2.2042 H   0  0  0  0  0  0  0  0  0  0  0  0
    4.3685    0.0106   -4.4266 H   0  0  0  0  0  0  0  0  0  0  0  0
    1.8994    0.2101   -4.5866 H   0  0  0  0  0  0  0  0  0  0  0  0
    0.5107    0.1981   -2.5212 H   0  0  0  0  0  0  0  0  0  0  0  0
  1 11  2  0  0  0  0
  2  1  2  0  0  0  0
  2  3  2  0  0  0  0
  3  4  1  0  0  0  0
  4  5  1  0  0  0  0
  5  6  2  0  0  0  0
  5  7  1  0  0  0  0
  7 12  1  0  0  0  0
  8  7  1  0  0  0  0
  8 28  1  0  0  0  0
  9 29  1  0  0  0  0
  9  8  1  0  0  0  0
  9 30  1  0  0  0  0
 10  9  1  0  0  0  0
 11 10  1  0  0  0  0
 11  4  1  0  0  0  0
 12 13  1  1  0  0  0
 12 15  1  0  0  0  0
 12 14  1  0  0  0  0
 14 35  1  0  0  0  0
 15 20  1  0  0  0  0
 16 15  2  0  0  0  0
 16 17  1  0  0  0  0
 17 18  2  0  0  0  0
 18 19  1  0  0  0  0
 18 38  1  0  0  0  0
 19 39  1  0  0  0  0
 20 40  1  0  0  0  0
 20 19  2  0  0  0  0
 21 22  1  0  0  0  0
 21  2  1  0  0  0  0
 22 41  1  0  0  0  0
 23 42  1  0  0  0  0
 23 22  2  0  0  0  0
 24 23  1  0  0  0  0
 25 24  2  0  0  0  0
 25 26  1  0  0  0  0
 26 21  2  0  0  0  0
 27  8  1  0  0  0  0
 31 10  1  0  0  0  0
 32 10  1  0  0  0  0
 33 14  1  0  0  0  0
 34 14  1  0  0  0  0
 36 16  1  0  0  0  0
 37 17  1  0  0  0  0
 43 24  1  0  0  0  0
 44 25  1  0  0  0  0
 45 26  1  0  0  0  0
M  END
$$$$
