45
rmsd30.gzmat
N          0.00000        0.00000        0.00000
C          1.40460        0.00000        0.00000
N          1.88810        0.00000        1.26490
N          0.78790        0.00320        2.07970
C          1.01810       -0.02500        3.50730
O          1.89180       -0.71870        3.96570
N          0.24100        0.83740        4.26310
C         -1.01930        1.38040        3.74060
C         -1.96350        0.27260        3.23990
C         -1.78170       -0.00490        1.74910
C         -0.37560        0.00400        1.28710
C          0.38410        0.72300        5.73900
H          1.35630        0.17680        5.95200
C          0.51880        2.12980        6.33300
C         -0.75500       -0.09060        6.31520
C         -0.69380       -1.48160        6.18490
C         -1.72500       -2.27670        6.67500
C         -2.82340       -1.68720        7.30070
C         -2.88340       -0.30270        7.43680
C         -1.85040        0.49530        6.94590
C          2.21350        0.00340       -1.20740
C          3.60550       -0.10760       -1.11610
C          4.37640       -0.10500       -2.27510
C          3.76370        0.00900       -3.52230
C          2.37650        0.12070       -3.61330
C          1.59840        0.11620       -2.45910
H         -0.78200        2.10490        2.92500
H         -1.51780        1.97220        4.54190
H         -3.01630        0.55680        3.43830
H         -1.80920       -0.65360        3.83270
H         -2.24510       -0.98690        1.48350
H         -2.35540        0.74260        1.14620
H         -0.34910        2.76610        6.13450
H          1.39450        2.64340        5.90860
H          0.65830        2.07700        7.41960
H          0.16710       -1.94490        5.69700
H         -1.67430       -3.35960        6.57180
H         -3.63090       -2.30830        7.68330
H         -3.73670        0.15920        7.92920
H         -1.90900        1.57480        7.06710
H          4.08060       -0.19690       -0.13630
H          5.45850       -0.19330       -2.20420
H          4.36850        0.01060       -4.42660
H          1.89940        0.21010       -4.58660
H          0.51070        0.19810       -2.52120
