35
rmsd63.gzmat
C          0.00000        0.00000        0.00000
O          1.43710        0.00000        0.00000
C          2.02130        0.00000        1.19940
N          1.30590       -0.04880        2.35380
C          2.02150       -0.04510        3.51250
C          1.27700       -0.09730        4.79790
N          3.37530        0.00960        3.54830
C          4.02780        0.05670        2.34080
N          5.39820        0.11340        2.37440
C          6.26850        0.16360        1.24570
N          7.52220        0.22980        1.50090
S          8.88920        0.21950        0.44490
O          8.93620       -1.03890       -0.24820
O          8.93570        1.46500       -0.28020
C         10.19590        0.26610        1.64070
C         11.14770        1.28060        1.51510
C         12.22770        1.34850        2.39290
C         12.36480        0.40580        3.41140
C         11.41630       -0.60350        3.55970
C         10.34540       -0.65130        2.67170
Cl         9.20380       -1.89960        2.91350
O          5.76970        0.14930        0.01710
N          3.38110        0.05010        1.13230
H         -0.21090        0.02050       -1.07780
H         -0.38900        0.88960        0.50720
H         -0.38620       -0.90950        0.47330
H          1.88900       -0.52610        5.61050
H          0.35120       -0.69170        4.70780
H          0.97720        0.91730        5.11680
H          5.85130        0.11120        3.30400
H         11.05470        2.04030        0.72540
H         12.96620        2.14020        2.28210
H         13.21300        0.45890        4.09330
H         11.51810       -1.33770        4.35750
H          4.75700        0.10920       -0.07190
