rmsd2.gzmat
 OpenBabel08211713373D

 35 36  0  0  0  0  0  0  0  0999 V2000
    0.0000    0.0000    0.0000 C   0  0  0  0  0  0  0  0  0  0  0  0
    1.4373    0.0000    0.0000 O   0  0  0  0  0  0  0  0  0  0  0  0
    2.0218    0.0000    1.1995 C   0  0  0  0  0  0  0  0  0  0  0  0
    1.3049   -0.0379    2.3533 N   0  0  0  0  0  0  0  0  0  0  0  0
    2.0199   -0.0424    3.5128 C   0  0  0  0  0  0  0  0  0  0  0  0
    1.2785   -0.0957    4.7996 C   0  0  0  0  0  0  0  0  0  0  0  0
    3.3738   -0.0037    3.5488 N   0  0  0  0  0  0  0  0  0  0  0  0
    4.0275    0.0408    2.3415 C   0  0  0  0  0  0  0  0  0  0  0  0
    5.3979    0.0854    2.3822 N   0  0  0  0  0  0  0  0  0  0  0  0
    6.2777    0.1687    1.2621 C   0  0  0  0  0  0  0  0  0  0  0  0
    7.5244    0.2611    1.5368 N   0  0  0  0  0  0  0  0  0  0  0  0
    8.9322    0.2871    0.5390 S   0  0  0  0  0  0  0  0  0  0  0  0
    8.9893   -0.9223   -0.2351 O   0  0  0  0  0  0  0  0  0  0  0  0
    9.0365    1.5763   -0.0980 O   0  0  0  0  0  0  0  0  0  0  0  0
   10.1713    0.2229    1.8050 C   0  0  0  0  0  0  0  0  0  0  0  0
   11.1420    1.2267    1.8153 C   0  0  0  0  0  0  0  0  0  0  0  0
   12.1571    1.2176    2.7704 C   0  0  0  0  0  0  0  0  0  0  0  0
   12.2104    0.2063    3.7290 C   0  0  0  0  0  0  0  0  0  0  0  0
   11.2444   -0.7975    3.7382 C   0  0  0  0  0  0  0  0  0  0  0  0
   10.2393   -0.7676    2.7756 C   0  0  0  0  0  0  0  0  0  0  0  0
    9.0731   -2.0154    2.8475 Cl  0  0  0  0  0  0  0  0  0  0  0  0
    5.7896    0.1522    0.0289 O   0  0  0  0  0  0  0  0  0  0  0  0
    3.3827    0.0411    1.1323 N   0  0  0  0  0  0  0  0  0  0  0  0
   -0.2102    0.0326   -1.0779 H   0  0  0  0  0  0  0  0  0  0  0  0
   -0.3916    0.8831    0.5171 H   0  0  0  0  0  0  0  0  0  0  0  0
   -0.3856   -0.9158    0.4622 H   0  0  0  0  0  0  0  0  0  0  0  0
    1.9320    0.1276    5.6610 H   0  0  0  0  0  0  0  0  0  0  0  0
    0.8459   -1.0992    4.9612 H   0  0  0  0  0  0  0  0  0  0  0  0
    0.4367    0.6179    4.8101 H   0  0  0  0  0  0  0  0  0  0  0  0
    5.8442    0.0807    3.3153 H   0  0  0  0  0  0  0  0  0  0  0  0
   11.1152    2.0390    1.0747 H   0  0  0  0  0  0  0  0  0  0  0  0
   12.9098    2.0040    2.7677 H   0  0  0  0  0  0  0  0  0  0  0  0
   13.0064    0.2009    4.4729 H   0  0  0  0  0  0  0  0  0  0  0  0
   11.2815   -1.5868    4.4877 H   0  0  0  0  0  0  0  0  0  0  0  0
    4.7779    0.0981   -0.0654 H   0  0  0  0  0  0  0  0  0  0  0  0
  1  2  1  0  0  0  0
  1 26  1  0  0  0  0
  1 25  1  0  0  0  0
  2  3  1  0  0  0  0
  3  4  2  0  0  0  0
  4  5  2  0  0  0  0
  5  7  2  0  0  0  0
  5  6  1  0  0  0  0
  6 29  1  0  0  0  0
  6 28  1  0  0  0  0
  6 27  1  0  0  0  0
  8  9  1  0  0  0  0
  8  7  2  0  0  0  0
  9 30  1  0  0  0  0
 10 11  2  0  0  0  0
 10  9  1  0  0  0  0
 12 11  1  0  0  0  0
 12 15  1  0  0  0  0
 13 12  2  0  0  0  0
 14 12  2  0  0  0  0
 15 16  2  0  0  0  0
 15 20  1  0  0  0  0
 16 17  1  0  0  0  0
 17 18  2  0  0  0  0
 18 19  1  0  0  0  0
 18 33  1  0  0  0  0
 19 34  1  0  0  0  0
 20 21  1  0  0  0  0
 20 19  2  0  0  0  0
 22 10  1  0  0  0  0
 23  3  2  0  0  0  0
 23  8  2  0  0  0  0
 24  1  1  0  0  0  0
 31 16  1  0  0  0  0
 32 17  1  0  0  0  0
 35 22  1  0  0  0  0
M  END
$$$$
