35

C          0.21740       -0.12290       -0.20020
O          1.63660       -0.06020       -0.05690
C          2.14860       -0.03850        1.15960
N          3.48950        0.02120        1.20920
C          4.01470        0.04400        2.42590
C          5.50210        0.11110        2.57490
N          3.28220        0.01090        3.55720
C          1.95270       -0.04880        3.39440
N          1.16450       -0.08350        4.51070
C          1.57490       -0.06440        5.85040
N          0.63170       -0.11110        6.72190
S          0.99900       -0.04850        8.35690
O          1.46440       -1.36560        8.79990
O          1.77040        1.14910        8.68440
C         -0.67080        0.16170        8.99960
C         -1.14630       -0.83420        9.85540
C         -2.40570       -0.71300       10.44400
C         -3.19140        0.40910       10.17110
C         -2.72300        1.40740        9.31470
C         -1.45900        1.28990        8.72950
Cl        -0.92090        2.55770        7.66510
O          2.86170       -0.00700        6.08750
N          1.33250       -0.07580        2.21090
H          0.02930       -0.13050       -1.28020
H         -0.26160        0.74980        0.26720
H         -0.18250       -1.03540        0.26590
H          5.86040       -0.75680        3.15060
H          5.78080        1.01210        3.14400
H          5.98050        0.12930        1.58920
H          0.16050       -0.11930        4.36580
H         -0.50560       -1.69720       10.04170
H         -2.77150       -1.49470       11.11290
H         -4.17920        0.51370       10.62580
H         -3.32780        2.28760        9.09250
H          3.35810        0.01950        5.20990
