35
rmsd2.gzmat
C          0.00000        0.00000        0.00000
O          1.43730        0.00000        0.00000
C          2.02180        0.00000        1.19950
N          1.30490       -0.03790        2.35330
C          2.01990       -0.04240        3.51280
C          1.27850       -0.09570        4.79960
N          3.37380       -0.00370        3.54880
C          4.02750        0.04080        2.34150
N          5.39790        0.08540        2.38220
C          6.27770        0.16870        1.26210
N          7.52440        0.26110        1.53680
S          8.93220        0.28710        0.53900
O          8.98930       -0.92230       -0.23510
O          9.03650        1.57630       -0.09800
C         10.17130        0.22290        1.80500
C         11.14200        1.22670        1.81530
C         12.15710        1.21760        2.77040
C         12.21040        0.20630        3.72900
C         11.24440       -0.79750        3.73820
C         10.23930       -0.76760        2.77560
Cl         9.07310       -2.01540        2.84750
O          5.78960        0.15220        0.02890
N          3.38270        0.04110        1.13230
H         -0.21020        0.03260       -1.07790
H         -0.39160        0.88310        0.51710
H         -0.38560       -0.91580        0.46220
H          1.93200        0.12760        5.66100
H          0.84590       -1.09920        4.96120
H          0.43670        0.61790        4.81010
H          5.84420        0.08070        3.31530
H         11.11520        2.03900        1.07470
H         12.90980        2.00400        2.76770
H         13.00640        0.20090        4.47290
H         11.28150       -1.58680        4.48770
H          4.77790        0.09810       -0.06540
