35

C          0.13480       -0.26590       -0.07520
O          1.55690       -0.14530        0.00950
C          2.10610       -0.03810        1.20450
N          1.34720       -0.04220        2.29490
C          2.00410        0.07210        3.46300
C          1.18070        0.06970        4.71310
N          3.32630        0.18560        3.57620
C          3.99960        0.17900        2.41610
N          5.35880        0.29170        2.49150
C          6.28130        0.30790        1.43760
N          7.51400        0.42930        1.77970
S          8.71580        0.41480        0.61070
O          8.65800       -0.80070       -0.19910
O          8.77700        1.72740       -0.03810
C         10.14690        0.30020        1.69900
C         11.06860        1.34780        1.64010
C         12.23430        1.30260        2.40580
C         12.47480        0.20460        3.23500
C         11.55640       -0.84510        3.30020
C         10.39130       -0.80370        2.52890
Cl         9.27440       -2.13320        2.64800
O          5.81420        0.20490        0.21760
N          3.44130        0.06950        1.20490
H         -0.09020       -0.34090       -1.14550
H         -0.35710        0.61460        0.36250
H         -0.21180       -1.16350        0.45650
H          1.81950        0.17370        5.59760
H          0.60300       -0.86610        4.77280
H          0.44950        0.89230        4.67570
H          5.75940        0.36430        3.42140
H         10.84440        2.18970        0.98370
H         12.95130        2.12450        2.35480
H         13.38360        0.15940        3.83950
H         11.73190       -1.70710        3.94540
H          4.81360        0.12180        0.24480
