
     RDKit          3D

 35 36  0  0  0  0  0  0  0  0999 V2000
    0.1348   -0.2659   -0.0752 C   0  0  0  0  0  0  0  0  0  0  0  0
    1.5569   -0.1453    0.0095 O   0  0  0  0  0  0  0  0  0  0  0  0
    2.1061   -0.0381    1.2045 C   0  0  0  0  0  0  0  0  0  0  0  0
    1.3472   -0.0422    2.2949 N   0  0  0  0  0  0  0  0  0  0  0  0
    2.0041    0.0721    3.4630 C   0  0  0  0  0  0  0  0  0  0  0  0
    1.1807    0.0697    4.7131 C   0  0  0  0  0  0  0  0  0  0  0  0
    3.3263    0.1856    3.5762 N   0  0  0  0  0  0  0  0  0  0  0  0
    3.9996    0.1790    2.4161 C   0  0  0  0  0  0  0  0  0  0  0  0
    5.3588    0.2917    2.4915 N   0  0  0  0  0  0  0  0  0  0  0  0
    6.2813    0.3079    1.4376 C   0  0  0  0  0  0  0  0  0  0  0  0
    7.5140    0.4293    1.7797 N   0  0  0  0  0  0  0  0  0  0  0  0
    8.7158    0.4148    0.6107 S   0  0  0  0  0  0  0  0  0  0  0  0
    8.6580   -0.8007   -0.1991 O   0  0  0  0  0  0  0  0  0  0  0  0
    8.7770    1.7274   -0.0381 O   0  0  0  0  0  0  0  0  0  0  0  0
   10.1469    0.3002    1.6990 C   0  0  0  0  0  0  0  0  0  0  0  0
   11.0686    1.3478    1.6401 C   0  0  0  0  0  0  0  0  0  0  0  0
   12.2343    1.3026    2.4058 C   0  0  0  0  0  0  0  0  0  0  0  0
   12.4748    0.2046    3.2350 C   0  0  0  0  0  0  0  0  0  0  0  0
   11.5564   -0.8451    3.3002 C   0  0  0  0  0  0  0  0  0  0  0  0
   10.3913   -0.8037    2.5289 C   0  0  0  0  0  0  0  0  0  0  0  0
    9.2744   -2.1332    2.6480 Cl  0  0  0  0  0  0  0  0  0  0  0  0
    5.8142    0.2049    0.2176 O   0  0  0  0  0  0  0  0  0  0  0  0
    3.4413    0.0695    1.2049 N   0  0  0  0  0  0  0  0  0  0  0  0
   -0.0902   -0.3409   -1.1455 H   0  0  0  0  0  0  0  0  0  0  0  0
   -0.3571    0.6146    0.3625 H   0  0  0  0  0  0  0  0  0  0  0  0
   -0.2118   -1.1635    0.4565 H   0  0  0  0  0  0  0  0  0  0  0  0
    1.8195    0.1737    5.5976 H   0  0  0  0  0  0  0  0  0  0  0  0
    0.6030   -0.8661    4.7728 H   0  0  0  0  0  0  0  0  0  0  0  0
    0.4495    0.8923    4.6757 H   0  0  0  0  0  0  0  0  0  0  0  0
    5.7594    0.3643    3.4214 H   0  0  0  0  0  0  0  0  0  0  0  0
   10.8444    2.1897    0.9837 H   0  0  0  0  0  0  0  0  0  0  0  0
   12.9513    2.1245    2.3548 H   0  0  0  0  0  0  0  0  0  0  0  0
   13.3836    0.1594    3.8395 H   0  0  0  0  0  0  0  0  0  0  0  0
   11.7319   -1.7071    3.9454 H   0  0  0  0  0  0  0  0  0  0  0  0
    4.8136    0.1218    0.2448 H   0  0  0  0  0  0  0  0  0  0  0  0
  1  2  1  0
  1 24  1  0
  1 25  1  0
  1 26  1  0
  2  3  1  0
  3  4  2  0
  3 23  1  0
  4  5  1  0
  5  6  1  0
  5  7  2  0
  6 27  1  0
  6 28  1  0
  6 29  1  0
  7  8  1  0
  8  9  1  0
  8 23  2  0
  9 10  1  0
  9 30  1  0
 10 11  2  0
 10 22  1  0
 12 11  1  0
 12 13  2  0
 12 14  2  0
 12 15  1  0
 15 16  2  0
 15 20  1  0
 16 17  1  0
 16 31  1  0
 17 18  2  0
 17 32  1  0
 18 19  1  0
 18 33  1  0
 19 20  2  0
 19 34  1  0
 20 21  1  0
 22 35  1  0
M  END

