rmsd9.gzmat
 OpenBabel08211713373D

 35 36  0  0  0  0  0  0  0  0999 V2000
    0.0000    0.0000    0.0000 C   0  0  0  0  0  0  0  0  0  0  0  0
    1.4371    0.0000    0.0000 O   0  0  0  0  0  0  0  0  0  0  0  0
    2.0234    0.0000    1.1983 C   0  0  0  0  0  0  0  0  0  0  0  0
    1.3091    0.0299    2.3542 N   0  0  0  0  0  0  0  0  0  0  0  0
    2.0271    0.0353    3.5114 C   0  0  0  0  0  0  0  0  0  0  0  0
    1.2862    0.0549    4.7997 C   0  0  0  0  0  0  0  0  0  0  0  0
    3.3819    0.0146    3.5440 N   0  0  0  0  0  0  0  0  0  0  0  0
    4.0326   -0.0215    2.3351 C   0  0  0  0  0  0  0  0  0  0  0  0
    5.4038   -0.0506    2.3688 N   0  0  0  0  0  0  0  0  0  0  0  0
    6.2779   -0.1187    1.2429 C   0  0  0  0  0  0  0  0  0  0  0  0
    7.5302   -0.1434    1.5085 N   0  0  0  0  0  0  0  0  0  0  0  0
    8.9210   -0.3200    0.5015 S   0  0  0  0  0  0  0  0  0  0  0  0
    8.7911   -1.5120   -0.2902 O   0  0  0  0  0  0  0  0  0  0  0  0
    9.2185    0.9473   -0.1178 O   0  0  0  0  0  0  0  0  0  0  0  0
   10.1412   -0.5965    1.7574 C   0  0  0  0  0  0  0  0  0  0  0  0
   11.2598    0.2389    1.7745 C   0  0  0  0  0  0  0  0  0  0  0  0
   12.2671    0.0515    2.7197 C   0  0  0  0  0  0  0  0  0  0  0  0
   12.1622   -0.9695    3.6639 C   0  0  0  0  0  0  0  0  0  0  0  0
   11.0469   -1.8041    3.6682 C   0  0  0  0  0  0  0  0  0  0  0  0
   10.0558   -1.6008    2.7125 C   0  0  0  0  0  0  0  0  0  0  0  0
    8.7084   -2.6512    2.7705 Cl  0  0  0  0  0  0  0  0  0  0  0  0
    5.7814   -0.1431    0.0135 O   0  0  0  0  0  0  0  0  0  0  0  0
    3.3837   -0.0300    1.1276 N   0  0  0  0  0  0  0  0  0  0  0  0
   -0.2100   -0.0160   -1.0783 H   0  0  0  0  0  0  0  0  0  0  0  0
   -0.3860    0.9084    0.4755 H   0  0  0  0  0  0  0  0  0  0  0  0
   -0.3898   -0.8913    0.5041 H   0  0  0  0  0  0  0  0  0  0  0  0
    1.8551    0.5720    5.5920 H   0  0  0  0  0  0  0  0  0  0  0  0
    1.0992   -0.9742    5.1563 H   0  0  0  0  0  0  0  0  0  0  0  0
    0.3034    0.5466    4.6982 H   0  0  0  0  0  0  0  0  0  0  0  0
    5.8551   -0.0412    3.2995 H   0  0  0  0  0  0  0  0  0  0  0  0
   11.3573    1.0575    1.0472 H   0  0  0  0  0  0  0  0  0  0  0  0
   13.1371    0.7057    2.7214 H   0  0  0  0  0  0  0  0  0  0  0  0
   12.9509   -1.1142    4.4016 H   0  0  0  0  0  0  0  0  0  0  0  0
   10.9598   -2.5989    4.4077 H   0  0  0  0  0  0  0  0  0  0  0  0
    4.7676   -0.1261   -0.0761 H   0  0  0  0  0  0  0  0  0  0  0  0
  1  2  1  0  0  0  0
  1 25  1  0  0  0  0
  1 26  1  0  0  0  0
  2  3  1  0  0  0  0
  3  4  2  0  0  0  0
  4  5  2  0  0  0  0
  5  7  2  0  0  0  0
  5  6  1  0  0  0  0
  6 28  1  0  0  0  0
  6 27  1  0  0  0  0
  8  9  1  0  0  0  0
  8  7  2  0  0  0  0
  9 30  1  0  0  0  0
 10 11  2  0  0  0  0
 10  9  1  0  0  0  0
 12 11  1  0  0  0  0
 12 15  1  0  0  0  0
 13 12  2  0  0  0  0
 14 12  2  0  0  0  0
 15 16  2  0  0  0  0
 15 20  1  0  0  0  0
 16 17  1  0  0  0  0
 17 32  1  0  0  0  0
 17 18  2  0  0  0  0
 18 19  1  0  0  0  0
 18 33  1  0  0  0  0
 19 34  1  0  0  0  0
 20 21  1  0  0  0  0
 20 19  2  0  0  0  0
 22 10  1  0  0  0  0
 23  3  2  0  0  0  0
 23  8  2  0  0  0  0
 24  1  1  0  0  0  0
 29  6  1  0  0  0  0
 31 16  1  0  0  0  0
 35 22  1  0  0  0  0
M  END
$$$$
