rmsd130.gzmat
 OpenBabel08211713373D

 35 36  0  0  0  0  0  0  0  0999 V2000
    0.0000    0.0000    0.0000 C   0  0  0  0  0  0  0  0  0  0  0  0
    1.4373    0.0000    0.0000 O   0  0  0  0  0  0  0  0  0  0  0  0
    2.0207    0.0000    1.1983 C   0  0  0  0  0  0  0  0  0  0  0  0
    3.3870   -0.0039    1.1468 N   0  0  0  0  0  0  0  0  0  0  0  0
    4.0285    0.0003    2.3368 C   0  0  0  0  0  0  0  0  0  0  0  0
    5.5147    0.0119    2.3497 C   0  0  0  0  0  0  0  0  0  0  0  0
    3.3757    0.0039    3.5327 N   0  0  0  0  0  0  0  0  0  0  0  0
    2.0058    0.0048    3.5035 C   0  0  0  0  0  0  0  0  0  0  0  0
    1.2865    0.0133    4.6737 N   0  0  0  0  0  0  0  0  0  0  0  0
    1.8201   -0.0452    5.9942 C   0  0  0  0  0  0  0  0  0  0  0  0
    0.9672   -0.1448    6.9422 N   0  0  0  0  0  0  0  0  0  0  0  0
    1.1281   -0.1531    8.6610 S   0  0  0  0  0  0  0  0  0  0  0  0
    1.6792   -1.4177    9.0798 O   0  0  0  0  0  0  0  0  0  0  0  0
    1.7207    1.0840    9.0895 O   0  0  0  0  0  0  0  0  0  0  0  0
   -0.5925   -0.1570    9.0826 C   0  0  0  0  0  0  0  0  0  0  0  0
   -1.0668   -1.1964    9.8855 C   0  0  0  0  0  0  0  0  0  0  0  0
   -2.4089   -1.2420   10.2597 C   0  0  0  0  0  0  0  0  0  0  0  0
   -3.2922   -0.2520    9.8303 C   0  0  0  0  0  0  0  0  0  0  0  0
   -2.8361    0.7871    9.0226 C   0  0  0  0  0  0  0  0  0  0  0  0
   -1.4926    0.8123    8.6604 C   0  0  0  0  0  0  0  0  0  0  0  0
   -0.9961    2.1015    7.6538 Cl  0  0  0  0  0  0  0  0  0  0  0  0
    3.1345    0.0053    6.1782 O   0  0  0  0  0  0  0  0  0  0  0  0
    1.2799    0.0035    2.3405 N   0  0  0  0  0  0  0  0  0  0  0  0
   -0.2109    0.0002   -1.0780 H   0  0  0  0  0  0  0  0  0  0  0  0
   -0.3900    0.8996    0.4891 H   0  0  0  0  0  0  0  0  0  0  0  0
   -0.3878   -0.9006    0.4890 H   0  0  0  0  0  0  0  0  0  0  0  0
    5.9281   -0.2461    3.3388 H   0  0  0  0  0  0  0  0  0  0  0  0
    5.8986    1.0118    2.0750 H   0  0  0  0  0  0  0  0  0  0  0  0
    5.9295   -0.6958    1.6087 H   0  0  0  0  0  0  0  0  0  0  0  0
    0.2556    0.0176    4.5972 H   0  0  0  0  0  0  0  0  0  0  0  0
   -0.3909   -1.9936   10.2263 H   0  0  0  0  0  0  0  0  0  0  0  0
   -2.7692   -2.0545   10.8879 H   0  0  0  0  0  0  0  0  0  0  0  0
   -4.3405   -0.2910   10.1246 H   0  0  0  0  0  0  0  0  0  0  0  0
   -3.5227    1.5622    8.6855 H   0  0  0  0  0  0  0  0  0  0  0  0
    3.7066    0.0411    5.3386 H   0  0  0  0  0  0  0  0  0  0  0  0
  1 26  1  0  0  0  0
  1 25  1  0  0  0  0
  2  1  1  0  0  0  0
  2  3  1  0  0  0  0
  3 23  2  0  0  0  0
  4  3  2  0  0  0  0
  4  5  2  0  0  0  0
  5  6  1  0  0  0  0
  5  7  2  0  0  0  0
  6 27  1  0  0  0  0
  8  7  2  0  0  0  0
  8  9  1  0  0  0  0
  9 10  1  0  0  0  0
 10 22  1  0  0  0  0
 10 11  2  0  0  0  0
 11 12  1  0  0  0  0
 12 13  2  0  0  0  0
 12 15  1  0  0  0  0
 12 14  2  0  0  0  0
 15 16  2  0  0  0  0
 16 31  1  0  0  0  0
 16 17  1  0  0  0  0
 17 32  1  0  0  0  0
 18 33  1  0  0  0  0
 18 17  2  0  0  0  0
 19 18  1  0  0  0  0
 20 19  2  0  0  0  0
 20 15  1  0  0  0  0
 21 20  1  0  0  0  0
 23  8  2  0  0  0  0
 24  1  1  0  0  0  0
 28  6  1  0  0  0  0
 29  6  1  0  0  0  0
 30  9  1  0  0  0  0
 34 19  1  0  0  0  0
 35 22  1  0  0  0  0
M  END
$$$$
