rmsd71.gzmat
 OpenBabel08211713373D

 35 36  0  0  0  0  0  0  0  0999 V2000
    0.0000    0.0000    0.0000 C   0  0  0  0  0  0  0  0  0  0  0  0
    1.4368    0.0000    0.0000 O   0  0  0  0  0  0  0  0  0  0  0  0
    2.0237    0.0000    1.1981 C   0  0  0  0  0  0  0  0  0  0  0  0
    1.3112    0.0489    2.3542 N   0  0  0  0  0  0  0  0  0  0  0  0
    2.0305    0.0561    3.5109 C   0  0  0  0  0  0  0  0  0  0  0  0
    1.2938    0.1053    4.8010 C   0  0  0  0  0  0  0  0  0  0  0  0
    3.3843    0.0134    3.5419 N   0  0  0  0  0  0  0  0  0  0  0  0
    4.0332   -0.0396    2.3323 C   0  0  0  0  0  0  0  0  0  0  0  0
    5.4037   -0.0849    2.3679 N   0  0  0  0  0  0  0  0  0  0  0  0
    6.2811   -0.1464    1.2444 C   0  0  0  0  0  0  0  0  0  0  0  0
    7.5312   -0.1924    1.5156 N   0  0  0  0  0  0  0  0  0  0  0  0
    8.9382   -0.1696    0.5168 S   0  0  0  0  0  0  0  0  0  0  0  0
    9.1035   -1.4631   -0.0983 O   0  0  0  0  0  0  0  0  0  0  0  0
    8.9366    1.0277   -0.2783 O   0  0  0  0  0  0  0  0  0  0  0  0
   10.1746   -0.0211    1.7788 C   0  0  0  0  0  0  0  0  0  0  0  0
   11.2016   -0.9672    1.7987 C   0  0  0  0  0  0  0  0  0  0  0  0
   12.2179   -0.8869    2.7494 C   0  0  0  0  0  0  0  0  0  0  0  0
   12.2140    0.1368    3.6965 C   0  0  0  0  0  0  0  0  0  0  0  0
   11.1909    1.0822    3.6974 C   0  0  0  0  0  0  0  0  0  0  0  0
   10.1881    0.9835    2.7375 C   0  0  0  0  0  0  0  0  0  0  0  0
    8.9539    2.1650    2.7974 Cl  0  0  0  0  0  0  0  0  0  0  0  0
    5.7873   -0.1643    0.0135 O   0  0  0  0  0  0  0  0  0  0  0  0
    3.3839   -0.0475    1.1259 N   0  0  0  0  0  0  0  0  0  0  0  0
   -0.2105    0.0269   -1.0776 H   0  0  0  0  0  0  0  0  0  0  0  0
   -0.3913    0.8855    0.5125 H   0  0  0  0  0  0  0  0  0  0  0  0
   -0.3849   -0.9126    0.4666 H   0  0  0  0  0  0  0  0  0  0  0  0
    1.9408    0.4365    5.6323 H   0  0  0  0  0  0  0  0  0  0  0  0
    0.9045   -0.8941    5.0662 H   0  0  0  0  0  0  0  0  0  0  0  0
    0.4246    0.7831    4.7462 H   0  0  0  0  0  0  0  0  0  0  0  0
    5.8533   -0.0666    3.2994 H   0  0  0  0  0  0  0  0  0  0  0  0
   11.2188   -1.7901    1.0699 H   0  0  0  0  0  0  0  0  0  0  0  0
   13.0162   -1.6268    2.7534 H   0  0  0  0  0  0  0  0  0  0  0  0
   13.0100    0.1972    4.4381 H   0  0  0  0  0  0  0  0  0  0  0  0
   11.1827    1.8796    4.4392 H   0  0  0  0  0  0  0  0  0  0  0  0
    4.7749   -0.1215   -0.0781 H   0  0  0  0  0  0  0  0  0  0  0  0
  1  2  1  0  0  0  0
  1 26  1  0  0  0  0
  1 25  1  0  0  0  0
  2  3  1  0  0  0  0
  3  4  2  0  0  0  0
  4  5  2  0  0  0  0
  5  7  2  0  0  0  0
  5  6  1  0  0  0  0
  6 28  1  0  0  0  0
  6 27  1  0  0  0  0
  8  9  1  0  0  0  0
  8  7  2  0  0  0  0
  9 30  1  0  0  0  0
 10 11  2  0  0  0  0
 10  9  1  0  0  0  0
 12 11  1  0  0  0  0
 12 15  1  0  0  0  0
 13 12  2  0  0  0  0
 14 12  2  0  0  0  0
 15 16  2  0  0  0  0
 15 20  1  0  0  0  0
 16 17  1  0  0  0  0
 17 32  1  0  0  0  0
 17 18  2  0  0  0  0
 18 19  1  0  0  0  0
 18 33  1  0  0  0  0
 19 34  1  0  0  0  0
 20 21  1  0  0  0  0
 20 19  2  0  0  0  0
 22 10  1  0  0  0  0
 23  3  2  0  0  0  0
 23  8  2  0  0  0  0
 24  1  1  0  0  0  0
 29  6  1  0  0  0  0
 31 16  1  0  0  0  0
 35 22  1  0  0  0  0
M  END
$$$$
