rmsd15.gzmat
 OpenBabel08211713373D

 29 30  0  0  0  0  0  0  0  0999 V2000
    0.0000    0.0000    0.0000 C   0  0  0  0  0  0  0  0  0  0  0  0
    1.3952    0.0000    0.0000 C   0  0  0  0  0  0  0  0  0  0  0  0
    2.0174    0.0000    1.2480 C   0  0  0  0  0  0  0  0  0  0  0  0
    1.3045    0.0084    2.4520 C   0  0  0  0  0  0  0  0  0  0  0  0
   -0.0909    0.0041    2.4014 C   0  0  0  0  0  0  0  0  0  0  0  0
   -0.7595   -0.0049    1.1751 C   0  0  0  0  0  0  0  0  0  0  0  0
   -0.8633   -0.0070    3.6464 C   0  0  0  0  0  0  0  0  0  0  0  0
   -0.7236    0.9405    4.5840 C   0  0  0  0  0  0  0  0  0  0  0  0
   -1.4564    0.9550    5.8453 C   0  0  0  0  0  0  0  0  0  0  0  0
   -2.7202    0.3589    5.9646 C   0  0  0  0  0  0  0  0  0  0  0  0
   -3.3958    0.3649    7.1765 C   0  0  0  0  0  0  0  0  0  0  0  0
   -2.7873    0.9841    8.2739 C   0  0  0  0  0  0  0  0  0  0  0  0
   -1.5353    1.5958    8.1845 C   0  0  0  0  0  0  0  0  0  0  0  0
   -0.8784    1.5781    6.9585 C   0  0  0  0  0  0  0  0  0  0  0  0
   -3.5036    0.9506    9.4268 O   0  0  0  0  0  0  0  0  0  0  0  0
    3.3723   -0.0077    1.2165 O   0  0  0  0  0  0  0  0  0  0  0  0
   -0.5741    0.0032   -1.2277 O   0  0  0  0  0  0  0  0  0  0  0  0
    1.9662   -0.0013   -0.9231 H   0  0  0  0  0  0  0  0  0  0  0  0
    1.8187    0.0099    3.4049 H   0  0  0  0  0  0  0  0  0  0  0  0
   -1.8411   -0.0077    1.1380 H   0  0  0  0  0  0  0  0  0  0  0  0
   -1.5517   -0.8465    3.7529 H   0  0  0  0  0  0  0  0  0  0  0  0
   -0.0210    1.7677    4.4408 H   0  0  0  0  0  0  0  0  0  0  0  0
   -3.1821   -0.1088    5.0942 H   0  0  0  0  0  0  0  0  0  0  0  0
   -4.3742   -0.0946    7.2883 H   0  0  0  0  0  0  0  0  0  0  0  0
   -1.0855    2.0747    9.0466 H   0  0  0  0  0  0  0  0  0  0  0  0
    0.0998    2.0509    6.8668 H   0  0  0  0  0  0  0  0  0  0  0  0
   -3.0385    1.4015   10.1719 H   0  0  0  0  0  0  0  0  0  0  0  0
    3.7684   -0.0222    2.1219 H   0  0  0  0  0  0  0  0  0  0  0  0
   -1.5610    0.0096   -1.1813 H   0  0  0  0  0  0  0  0  0  0  0  0
  1  2  2  0  0  0  0
  1  6  1  0  0  0  0
  2  3  1  0  0  0  0
  3  4  2  0  0  0  0
  4 19  1  0  0  0  0
  5  4  1  0  0  0  0
  5  7  1  0  0  0  0
  6  5  2  0  0  0  0
  7 21  1  0  0  0  0
  7  8  2  0  0  0  0
  8  9  1  0  0  0  0
  9 10  2  0  0  0  0
  9 14  1  0  0  0  0
 10 11  1  0  0  0  0
 11 24  1  0  0  0  0
 11 12  2  0  0  0  0
 12 15  1  0  0  0  0
 13 12  1  0  0  0  0
 13 25  1  0  0  0  0
 14 13  2  0  0  0  0
 15 27  1  0  0  0  0
 16  3  1  0  0  0  0
 16 28  1  0  0  0  0
 17 29  1  0  0  0  0
 17  1  1  0  0  0  0
 18  2  1  0  0  0  0
 20  6  1  0  0  0  0
 22  8  1  0  0  0  0
 23 10  1  0  0  0  0
 26 14  1  0  0  0  0
M  END
$$$$
