29
rmsd11.gzmat
C          0.00000        0.00000        0.00000
C          1.39550        0.00000        0.00000
C          2.01710        0.00000        1.24830
C          1.30360        0.00160        2.45190
C         -0.09280        0.01230        2.40390
C         -0.75920        0.00590        1.17440
C         -0.88500        0.03730        3.63290
C         -0.52200        0.74710        4.71230
C         -1.31260        0.83020        5.93430
C         -2.15230       -0.21940        6.33500
C         -2.91020       -0.11740        7.49270
C         -2.81170        1.05560        8.24950
C         -1.97870        2.11430        7.88190
C         -1.22740        1.98770        6.71830
O         -3.58210        1.08880        9.36660
O          3.37260        0.00240        1.22020
O         -0.57930       -0.00390       -1.22560
H          1.96750        0.00020       -0.92250
H          1.82050       -0.01330        3.40300
H         -1.84120        0.01810        1.13620
H         -1.81180       -0.53790        3.60280
H          0.40070        1.33570        4.71220
H         -2.20530       -1.12820        5.73330
H         -3.57060       -0.91770        7.81830
H         -1.91580        3.01300        8.48520
H         -0.57010        2.80210        6.41160
H         -3.47130        1.92870        9.87400
H          3.76580        0.00390        2.12700
H         -1.56690       -0.00780       -1.17170
