29
rmsd12.gzmat
C          0.00000        0.00000        0.00000
C          1.39520        0.00000        0.00000
C          2.01740        0.00000        1.24800
C          1.30420       -0.00210        2.45210
C         -0.09170       -0.00440        2.40290
C         -0.75940        0.00030        1.17480
C         -0.88030       -0.00240        3.63590
C         -0.60270       -0.80100        4.67540
C         -1.39090       -0.81370        5.90470
C         -2.79150       -0.78700        5.85950
C         -3.53540       -0.80130        7.03080
C         -2.85120       -0.83810        8.25120
C         -1.45730       -0.86430        8.32670
C         -0.73320       -0.85890        7.13850
O         -3.64190       -0.84810        9.35510
O          3.37280        0.00130        1.21870
O         -0.57890        0.00190       -1.22570
H          1.96470        0.00260       -0.92360
H          1.82000        0.00900        3.40380
H         -1.84120       -0.00260        1.13570
H         -1.72150        0.69380        3.64880
H          0.24350       -1.49290        4.65420
H         -3.29870       -0.76410        4.89420
H         -4.62220       -0.78560        7.01910
H         -0.94860       -0.88820        9.28380
H          0.35600       -0.88220        7.16970
H         -3.11900       -0.88740       10.19150
H          3.76670        0.01620        2.12490
H         -1.56610        0.00260       -1.17240
