rmsd9.gzmat
 OpenBabel08211713373D

 29 30  0  0  0  0  0  0  0  0999 V2000
    0.0000    0.0000    0.0000 C   0  0  0  0  0  0  0  0  0  0  0  0
    1.3953    0.0000    0.0000 C   0  0  0  0  0  0  0  0  0  0  0  0
    2.0198    0.0000    1.2472 C   0  0  0  0  0  0  0  0  0  0  0  0
    1.3077    0.0027    2.4522 C   0  0  0  0  0  0  0  0  0  0  0  0
   -0.0863    0.0003    2.3996 C   0  0  0  0  0  0  0  0  0  0  0  0
   -0.7578   -0.0048    1.1758 C   0  0  0  0  0  0  0  0  0  0  0  0
   -0.8647   -0.0092    3.6424 C   0  0  0  0  0  0  0  0  0  0  0  0
   -1.0457    1.0888    4.3852 C   0  0  0  0  0  0  0  0  0  0  0  0
   -1.8429    1.0961    5.6095 C   0  0  0  0  0  0  0  0  0  0  0  0
   -1.7169    0.0688    6.5550 C   0  0  0  0  0  0  0  0  0  0  0  0
   -2.4826    0.0764    7.7125 C   0  0  0  0  0  0  0  0  0  0  0  0
   -3.3834    1.1301    7.9036 C   0  0  0  0  0  0  0  0  0  0  0  0
   -3.5278    2.1679    6.9808 C   0  0  0  0  0  0  0  0  0  0  0  0
   -2.7424    2.1432    5.8324 C   0  0  0  0  0  0  0  0  0  0  0  0
   -4.1034    1.0723    9.0538 O   0  0  0  0  0  0  0  0  0  0  0  0
    3.3748    0.0019    1.2145 O   0  0  0  0  0  0  0  0  0  0  0  0
   -0.5775    0.0083   -1.2262 O   0  0  0  0  0  0  0  0  0  0  0  0
    1.9657    0.0035   -0.9232 H   0  0  0  0  0  0  0  0  0  0  0  0
    1.8222    0.0057    3.4045 H   0  0  0  0  0  0  0  0  0  0  0  0
   -1.8399   -0.0071    1.1428 H   0  0  0  0  0  0  0  0  0  0  0  0
   -1.2989   -0.9759    3.9046 H   0  0  0  0  0  0  0  0  0  0  0  0
   -0.6150    2.0515    4.0964 H   0  0  0  0  0  0  0  0  0  0  0  0
   -1.0047   -0.7387    6.3825 H   0  0  0  0  0  0  0  0  0  0  0  0
   -2.3967   -0.7062    8.4621 H   0  0  0  0  0  0  0  0  0  0  0  0
   -4.2313    2.9747    7.1522 H   0  0  0  0  0  0  0  0  0  0  0  0
   -2.8361    2.9429    5.0976 H   0  0  0  0  0  0  0  0  0  0  0  0
   -4.7355    1.8255    9.1382 H   0  0  0  0  0  0  0  0  0  0  0  0
    3.7722    0.0196    2.1196 H   0  0  0  0  0  0  0  0  0  0  0  0
   -1.5648    0.0275   -1.1751 H   0  0  0  0  0  0  0  0  0  0  0  0
  1  2  2  0  0  0  0
  1  6  1  0  0  0  0
  2  3  1  0  0  0  0
  3  4  2  0  0  0  0
  4 19  1  0  0  0  0
  5  4  1  0  0  0  0
  5  7  1  0  0  0  0
  6  5  2  0  0  0  0
  7 21  1  0  0  0  0
  7  8  2  0  0  0  0
  8  9  1  0  0  0  0
  9 14  2  0  0  0  0
  9 10  1  0  0  0  0
 10 11  2  0  0  0  0
 11 12  1  0  0  0  0
 11 24  1  0  0  0  0
 12 15  1  0  0  0  0
 13 25  1  0  0  0  0
 13 12  2  0  0  0  0
 14 13  1  0  0  0  0
 15 27  1  0  0  0  0
 16  3  1  0  0  0  0
 16 28  1  0  0  0  0
 17 29  1  0  0  0  0
 17  1  1  0  0  0  0
 18  2  1  0  0  0  0
 20  6  1  0  0  0  0
 22  8  1  0  0  0  0
 23 10  1  0  0  0  0
 26 14  1  0  0  0  0
M  END
$$$$
