29
rmsd9.gzmat
C          0.00000        0.00000        0.00000
C          1.39530        0.00000        0.00000
C          2.01980        0.00000        1.24720
C          1.30770        0.00270        2.45220
C         -0.08630        0.00030        2.39960
C         -0.75780       -0.00480        1.17580
C         -0.86470       -0.00920        3.64240
C         -1.04570        1.08880        4.38520
C         -1.84290        1.09610        5.60950
C         -1.71690        0.06880        6.55500
C         -2.48260        0.07640        7.71250
C         -3.38340        1.13010        7.90360
C         -3.52780        2.16790        6.98080
C         -2.74240        2.14320        5.83240
O         -4.10340        1.07230        9.05380
O          3.37480        0.00190        1.21450
O         -0.57750        0.00830       -1.22620
H          1.96570        0.00350       -0.92320
H          1.82220        0.00570        3.40450
H         -1.83990       -0.00710        1.14280
H         -1.29890       -0.97590        3.90460
H         -0.61500        2.05150        4.09640
H         -1.00470       -0.73870        6.38250
H         -2.39670       -0.70620        8.46210
H         -4.23130        2.97470        7.15220
H         -2.83610        2.94290        5.09760
H         -4.73550        1.82550        9.13820
H          3.77220        0.01960        2.11960
H         -1.56480        0.02750       -1.17510
