rmsd8.gzmat
 OpenBabel08211713373D

 29 30  0  0  0  0  0  0  0  0999 V2000
    0.0000    0.0000    0.0000 C   0  0  0  0  0  0  0  0  0  0  0  0
    1.3952    0.0000    0.0000 C   0  0  0  0  0  0  0  0  0  0  0  0
    2.0196    0.0000    1.2474 C   0  0  0  0  0  0  0  0  0  0  0  0
    1.3088    0.0051    2.4531 C   0  0  0  0  0  0  0  0  0  0  0  0
   -0.0858    0.0002    2.4013 C   0  0  0  0  0  0  0  0  0  0  0  0
   -0.7569   -0.0069    1.1771 C   0  0  0  0  0  0  0  0  0  0  0  0
   -0.8642   -0.0060    3.6438 C   0  0  0  0  0  0  0  0  0  0  0  0
   -0.9148    1.0515    4.4620 C   0  0  0  0  0  0  0  0  0  0  0  0
   -1.6961    1.0630    5.6971 C   0  0  0  0  0  0  0  0  0  0  0  0
   -1.5910    0.0082    6.6140 C   0  0  0  0  0  0  0  0  0  0  0  0
   -2.3216    0.0240    7.7938 C   0  0  0  0  0  0  0  0  0  0  0  0
   -3.1702    1.1109    8.0334 C   0  0  0  0  0  0  0  0  0  0  0  0
   -3.3005    2.1708    7.1341 C   0  0  0  0  0  0  0  0  0  0  0  0
   -2.5471    2.1394    5.9643 C   0  0  0  0  0  0  0  0  0  0  0  0
   -3.8555    1.0600    9.2049 O   0  0  0  0  0  0  0  0  0  0  0  0
    3.3745   -0.0030    1.2132 O   0  0  0  0  0  0  0  0  0  0  0  0
   -0.5790    0.0081   -1.2254 O   0  0  0  0  0  0  0  0  0  0  0  0
    1.9677    0.0005   -0.9223 H   0  0  0  0  0  0  0  0  0  0  0  0
    1.8244    0.0097    3.4053 H   0  0  0  0  0  0  0  0  0  0  0  0
   -1.8390   -0.0111    1.1452 H   0  0  0  0  0  0  0  0  0  0  0  0
   -1.4101   -0.9299    3.8431 H   0  0  0  0  0  0  0  0  0  0  0  0
   -0.3765    1.9761    4.2365 H   0  0  0  0  0  0  0  0  0  0  0  0
   -0.9228   -0.8265    6.3992 H   0  0  0  0  0  0  0  0  0  0  0  0
   -2.2481   -0.7774    8.5243 H   0  0  0  0  0  0  0  0  0  0  0  0
   -3.9689    2.9996    7.3380 H   0  0  0  0  0  0  0  0  0  0  0  0
   -2.6275    2.9573    5.2479 H   0  0  0  0  0  0  0  0  0  0  0  0
   -4.4410    1.8453    9.3309 H   0  0  0  0  0  0  0  0  0  0  0  0
    3.7737   -0.0000    2.1175 H   0  0  0  0  0  0  0  0  0  0  0  0
   -1.5665    0.0076   -1.1743 H   0  0  0  0  0  0  0  0  0  0  0  0
  1  2  2  0  0  0  0
  1  6  1  0  0  0  0
  2  3  1  0  0  0  0
  3  4  2  0  0  0  0
  4 19  1  0  0  0  0
  5  4  1  0  0  0  0
  5  7  1  0  0  0  0
  6  5  2  0  0  0  0
  7 21  1  0  0  0  0
  7  8  2  0  0  0  0
  8  9  1  0  0  0  0
  9 14  2  0  0  0  0
  9 10  1  0  0  0  0
 10 11  2  0  0  0  0
 11 12  1  0  0  0  0
 11 24  1  0  0  0  0
 12 15  1  0  0  0  0
 13 25  1  0  0  0  0
 13 12  2  0  0  0  0
 14 13  1  0  0  0  0
 15 27  1  0  0  0  0
 16  3  1  0  0  0  0
 16 28  1  0  0  0  0
 17 29  1  0  0  0  0
 17  1  1  0  0  0  0
 18  2  1  0  0  0  0
 20  6  1  0  0  0  0
 22  8  1  0  0  0  0
 23 10  1  0  0  0  0
 26 14  1  0  0  0  0
M  END
$$$$
