29

C          0.40820        0.89790        0.14320
C          1.45680       -0.01260       -0.03660
C          1.80720       -0.85950        1.01690
C          1.11930       -0.79900        2.23640
C          0.06580        0.11400        2.42100
C         -0.28380        0.96560        1.35620
C         -0.61860        0.13450        3.71640
C         -1.64270        0.93620        4.07870
C         -2.33200        0.96430        5.36840
C         -3.38910        1.87680        5.56600
C         -4.08350        1.95220        6.76870
C         -3.73620        1.10330        7.82790
C         -2.68710        0.18600        7.65570
C         -2.00070        0.12090        6.44770
O         -4.43620        1.20630        8.98480
O          2.82840       -1.72970        0.80820
O          0.10120        1.70180       -0.90720
H          1.99080       -0.05870       -0.98530
H          1.40380       -1.46800        3.05390
H         -1.09740        1.68630        1.46590
H         -0.23390       -0.58820        4.44270
H         -2.02470        1.65790        3.34970
H         -3.67020        2.54500        4.74760
H         -4.90000        2.66250        6.91010
H         -2.40990       -0.48040        8.47860
H         -1.19010       -0.60290        6.34570
H         -4.09570        0.56840        9.62550
H          2.96820       -2.25290        1.60790
H         -0.63260        2.27960       -0.66090
