29
rmsd1.gzmat
C          0.00000        0.00000        0.00000
C          1.39460        0.00000        0.00000
C          2.01720        0.00000        1.24870
C          1.30370       -0.00290        2.45130
C         -0.09400        0.00080        2.40320
C         -0.76000        0.00040        1.17510
C         -0.84040       -0.00670        3.66180
C         -1.93630        0.73960        3.86680
C         -2.68520        0.76630        5.11800
C         -3.44060        1.90900        5.43050
C         -4.15970        1.98420        6.61340
C         -4.11840        0.88880        7.48500
C         -3.38720       -0.26490        7.19900
C         -2.67270       -0.31490        6.00530
O         -4.84240        1.02930        8.62440
O          3.37240        0.00020        1.21720
O         -0.57550       -0.00020       -1.22750
H          1.96680       -0.00240       -0.92180
H          1.81930        0.00030        3.40320
H         -1.84200       -0.01060        1.13710
H         -0.42600       -0.65130        4.43880
H         -2.31600        1.40180        3.08240
H         -3.45780        2.75060        4.73670
H         -4.74630        2.86160        6.87390
H         -3.37400       -1.10300        7.88710
H         -2.10350       -1.21240        5.75950
H         -4.77760        0.23710        9.21020
H          3.76840        0.00230        2.12270
H         -1.56270       -0.00880       -1.17970
