rmsd14.gzmat
 OpenBabel08211713373D

 29 30  0  0  0  0  0  0  0  0999 V2000
    0.0000    0.0000    0.0000 C   0  0  0  0  0  0  0  0  0  0  0  0
    1.3944    0.0000    0.0000 C   0  0  0  0  0  0  0  0  0  0  0  0
    2.0172    0.0000    1.2486 C   0  0  0  0  0  0  0  0  0  0  0  0
    1.3042   -0.0049    2.4519 C   0  0  0  0  0  0  0  0  0  0  0  0
   -0.0931   -0.0058    2.4031 C   0  0  0  0  0  0  0  0  0  0  0  0
   -0.7595   -0.0039    1.1757 C   0  0  0  0  0  0  0  0  0  0  0  0
   -0.8479   -0.0266    3.6573 C   0  0  0  0  0  0  0  0  0  0  0  0
   -1.9217    0.7448    3.8770 C   0  0  0  0  0  0  0  0  0  0  0  0
   -2.6748    0.7234    5.1284 C   0  0  0  0  0  0  0  0  0  0  0  0
   -2.0139    0.6804    6.3641 C   0  0  0  0  0  0  0  0  0  0  0  0
   -2.7344    0.6611    7.5497 C   0  0  0  0  0  0  0  0  0  0  0  0
   -4.1320    0.6772    7.4768 C   0  0  0  0  0  0  0  0  0  0  0  0
   -4.8173    0.7203    6.2613 C   0  0  0  0  0  0  0  0  0  0  0  0
   -4.0727    0.7493    5.0861 C   0  0  0  0  0  0  0  0  0  0  0  0
   -4.7715    0.6486    8.6741 O   0  0  0  0  0  0  0  0  0  0  0  0
    3.3724    0.0028    1.2150 O   0  0  0  0  0  0  0  0  0  0  0  0
   -0.5754    0.0039   -1.2273 O   0  0  0  0  0  0  0  0  0  0  0  0
    1.9662   -0.0014   -0.9221 H   0  0  0  0  0  0  0  0  0  0  0  0
    1.8210   -0.0015    3.4027 H   0  0  0  0  0  0  0  0  0  0  0  0
   -1.8414   -0.0165    1.1378 H   0  0  0  0  0  0  0  0  0  0  0  0
   -0.4738   -0.7213    4.4118 H   0  0  0  0  0  0  0  0  0  0  0  0
   -2.2943    1.4372    3.1178 H   0  0  0  0  0  0  0  0  0  0  0  0
   -0.9237    0.6706    6.3918 H   0  0  0  0  0  0  0  0  0  0  0  0
   -2.2436    0.6339    8.5192 H   0  0  0  0  0  0  0  0  0  0  0  0
   -5.9009    0.7305    6.2303 H   0  0  0  0  0  0  0  0  0  0  0  0
   -4.5853    0.7829    4.1247 H   0  0  0  0  0  0  0  0  0  0  0  0
   -5.7536    0.6523    8.5753 H   0  0  0  0  0  0  0  0  0  0  0  0
    3.7709   -0.0003    2.1195 H   0  0  0  0  0  0  0  0  0  0  0  0
   -1.5623   -0.0057   -1.1801 H   0  0  0  0  0  0  0  0  0  0  0  0
  1  2  2  0  0  0  0
  1  6  1  0  0  0  0
  2  3  1  0  0  0  0
  3  4  2  0  0  0  0
  4 19  1  0  0  0  0
  5  4  1  0  0  0  0
  5  7  1  0  0  0  0
  6  5  2  0  0  0  0
  7  8  2  0  0  0  0
  7 21  1  0  0  0  0
  8  9  1  0  0  0  0
  9 10  1  0  0  0  0
 10 23  1  0  0  0  0
 10 11  2  0  0  0  0
 11 24  1  0  0  0  0
 12 11  1  0  0  0  0
 12 15  1  0  0  0  0
 13 12  2  0  0  0  0
 14  9  2  0  0  0  0
 14 13  1  0  0  0  0
 16  3  1  0  0  0  0
 16 28  1  0  0  0  0
 17 29  1  0  0  0  0
 17  1  1  0  0  0  0
 18  2  1  0  0  0  0
 20  6  1  0  0  0  0
 22  8  1  0  0  0  0
 25 13  1  0  0  0  0
 26 14  1  0  0  0  0
 27 15  1  0  0  0  0
M  END
$$$$
