
     RDKit          3D

 29 30  0  0  0  0  0  0  0  0999 V2000
    0.4082    0.8979    0.1432 C   0  0  0  0  0  0  0  0  0  0  0  0
    1.4568   -0.0126   -0.0366 C   0  0  0  0  0  0  0  0  0  0  0  0
    1.8072   -0.8595    1.0169 C   0  0  0  0  0  0  0  0  0  0  0  0
    1.1193   -0.7990    2.2364 C   0  0  0  0  0  0  0  0  0  0  0  0
    0.0658    0.1140    2.4210 C   0  0  0  0  0  0  0  0  0  0  0  0
   -0.2838    0.9656    1.3562 C   0  0  0  0  0  0  0  0  0  0  0  0
   -0.6186    0.1345    3.7164 C   0  0  0  0  0  0  0  0  0  0  0  0
   -1.6427    0.9362    4.0787 C   0  0  0  0  0  0  0  0  0  0  0  0
   -2.3320    0.9643    5.3684 C   0  0  0  0  0  0  0  0  0  0  0  0
   -3.3891    1.8768    5.5660 C   0  0  0  0  0  0  0  0  0  0  0  0
   -4.0835    1.9522    6.7687 C   0  0  0  0  0  0  0  0  0  0  0  0
   -3.7362    1.1033    7.8279 C   0  0  0  0  0  0  0  0  0  0  0  0
   -2.6871    0.1860    7.6557 C   0  0  0  0  0  0  0  0  0  0  0  0
   -2.0007    0.1209    6.4477 C   0  0  0  0  0  0  0  0  0  0  0  0
   -4.4362    1.2063    8.9848 O   0  0  0  0  0  0  0  0  0  0  0  0
    2.8284   -1.7297    0.8082 O   0  0  0  0  0  0  0  0  0  0  0  0
    0.1012    1.7018   -0.9072 O   0  0  0  0  0  0  0  0  0  0  0  0
    1.9908   -0.0587   -0.9853 H   0  0  0  0  0  0  0  0  0  0  0  0
    1.4038   -1.4680    3.0539 H   0  0  0  0  0  0  0  0  0  0  0  0
   -1.0974    1.6863    1.4659 H   0  0  0  0  0  0  0  0  0  0  0  0
   -0.2339   -0.5882    4.4427 H   0  0  0  0  0  0  0  0  0  0  0  0
   -2.0247    1.6579    3.3497 H   0  0  0  0  0  0  0  0  0  0  0  0
   -3.6702    2.5450    4.7476 H   0  0  0  0  0  0  0  0  0  0  0  0
   -4.9000    2.6625    6.9101 H   0  0  0  0  0  0  0  0  0  0  0  0
   -2.4099   -0.4804    8.4786 H   0  0  0  0  0  0  0  0  0  0  0  0
   -1.1901   -0.6029    6.3457 H   0  0  0  0  0  0  0  0  0  0  0  0
   -4.0957    0.5684    9.6255 H   0  0  0  0  0  0  0  0  0  0  0  0
    2.9682   -2.2529    1.6079 H   0  0  0  0  0  0  0  0  0  0  0  0
   -0.6326    2.2796   -0.6609 H   0  0  0  0  0  0  0  0  0  0  0  0
  1  2  2  0
  1  6  1  0
  1 17  1  0
  2  3  1  0
  2 18  1  0
  3  4  2  0
  3 16  1  0
  4  5  1  0
  4 19  1  0
  5  6  2  0
  5  7  1  0
  6 20  1  0
  7  8  2  0
  7 21  1  0
  8  9  1  0
  8 22  1  0
  9 10  2  0
  9 14  1  0
 10 11  1  0
 10 23  1  0
 11 12  2  0
 11 24  1  0
 12 13  1  0
 12 15  1  0
 13 14  2  0
 13 25  1  0
 14 26  1  0
 15 27  1  0
 16 28  1  0
 17 29  1  0
M  END

