29

C          0.09240        0.26930       -0.05050
C          1.43800       -0.11770       -0.03290
C          2.06500       -0.33430        1.19590
C          1.35750       -0.16680        2.39390
C          0.00610        0.22160        2.38060
C         -0.62150        0.43890        1.13960
C         -0.68440        0.38170        3.66300
C         -1.97120        0.74500        3.85010
C         -2.66810        0.90700        5.12560
C         -2.05790        0.69470        6.38160
C         -2.75790        0.86030        7.56840
C         -4.10800        1.24820        7.54420
C         -4.73560        1.46480        6.31120
C         -4.02090        1.29490        5.12650
O         -4.74540        1.39580        8.73200
O          3.37000       -0.70850        1.17610
O         -0.47720        0.46920       -1.26700
H          1.98690       -0.24750       -0.96530
H          1.86030       -0.33970        3.35000
H         -1.67010        0.74170        1.09330
H         -0.06280        0.17750        4.54010
H         -2.59030        0.94840        2.97050
H         -1.01010        0.39260        6.43130
H         -2.27980        0.69440        8.53550
H         -5.78690        1.76720        6.28010
H         -4.52510        1.46790        4.17200
H         -5.66060        1.66290        8.57560
H          3.68080       -0.82490        2.08310
H         -1.39930        0.73000       -1.14650
