rmsd6.gzmat
 OpenBabel08211713373D

 29 30  0  0  0  0  0  0  0  0999 V2000
    0.0000    0.0000    0.0000 C   0  0  0  0  0  0  0  0  0  0  0  0
    1.3953    0.0000    0.0000 C   0  0  0  0  0  0  0  0  0  0  0  0
    2.0182    0.0000    1.2477 C   0  0  0  0  0  0  0  0  0  0  0  0
    1.3052    0.0103    2.4519 C   0  0  0  0  0  0  0  0  0  0  0  0
   -0.0909    0.0197    2.4031 C   0  0  0  0  0  0  0  0  0  0  0  0
   -0.7587    0.0067    1.1745 C   0  0  0  0  0  0  0  0  0  0  0  0
   -0.8814    0.0367    3.6345 C   0  0  0  0  0  0  0  0  0  0  0  0
   -0.5717    0.8040    4.6892 C   0  0  0  0  0  0  0  0  0  0  0  0
   -1.3728    0.8358    5.9098 C   0  0  0  0  0  0  0  0  0  0  0  0
   -0.7260    0.8377    7.1548 C   0  0  0  0  0  0  0  0  0  0  0  0
   -1.4595    0.8540    8.3316 C   0  0  0  0  0  0  0  0  0  0  0  0
   -2.8569    0.8809    8.2415 C   0  0  0  0  0  0  0  0  0  0  0  0
   -3.5268    0.8949    7.0175 C   0  0  0  0  0  0  0  0  0  0  0  0
   -2.7685    0.8688    5.8502 C   0  0  0  0  0  0  0  0  0  0  0  0
   -3.5123    0.8941    9.4305 O   0  0  0  0  0  0  0  0  0  0  0  0
    3.3732   -0.0111    1.2150 O   0  0  0  0  0  0  0  0  0  0  0  0
   -0.5761   -0.0083   -1.2271 O   0  0  0  0  0  0  0  0  0  0  0  0
    1.9667   -0.0019   -0.9226 H   0  0  0  0  0  0  0  0  0  0  0  0
    1.8215    0.0002    3.4034 H   0  0  0  0  0  0  0  0  0  0  0  0
   -1.8406    0.0081    1.1362 H   0  0  0  0  0  0  0  0  0  0  0  0
   -1.7558   -0.6178    3.6357 H   0  0  0  0  0  0  0  0  0  0  0  0
    0.3081    1.4529    4.6870 H   0  0  0  0  0  0  0  0  0  0  0  0
    0.3632    0.8173    7.1959 H   0  0  0  0  0  0  0  0  0  0  0  0
   -0.9790    0.8474    9.3066 H   0  0  0  0  0  0  0  0  0  0  0  0
   -4.6095    0.9259    6.9717 H   0  0  0  0  0  0  0  0  0  0  0  0
   -3.2688    0.8825    4.8813 H   0  0  0  0  0  0  0  0  0  0  0  0
   -4.4929    0.9182    9.3172 H   0  0  0  0  0  0  0  0  0  0  0  0
    3.7707   -0.0176    2.1198 H   0  0  0  0  0  0  0  0  0  0  0  0
   -1.5632   -0.0143   -1.1789 H   0  0  0  0  0  0  0  0  0  0  0  0
  1  2  2  0  0  0  0
  1  6  1  0  0  0  0
  2  3  1  0  0  0  0
  3  4  2  0  0  0  0
  4 19  1  0  0  0  0
  5  4  1  0  0  0  0
  5  7  1  0  0  0  0
  6  5  2  0  0  0  0
  7 21  1  0  0  0  0
  7  8  2  0  0  0  0
  8  9  1  0  0  0  0
  9 10  1  0  0  0  0
 10 23  1  0  0  0  0
 10 11  2  0  0  0  0
 11 24  1  0  0  0  0
 12 11  1  0  0  0  0
 12 15  1  0  0  0  0
 13 12  2  0  0  0  0
 14  9  2  0  0  0  0
 14 13  1  0  0  0  0
 16  3  1  0  0  0  0
 16 28  1  0  0  0  0
 17 29  1  0  0  0  0
 17  1  1  0  0  0  0
 18  2  1  0  0  0  0
 20  6  1  0  0  0  0
 22  8  1  0  0  0  0
 25 13  1  0  0  0  0
 26 14  1  0  0  0  0
 27 15  1  0  0  0  0
M  END
$$$$
