rmsd11.gzmat
 OpenBabel08211713373D

 29 30  0  0  0  0  0  0  0  0999 V2000
    0.0000    0.0000    0.0000 C   0  0  0  0  0  0  0  0  0  0  0  0
    1.3955    0.0000    0.0000 C   0  0  0  0  0  0  0  0  0  0  0  0
    2.0171    0.0000    1.2483 C   0  0  0  0  0  0  0  0  0  0  0  0
    1.3036    0.0016    2.4519 C   0  0  0  0  0  0  0  0  0  0  0  0
   -0.0928    0.0123    2.4039 C   0  0  0  0  0  0  0  0  0  0  0  0
   -0.7592    0.0059    1.1744 C   0  0  0  0  0  0  0  0  0  0  0  0
   -0.8850    0.0373    3.6329 C   0  0  0  0  0  0  0  0  0  0  0  0
   -0.5220    0.7471    4.7123 C   0  0  0  0  0  0  0  0  0  0  0  0
   -1.3126    0.8302    5.9343 C   0  0  0  0  0  0  0  0  0  0  0  0
   -2.1523   -0.2194    6.3350 C   0  0  0  0  0  0  0  0  0  0  0  0
   -2.9102   -0.1174    7.4927 C   0  0  0  0  0  0  0  0  0  0  0  0
   -2.8117    1.0556    8.2495 C   0  0  0  0  0  0  0  0  0  0  0  0
   -1.9787    2.1143    7.8819 C   0  0  0  0  0  0  0  0  0  0  0  0
   -1.2274    1.9877    6.7183 C   0  0  0  0  0  0  0  0  0  0  0  0
   -3.5821    1.0888    9.3666 O   0  0  0  0  0  0  0  0  0  0  0  0
    3.3726    0.0024    1.2202 O   0  0  0  0  0  0  0  0  0  0  0  0
   -0.5793   -0.0039   -1.2256 O   0  0  0  0  0  0  0  0  0  0  0  0
    1.9675    0.0002   -0.9225 H   0  0  0  0  0  0  0  0  0  0  0  0
    1.8205   -0.0133    3.4030 H   0  0  0  0  0  0  0  0  0  0  0  0
   -1.8412    0.0181    1.1362 H   0  0  0  0  0  0  0  0  0  0  0  0
   -1.8118   -0.5379    3.6028 H   0  0  0  0  0  0  0  0  0  0  0  0
    0.4007    1.3357    4.7122 H   0  0  0  0  0  0  0  0  0  0  0  0
   -2.2053   -1.1282    5.7333 H   0  0  0  0  0  0  0  0  0  0  0  0
   -3.5706   -0.9177    7.8183 H   0  0  0  0  0  0  0  0  0  0  0  0
   -1.9158    3.0130    8.4852 H   0  0  0  0  0  0  0  0  0  0  0  0
   -0.5701    2.8021    6.4116 H   0  0  0  0  0  0  0  0  0  0  0  0
   -3.4713    1.9287    9.8740 H   0  0  0  0  0  0  0  0  0  0  0  0
    3.7658    0.0039    2.1270 H   0  0  0  0  0  0  0  0  0  0  0  0
   -1.5669   -0.0078   -1.1717 H   0  0  0  0  0  0  0  0  0  0  0  0
  1  2  2  0  0  0  0
  1  6  1  0  0  0  0
  2  3  1  0  0  0  0
  3  4  2  0  0  0  0
  4 19  1  0  0  0  0
  5  4  1  0  0  0  0
  5  7  1  0  0  0  0
  6  5  2  0  0  0  0
  7  8  2  0  0  0  0
  8  9  1  0  0  0  0
  9 10  2  0  0  0  0
  9 14  1  0  0  0  0
 10 11  1  0  0  0  0
 11 24  1  0  0  0  0
 11 12  2  0  0  0  0
 12 15  1  0  0  0  0
 13 12  1  0  0  0  0
 13 25  1  0  0  0  0
 14 13  2  0  0  0  0
 15 27  1  0  0  0  0
 16  3  1  0  0  0  0
 16 28  1  0  0  0  0
 17 29  1  0  0  0  0
 17  1  1  0  0  0  0
 18  2  1  0  0  0  0
 20  6  1  0  0  0  0
 21  7  1  0  0  0  0
 22  8  1  0  0  0  0
 23 10  1  0  0  0  0
 26 14  1  0  0  0  0
M  END
$$$$
