32

Cl        -0.05510       -0.00250       -0.12240
C          1.68510        0.01100       -0.11900
C          2.33130       -0.12870        1.09650
C          3.74800       -0.12150        1.17890
N          4.39050       -0.22720        2.36580
C          3.76330       -0.37650        3.66620
C          3.34130       -1.76850        4.01470
O          2.18650       -2.23140        3.45570
C          2.01250       -3.51600        3.86220
C          3.03720       -3.89270        4.68160
C          3.90480       -2.75290        4.78000
C          4.48730        0.02390       -0.04320
C          3.79930        0.16670       -1.25540
C          2.41290        0.16830       -1.31640
S          1.65070        0.28550       -2.92740
O          2.72790        0.55760       -3.88320
O          0.73950       -0.84430       -3.09710
N          0.72550        1.69080       -2.82320
C          5.95890        0.02040       -0.03280
O          6.66000       -0.11010        0.96100
O          6.51230        0.17590       -1.24810
H          1.72850       -0.28770        1.98610
H          5.40820       -0.27110        2.29530
H          2.89930        0.30420        3.74350
H          4.49160       -0.04710        4.42050
H          1.12400       -4.01950        3.49150
H          3.16230       -4.86180        5.15930
H          4.83040       -2.67480        5.34630
H          4.36030        0.28170       -2.18200
H         -0.26560        1.46840       -2.90410
H          1.03850        2.35500       -3.53040
H          7.47470        0.15110       -1.11760
