32
rmsd48.gzmat
Cl         0.00000        0.00000        0.00000
C          1.70970        0.00000        0.00000
C          2.31550        0.00000        1.23290
C          3.73400       -0.04020        1.31450
N          4.38300       -0.03870        2.51250
C          3.68880       -0.27060        3.78410
C          3.08470       -1.62240        3.83090
O          1.69650       -1.62160        3.83040
C          1.30850       -2.94420        3.81980
C          2.40220       -3.76610        3.81450
C          3.55900       -2.90590        3.82570
C          4.47810       -0.04230        0.09420
C          3.80910       -0.02840       -1.13400
C          2.42010       -0.01410       -1.20520
S          1.66480       -0.01930       -2.78430
O          0.75460        1.09180       -2.90730
O          2.70380       -0.25710       -3.76220
N          0.67990       -1.44930       -2.77580
C          5.93200       -0.08130        0.12000
O          6.65860       -0.19190        1.08760
O          6.48260        0.02060       -1.11450
H          1.72150        0.01830        2.14460
H          5.40360       -0.15320        2.51980
H          2.91270        0.52320        3.94590
H          4.43130       -0.14300        4.61500
H          0.25060       -3.07320        3.81810
H          2.43010       -4.83590        3.80340
H          4.57660       -3.23930        3.82450
H          4.41460       -0.03960       -2.06310
H          0.97710       -2.20550       -3.36870
H         -0.31570       -1.31630       -2.83700
H          7.47420       -0.00470       -1.09930
