rmsd97.gzmat
 OpenBabel08211713393D

 32 33  0  0  0  0  0  0  0  0999 V2000
    0.0000    0.0000    0.0000 Cl  0  0  0  0  0  0  0  0  0  0  0  0
    1.7104    0.0000    0.0000 C   0  0  0  0  0  0  0  0  0  0  0  0
    2.3144    0.0000    1.2335 C   0  0  0  0  0  0  0  0  0  0  0  0
    3.7336   -0.0184    1.3167 C   0  0  0  0  0  0  0  0  0  0  0  0
    4.3825    0.0129    2.5144 N   0  0  0  0  0  0  0  0  0  0  0  0
    3.6968   -0.2260    3.7892 C   0  0  0  0  0  0  0  0  0  0  0  0
    3.2907   -1.6430    3.9286 C   0  0  0  0  0  0  0  0  0  0  0  0
    2.0470   -1.9331    3.3853 O   0  0  0  0  0  0  0  0  0  0  0  0
    1.8451   -3.2822    3.5783 C   0  0  0  0  0  0  0  0  0  0  0  0
    2.9147   -3.8416    4.2233 C   0  0  0  0  0  0  0  0  0  0  0  0
    3.8572   -2.7748    4.4492 C   0  0  0  0  0  0  0  0  0  0  0  0
    4.4777   -0.0149    0.0960 C   0  0  0  0  0  0  0  0  0  0  0  0
    3.8100    0.0074   -1.1328 C   0  0  0  0  0  0  0  0  0  0  0  0
    2.4209    0.0023   -1.2053 C   0  0  0  0  0  0  0  0  0  0  0  0
    1.6653   -0.0158   -2.7843 S   0  0  0  0  0  0  0  0  0  0  0  0
    2.6970    0.2381   -3.7655 O   0  0  0  0  0  0  0  0  0  0  0  0
    0.7803   -1.1482   -2.8987 O   0  0  0  0  0  0  0  0  0  0  0  0
    0.6434    1.3883   -2.7857 N   0  0  0  0  0  0  0  0  0  0  0  0
    5.9316   -0.0568    0.1231 C   0  0  0  0  0  0  0  0  0  0  0  0
    6.6574   -0.1167    1.0959 O   0  0  0  0  0  0  0  0  0  0  0  0
    6.4843   -0.0305   -1.1144 O   0  0  0  0  0  0  0  0  0  0  0  0
    1.7185    0.0051    2.1442 H   0  0  0  0  0  0  0  0  0  0  0  0
    5.4049   -0.0938    2.5213 H   0  0  0  0  0  0  0  0  0  0  0  0
    2.8129    0.4569    3.8845 H   0  0  0  0  0  0  0  0  0  0  0  0
    4.3949    0.0648    4.6174 H   0  0  0  0  0  0  0  0  0  0  0  0
    0.9140   -3.6280    3.1906 H   0  0  0  0  0  0  0  0  0  0  0  0
    3.0591   -4.8609    4.5144 H   0  0  0  0  0  0  0  0  0  0  0  0
    4.8072   -2.8837    4.9303 H   0  0  0  0  0  0  0  0  0  0  0  0
    4.4166    0.0243   -2.0610 H   0  0  0  0  0  0  0  0  0  0  0  0
   -0.3501    1.2256   -2.8118 H   0  0  0  0  0  0  0  0  0  0  0  0
    0.8988    2.1330   -3.4109 H   0  0  0  0  0  0  0  0  0  0  0  0
    7.4761   -0.0646   -1.0933 H   0  0  0  0  0  0  0  0  0  0  0  0
  1  2  1  0  0  0  0
  2  3  2  0  0  0  0
  3  4  1  0  0  0  0
  3 22  1  0  0  0  0
  4  5  1  0  0  0  0
  5 23  1  0  0  0  0
  5  6  1  0  0  0  0
  6 24  1  0  0  0  0
  6  7  1  0  0  0  0
  6 25  1  0  0  0  0
  7 11  2  0  0  0  0
  8  9  1  0  0  0  0
  8  7  1  0  0  0  0
  9 10  2  0  0  0  0
 10 11  1  0  0  0  0
 10 27  1  0  0  0  0
 11 28  1  0  0  0  0
 12 19  1  0  0  0  0
 12  4  2  0  0  0  0
 13 12  1  0  0  0  0
 14 13  2  0  0  0  0
 14  2  1  0  0  0  0
 15 14  1  0  0  0  0
 16 15  2  0  0  0  0
 17 15  2  0  0  0  0
 18 15  1  0  0  0  0
 19 20  2  0  0  0  0
 21 32  1  0  0  0  0
 21 19  1  0  0  0  0
 26  9  1  0  0  0  0
 29 13  1  0  0  0  0
 30 18  1  0  0  0  0
 31 18  1  0  0  0  0
M  END
$$$$
