rmsd246.gzmat
 OpenBabel08211713393D

 32 33  0  0  0  0  0  0  0  0999 V2000
    0.0000    0.0000    0.0000 Cl  0  0  0  0  0  0  0  0  0  0  0  0
    1.7100    0.0000    0.0000 C   0  0  0  0  0  0  0  0  0  0  0  0
    2.3164    0.0000    1.2329 C   0  0  0  0  0  0  0  0  0  0  0  0
    3.7353    0.0246    1.3129 C   0  0  0  0  0  0  0  0  0  0  0  0
    4.3884   -0.0401    2.5080 N   0  0  0  0  0  0  0  0  0  0  0  0
    3.7095    0.1883    3.7887 C   0  0  0  0  0  0  0  0  0  0  0  0
    3.3103    1.6064    3.9357 C   0  0  0  0  0  0  0  0  0  0  0  0
    1.9922    1.8651    3.5861 O   0  0  0  0  0  0  0  0  0  0  0  0
    1.8108    3.2223    3.7396 C   0  0  0  0  0  0  0  0  0  0  0  0
    2.9649    3.8167    4.1727 C   0  0  0  0  0  0  0  0  0  0  0  0
    3.9419    2.7647    4.3000 C   0  0  0  0  0  0  0  0  0  0  0  0
    4.4773    0.0660    0.0919 C   0  0  0  0  0  0  0  0  0  0  0  0
    3.8078    0.0537   -1.1361 C   0  0  0  0  0  0  0  0  0  0  0  0
    2.4192    0.0154   -1.2060 C   0  0  0  0  0  0  0  0  0  0  0  0
    1.6632   -0.0155   -2.7849 S   0  0  0  0  0  0  0  0  0  0  0  0
    2.6966    0.2239   -3.7683 O   0  0  0  0  0  0  0  0  0  0  0  0
    0.7747   -1.1466   -2.8867 O   0  0  0  0  0  0  0  0  0  0  0  0
    0.6474    1.3927   -2.8007 N   0  0  0  0  0  0  0  0  0  0  0  0
    5.9295    0.1510    0.1185 C   0  0  0  0  0  0  0  0  0  0  0  0
    6.6560    0.1997    1.0914 O   0  0  0  0  0  0  0  0  0  0  0  0
    6.4789    0.1885   -1.1202 O   0  0  0  0  0  0  0  0  0  0  0  0
    1.7228   -0.0073    2.1450 H   0  0  0  0  0  0  0  0  0  0  0  0
    5.4103    0.0732    2.5127 H   0  0  0  0  0  0  0  0  0  0  0  0
    4.4117   -0.1102    4.6110 H   0  0  0  0  0  0  0  0  0  0  0  0
    2.8253   -0.4942    3.8837 H   0  0  0  0  0  0  0  0  0  0  0  0
    0.8254    3.5467    3.4954 H   0  0  0  0  0  0  0  0  0  0  0  0
    3.1432    4.8512    4.3832 H   0  0  0  0  0  0  0  0  0  0  0  0
    4.9560    2.8996    4.6162 H   0  0  0  0  0  0  0  0  0  0  0  0
    4.4119    0.0845   -2.0658 H   0  0  0  0  0  0  0  0  0  0  0  0
   -0.3463    1.2352   -2.8370 H   0  0  0  0  0  0  0  0  0  0  0  0
    0.9137    2.1369   -3.4222 H   0  0  0  0  0  0  0  0  0  0  0  0
    7.4693    0.2519   -1.1006 H   0  0  0  0  0  0  0  0  0  0  0  0
  1  2  1  0  0  0  0
  2  3  2  0  0  0  0
  3  4  1  0  0  0  0
  3 22  1  0  0  0  0
  4  5  1  0  0  0  0
  5 23  1  0  0  0  0
  5  6  1  0  0  0  0
  6 25  1  0  0  0  0
  6  7  1  0  0  0  0
  6 24  1  0  0  0  0
  7 11  2  0  0  0  0
  8  9  1  0  0  0  0
  8  7  1  0  0  0  0
  9 10  2  0  0  0  0
 10 11  1  0  0  0  0
 10 27  1  0  0  0  0
 11 28  1  0  0  0  0
 12 19  1  0  0  0  0
 12  4  2  0  0  0  0
 13 12  1  0  0  0  0
 14 13  2  0  0  0  0
 14  2  1  0  0  0  0
 15 14  1  0  0  0  0
 16 15  2  0  0  0  0
 17 15  2  0  0  0  0
 18 15  1  0  0  0  0
 19 20  2  0  0  0  0
 21 32  1  0  0  0  0
 21 19  1  0  0  0  0
 26  9  1  0  0  0  0
 29 13  1  0  0  0  0
 30 18  1  0  0  0  0
 31 18  1  0  0  0  0
M  END
$$$$
