32
rmsd202.gzmat
Cl         0.00000        0.00000        0.00000
C          1.70990        0.00000        0.00000
C          2.31610        0.00000        1.23250
C          3.73520       -0.01170        1.31340
N          4.38350        0.00890        2.51220
C          3.69920       -0.27520        3.77950
C          3.13740       -1.64570        3.79070
O          1.75010       -1.68770        3.81780
C          1.40200       -3.02020        3.75480
C          2.51940       -3.80650        3.68850
C          3.65010       -2.91210        3.71760
C          4.47880        0.00120        0.09270
C          3.80910        0.01840       -1.13530
C          2.42010        0.00530       -1.20560
S          1.66260       -0.01500       -2.78390
O          2.70030        0.19720       -3.76910
O          0.74690       -1.12420       -2.88240
N          0.68300        1.41840       -2.80100
C          5.93280       -0.03160        0.11950
O          6.65910       -0.08980        1.09230
O          6.48520        0.00020       -1.11780
H          1.72280        0.00130        2.14510
H          5.40770       -0.07560        2.51760
H          2.89980        0.49030        3.96130
H          4.43910       -0.14550        4.61240
H          0.34860       -3.18260        3.77330
H          2.58010       -4.87290        3.62230
H          4.67630       -3.21330        3.68450
H          4.41400        0.03710       -2.06460
H         -0.31440        1.28720       -2.82840
H          0.96390        2.15160       -3.42910
H          7.47710       -0.02800       -1.09760
