
     RDKit          3D

 32 33  0  0  0  0  0  0  0  0999 V2000
   -0.0293   -0.1242   -0.1857 Cl  0  0  0  0  0  0  0  0  0  0  0  0
    1.7080   -0.0662   -0.1311 C   0  0  0  0  0  0  0  0  0  0  0  0
    2.3218   -0.1601    1.1064 C   0  0  0  0  0  0  0  0  0  0  0  0
    3.7340   -0.1134    1.2282 C   0  0  0  0  0  0  0  0  0  0  0  0
    4.3356   -0.1987    2.4396 N   0  0  0  0  0  0  0  0  0  0  0  0
    3.6388   -0.3553    3.6920 C   0  0  0  0  0  0  0  0  0  0  0  0
    3.0322   -1.7166    3.8589 C   0  0  0  0  0  0  0  0  0  0  0  0
    2.0503   -1.8371    4.7920 O   0  0  0  0  0  0  0  0  0  0  0  0
    1.6411   -3.1362    4.7926 C   0  0  0  0  0  0  0  0  0  0  0  0
    2.3450   -3.8502    3.8671 C   0  0  0  0  0  0  0  0  0  0  0  0
    3.2558   -2.9220    3.2551 C   0  0  0  0  0  0  0  0  0  0  0  0
    4.5063    0.0356    0.0295 C   0  0  0  0  0  0  0  0  0  0  0  0
    3.8522    0.1328   -1.2058 C   0  0  0  0  0  0  0  0  0  0  0  0
    2.4688    0.0858   -1.3081 C   0  0  0  0  0  0  0  0  0  0  0  0
    1.7536    0.1435   -2.9449 S   0  0  0  0  0  0  0  0  0  0  0  0
    2.8522    0.4263   -3.8726 O   0  0  0  0  0  0  0  0  0  0  0  0
    0.8833   -1.0179   -3.1134 O   0  0  0  0  0  0  0  0  0  0  0  0
    0.7852    1.5215   -2.9023 N   0  0  0  0  0  0  0  0  0  0  0  0
    5.9764    0.0836    0.0894 C   0  0  0  0  0  0  0  0  0  0  0  0
    6.6449    0.0001    1.1100 O   0  0  0  0  0  0  0  0  0  0  0  0
    6.5652    0.2309   -1.1095 O   0  0  0  0  0  0  0  0  0  0  0  0
    1.6961   -0.2899    1.9860 H   0  0  0  0  0  0  0  0  0  0  0  0
    5.3550   -0.1679    2.4184 H   0  0  0  0  0  0  0  0  0  0  0  0
    2.8436    0.4041    3.8073 H   0  0  0  0  0  0  0  0  0  0  0  0
    4.3624   -0.1571    4.5000 H   0  0  0  0  0  0  0  0  0  0  0  0
    0.8502   -3.3884    5.4933 H   0  0  0  0  0  0  0  0  0  0  0  0
    2.2301   -4.9076    3.6395 H   0  0  0  0  0  0  0  0  0  0  0  0
    3.9750   -3.1189    2.4641 H   0  0  0  0  0  0  0  0  0  0  0  0
    4.4372    0.2489   -2.1173 H   0  0  0  0  0  0  0  0  0  0  0  0
   -0.1968    1.2691   -3.0028 H   0  0  0  0  0  0  0  0  0  0  0  0
    1.0987    2.1791   -3.6154 H   0  0  0  0  0  0  0  0  0  0  0  0
    7.5230    0.2460   -0.9473 H   0  0  0  0  0  0  0  0  0  0  0  0
  1  2  1  0
  2  3  2  0
  2 14  1  0
  3  4  1  0
  3 22  1  0
  4  5  1  0
  4 12  2  0
  5  6  1  0
  5 23  1  0
  6  7  1  0
  6 24  1  0
  6 25  1  0
  7  8  1  0
  7 11  2  0
  8  9  1  0
  9 10  2  0
  9 26  1  0
 10 11  1  0
 10 27  1  0
 11 28  1  0
 12 13  1  0
 12 19  1  0
 13 14  2  0
 13 29  1  0
 14 15  1  0
 15 16  2  0
 15 17  2  0
 15 18  1  0
 18 30  1  0
 18 31  1  0
 19 20  2  0
 19 21  1  0
 21 32  1  0
M  END

