
     RDKit          3D

 32 33  0  0  0  0  0  0  0  0999 V2000
   -0.0777    0.0705   -0.1123 Cl  0  0  0  0  0  0  0  0  0  0  0  0
    1.6627    0.0706   -0.1178 C   0  0  0  0  0  0  0  0  0  0  0  0
    2.3138    0.1872    1.0976 C   0  0  0  0  0  0  0  0  0  0  0  0
    3.7309    0.2094    1.1706 C   0  0  0  0  0  0  0  0  0  0  0  0
    4.3795    0.2778    2.3570 N   0  0  0  0  0  0  0  0  0  0  0  0
    3.7589    0.3310    3.6677 C   0  0  0  0  0  0  0  0  0  0  0  0
    3.3061    1.6880    4.1046 C   0  0  0  0  0  0  0  0  0  0  0  0
    2.1384    2.1584    3.5793 O   0  0  0  0  0  0  0  0  0  0  0  0
    1.9351    3.4091    4.0696 C   0  0  0  0  0  0  0  0  0  0  0  0
    2.9534    3.7563    4.9096 C   0  0  0  0  0  0  0  0  0  0  0  0
    3.8485    2.6337    4.9314 C   0  0  0  0  0  0  0  0  0  0  0  0
    4.4645    0.1425   -0.0616 C   0  0  0  0  0  0  0  0  0  0  0  0
    3.7714    0.0317   -1.2744 C   0  0  0  0  0  0  0  0  0  0  0  0
    2.3853   -0.0120   -1.3256 C   0  0  0  0  0  0  0  0  0  0  0  0
    1.6171   -0.2327   -2.9228 S   0  0  0  0  0  0  0  0  0  0  0  0
    2.6890   -0.1574   -3.9195 O   0  0  0  0  0  0  0  0  0  0  0  0
    0.7135   -1.3787   -2.8495 O   0  0  0  0  0  0  0  0  0  0  0  0
    0.6839    1.1589   -3.1089 N   0  0  0  0  0  0  0  0  0  0  0  0
    5.9354    0.1891   -0.0608 C   0  0  0  0  0  0  0  0  0  0  0  0
    6.6403    0.2925    0.9336 O   0  0  0  0  0  0  0  0  0  0  0  0
    6.4834    0.1094   -1.2858 O   0  0  0  0  0  0  0  0  0  0  0  0
    1.7141    0.3048    1.9957 H   0  0  0  0  0  0  0  0  0  0  0  0
    5.3952    0.3505    2.2825 H   0  0  0  0  0  0  0  0  0  0  0  0
    4.5003   -0.0261    4.3963 H   0  0  0  0  0  0  0  0  0  0  0  0
    2.9123   -0.3742    3.7075 H   0  0  0  0  0  0  0  0  0  0  0  0
    1.0328    3.9137    3.7356 H   0  0  0  0  0  0  0  0  0  0  0  0
    3.0568    4.6947    5.4498 H   0  0  0  0  0  0  0  0  0  0  0  0
    4.7776    2.5409    5.4897 H   0  0  0  0  0  0  0  0  0  0  0  0
    4.3279   -0.0243   -2.2091 H   0  0  0  0  0  0  0  0  0  0  0  0
   -0.3068    0.9214   -3.1267 H   0  0  0  0  0  0  0  0  0  0  0  0
    0.9843    1.6571   -3.9461 H   0  0  0  0  0  0  0  0  0  0  0  0
    7.4459    0.1505   -1.1601 H   0  0  0  0  0  0  0  0  0  0  0  0
  1  2  1  0
  2  3  2  0
  2 14  1  0
  3  4  1  0
  3 22  1  0
  4  5  1  0
  4 12  2  0
  5  6  1  0
  5 23  1  0
  6  7  1  0
  6 24  1  0
  6 25  1  0
  7  8  1  0
  7 11  2  0
  8  9  1  0
  9 10  2  0
  9 26  1  0
 10 11  1  0
 10 27  1  0
 11 28  1  0
 12 13  1  0
 12 19  1  0
 13 14  2  0
 13 29  1  0
 14 15  1  0
 15 16  2  0
 15 17  2  0
 15 18  1  0
 18 30  1  0
 18 31  1  0
 19 20  2  0
 19 21  1  0
 21 32  1  0
M  END

