32

Cl        -0.04370        0.08980       -0.11940
C          1.69510        0.08020       -0.07960
C          2.31570        0.09550        1.15800
C          3.72970        0.10110        1.26720
N          4.33850        0.09460        2.47800
C          3.64680        0.08630        3.74290
C          2.98350        1.39420        4.05630
O          2.00190        1.37150        4.99710
C          1.53890        2.64430        5.13930
C          2.20790        3.48360        4.29680
C          3.15350        2.66650        3.58700
C          4.49630        0.11230        0.05570
C          3.83540        0.10190       -1.17980
C          2.45050        0.08420       -1.26970
S          1.72340       -0.00150       -2.90010
O          2.82280        0.14210       -3.85820
O          0.80960       -1.14080       -2.94090
N          0.80800        1.40960       -2.99770
C          5.96740        0.13510        0.10320
O          6.64110        0.15010        1.12370
O          6.55070        0.14150       -1.10750
H          1.69320        0.12130        2.04900
H          5.35800        0.11590        2.44890
H          4.38540       -0.16440        4.52230
H          2.88650       -0.71540        3.77970
H          0.74190        2.78530        5.86390
H          2.04850        4.55390        4.18650
H          3.86070        2.97770        2.82250
H          4.41620        0.10760       -2.10130
H         -0.18460        1.18700       -3.05630
H          1.13370        1.97150       -3.78340
H          7.50970        0.15460       -0.95240
