32
rmsd86.gzmat
Cl         0.00000        0.00000        0.00000
C          1.70990        0.00000        0.00000
C          2.31540        0.00000        1.23320
C          3.73400       -0.02980        1.31440
N          4.38510        0.02120        2.51060
C          3.69660       -0.17550        3.79100
C          3.18370       -1.55900        3.91860
O          1.80150       -1.66070        3.84390
C          1.50730       -3.00500        3.92780
C          2.65400       -3.74160        4.04910
C          3.74570       -2.80000        4.04790
C          4.47740       -0.06630        0.09410
C          3.80900       -0.05150       -1.13450
C          2.42030       -0.01390       -1.20570
S          1.66570        0.02200       -2.78520
O          0.77550        1.15180       -2.88270
O          2.70060       -0.21120       -3.76840
N          0.65190       -1.38750       -2.80860
C          5.92990       -0.14270        0.12170
O          6.65430       -0.22160        1.09420
O          6.48260       -0.12660       -1.11590
H          1.72170        0.01080        2.14530
H          5.40550       -0.09970        2.51900
H          2.87010        0.57450        3.90180
H          4.42310        0.05250        4.61470
H          0.46260       -3.21140        3.88440
H          2.75710       -4.80360        4.12870
H          4.78220       -3.05600        4.13010
H          4.41400       -0.07850       -2.06360
H          0.91490       -2.12410       -3.44070
H         -0.34190       -1.23040       -2.83750
H          7.47330       -0.17920       -1.09650
