32
rmsd25.gzmat
Cl         0.00000        0.00000        0.00000
C          1.71020        0.00000        0.00000
C          2.31860        0.00000        1.23210
C          3.73780       -0.02640        1.30880
N          4.39750        0.07720        2.49660
C          3.72300       -0.04000        3.79380
C          3.39950       -1.45090        4.10180
O          2.14250       -1.85450        3.67600
C          2.03260       -3.18790        4.00700
C          3.17370       -3.62740        4.62110
C          4.06370       -2.49580        4.68420
C          4.47590       -0.10240        0.08670
C          3.80520       -0.07960       -1.14020
C          2.41730       -0.01570       -1.20730
S          1.65980        0.04530       -2.78380
O          0.73270        1.14770       -2.84460
O          2.69890       -0.12350       -3.77540
N          0.69230       -1.39500       -2.84800
C          5.92520       -0.22570        0.11010
O          6.65120       -0.30620        1.08100
O          6.47090       -0.25950       -1.13040
H          1.72870        0.00490        2.14640
H          5.41510       -0.07010        2.50470
H          2.80490        0.60160        3.81550
H          4.40580        0.38570        4.57610
H          1.09880       -3.61690        3.72570
H          3.39630       -4.60620        4.99150
H          5.04670       -2.50770        5.10780
H          4.40780       -0.11890       -2.07060
H          0.97170       -2.09890       -3.50940
H         -0.30610       -1.27010       -2.86060
H          7.45900       -0.34750       -1.11520
