rmsd202.gzmat
 OpenBabel08211713393D

 32 33  0  0  0  0  0  0  0  0999 V2000
    0.0000    0.0000    0.0000 Cl  0  0  0  0  0  0  0  0  0  0  0  0
    1.7099    0.0000    0.0000 C   0  0  0  0  0  0  0  0  0  0  0  0
    2.3161    0.0000    1.2325 C   0  0  0  0  0  0  0  0  0  0  0  0
    3.7352   -0.0117    1.3134 C   0  0  0  0  0  0  0  0  0  0  0  0
    4.3835    0.0089    2.5122 N   0  0  0  0  0  0  0  0  0  0  0  0
    3.6992   -0.2752    3.7795 C   0  0  0  0  0  0  0  0  0  0  0  0
    3.1374   -1.6457    3.7907 C   0  0  0  0  0  0  0  0  0  0  0  0
    1.7501   -1.6877    3.8178 O   0  0  0  0  0  0  0  0  0  0  0  0
    1.4020   -3.0202    3.7548 C   0  0  0  0  0  0  0  0  0  0  0  0
    2.5194   -3.8065    3.6885 C   0  0  0  0  0  0  0  0  0  0  0  0
    3.6501   -2.9121    3.7176 C   0  0  0  0  0  0  0  0  0  0  0  0
    4.4788    0.0012    0.0927 C   0  0  0  0  0  0  0  0  0  0  0  0
    3.8091    0.0184   -1.1353 C   0  0  0  0  0  0  0  0  0  0  0  0
    2.4201    0.0053   -1.2056 C   0  0  0  0  0  0  0  0  0  0  0  0
    1.6626   -0.0150   -2.7839 S   0  0  0  0  0  0  0  0  0  0  0  0
    2.7003    0.1972   -3.7691 O   0  0  0  0  0  0  0  0  0  0  0  0
    0.7469   -1.1242   -2.8824 O   0  0  0  0  0  0  0  0  0  0  0  0
    0.6830    1.4184   -2.8010 N   0  0  0  0  0  0  0  0  0  0  0  0
    5.9328   -0.0316    0.1195 C   0  0  0  0  0  0  0  0  0  0  0  0
    6.6591   -0.0898    1.0923 O   0  0  0  0  0  0  0  0  0  0  0  0
    6.4852    0.0002   -1.1178 O   0  0  0  0  0  0  0  0  0  0  0  0
    1.7228    0.0013    2.1451 H   0  0  0  0  0  0  0  0  0  0  0  0
    5.4077   -0.0756    2.5176 H   0  0  0  0  0  0  0  0  0  0  0  0
    2.8998    0.4903    3.9613 H   0  0  0  0  0  0  0  0  0  0  0  0
    4.4391   -0.1455    4.6124 H   0  0  0  0  0  0  0  0  0  0  0  0
    0.3486   -3.1826    3.7733 H   0  0  0  0  0  0  0  0  0  0  0  0
    2.5801   -4.8729    3.6223 H   0  0  0  0  0  0  0  0  0  0  0  0
    4.6763   -3.2133    3.6845 H   0  0  0  0  0  0  0  0  0  0  0  0
    4.4140    0.0371   -2.0646 H   0  0  0  0  0  0  0  0  0  0  0  0
   -0.3144    1.2872   -2.8284 H   0  0  0  0  0  0  0  0  0  0  0  0
    0.9639    2.1516   -3.4291 H   0  0  0  0  0  0  0  0  0  0  0  0
    7.4771   -0.0280   -1.0976 H   0  0  0  0  0  0  0  0  0  0  0  0
  1  2  1  0  0  0  0
  2  3  2  0  0  0  0
  3  4  1  0  0  0  0
  3 22  1  0  0  0  0
  4  5  1  0  0  0  0
  5 23  1  0  0  0  0
  5  6  1  0  0  0  0
  6  7  1  0  0  0  0
  6 24  1  0  0  0  0
  6 25  1  0  0  0  0
  7  8  1  0  0  0  0
  9 26  1  0  0  0  0
  9  8  1  0  0  0  0
 10 11  1  0  0  0  0
 10  9  2  0  0  0  0
 11  7  2  0  0  0  0
 12 19  1  0  0  0  0
 12  4  2  0  0  0  0
 13 12  1  0  0  0  0
 14 13  2  0  0  0  0
 14  2  1  0  0  0  0
 15 14  1  0  0  0  0
 16 15  2  0  0  0  0
 17 15  2  0  0  0  0
 18 15  1  0  0  0  0
 19 20  2  0  0  0  0
 21 32  1  0  0  0  0
 21 19  1  0  0  0  0
 27 10  1  0  0  0  0
 28 11  1  0  0  0  0
 29 13  1  0  0  0  0
 30 18  1  0  0  0  0
 31 18  1  0  0  0  0
M  END
$$$$
