rmsd241.gzmat
 OpenBabel08211713393D

 32 33  0  0  0  0  0  0  0  0999 V2000
    0.0000    0.0000    0.0000 Cl  0  0  0  0  0  0  0  0  0  0  0  0
    1.7095    0.0000    0.0000 C   0  0  0  0  0  0  0  0  0  0  0  0
    2.3170    0.0000    1.2319 C   0  0  0  0  0  0  0  0  0  0  0  0
    3.7362    0.0376    1.3093 C   0  0  0  0  0  0  0  0  0  0  0  0
    4.3915   -0.0279    2.5004 N   0  0  0  0  0  0  0  0  0  0  0  0
    3.7015    0.0596    3.7902 C   0  0  0  0  0  0  0  0  0  0  0  0
    3.0794    1.3892    3.9895 C   0  0  0  0  0  0  0  0  0  0  0  0
    1.7147    1.3395    4.2375 O   0  0  0  0  0  0  0  0  0  0  0  0
    1.2981    2.6480    4.3656 C   0  0  0  0  0  0  0  0  0  0  0  0
    2.3499    3.5065    4.2004 C   0  0  0  0  0  0  0  0  0  0  0  0
    3.5113    2.6866    3.9606 C   0  0  0  0  0  0  0  0  0  0  0  0
    4.4762    0.1070    0.0877 C   0  0  0  0  0  0  0  0  0  0  0  0
    3.8049    0.0854   -1.1392 C   0  0  0  0  0  0  0  0  0  0  0  0
    2.4175    0.0182   -1.2071 C   0  0  0  0  0  0  0  0  0  0  0  0
    1.6582   -0.0473   -2.7830 S   0  0  0  0  0  0  0  0  0  0  0  0
    2.6959    0.1129   -3.7779 O   0  0  0  0  0  0  0  0  0  0  0  0
    0.7257   -1.1455   -2.8368 O   0  0  0  0  0  0  0  0  0  0  0  0
    0.7006    1.3991   -2.8514 N   0  0  0  0  0  0  0  0  0  0  0  0
    5.9262    0.2169    0.1137 C   0  0  0  0  0  0  0  0  0  0  0  0
    6.6528    0.2676    1.0866 O   0  0  0  0  0  0  0  0  0  0  0  0
    6.4740    0.2758   -1.1248 O   0  0  0  0  0  0  0  0  0  0  0  0
    1.7260   -0.0126    2.1460 H   0  0  0  0  0  0  0  0  0  0  0  0
    5.4109    0.0986    2.5124 H   0  0  0  0  0  0  0  0  0  0  0  0
    4.4493   -0.1475    4.6011 H   0  0  0  0  0  0  0  0  0  0  0  0
    2.9350   -0.7569    3.8701 H   0  0  0  0  0  0  0  0  0  0  0  0
    0.2562    2.7399    4.5688 H   0  0  0  0  0  0  0  0  0  0  0  0
    2.3495    4.5759    4.2356 H   0  0  0  0  0  0  0  0  0  0  0  0
    4.5029    3.0545    3.7942 H   0  0  0  0  0  0  0  0  0  0  0  0
    4.4071    0.1277   -2.0695 H   0  0  0  0  0  0  0  0  0  0  0  0
   -0.2989    1.2820   -2.8527 H   0  0  0  0  0  0  0  0  0  0  0  0
    0.9799    2.0948   -3.5217 H   0  0  0  0  0  0  0  0  0  0  0  0
    7.4633    0.3515   -1.1061 H   0  0  0  0  0  0  0  0  0  0  0  0
  1  2  1  0  0  0  0
  2  3  2  0  0  0  0
  3  4  1  0  0  0  0
  3 22  1  0  0  0  0
  4  5  1  0  0  0  0
  5 23  1  0  0  0  0
  5  6  1  0  0  0  0
  6 25  1  0  0  0  0
  6  7  1  0  0  0  0
  6 24  1  0  0  0  0
  7  8  1  0  0  0  0
  8  9  1  0  0  0  0
  9 26  1  0  0  0  0
 10 27  1  0  0  0  0
 10  9  2  0  0  0  0
 11  7  2  0  0  0  0
 11 10  1  0  0  0  0
 12 19  1  0  0  0  0
 12  4  2  0  0  0  0
 13 12  1  0  0  0  0
 14 13  2  0  0  0  0
 14  2  1  0  0  0  0
 15 14  1  0  0  0  0
 16 15  2  0  0  0  0
 17 15  2  0  0  0  0
 18 15  1  0  0  0  0
 19 20  2  0  0  0  0
 21 32  1  0  0  0  0
 21 19  1  0  0  0  0
 28 11  1  0  0  0  0
 29 13  1  0  0  0  0
 30 18  1  0  0  0  0
 31 18  1  0  0  0  0
M  END
$$$$
