28
rmsd65.gzmat
Cl         0.00000        0.00000        0.00000
C          1.68670        0.00000        0.00000
C          2.40840        0.00000        1.15000
C          1.78420       -0.01590        2.53440
N          0.86980       -1.14240        2.69240
C          1.39400       -2.52760        2.54240
C          0.14680       -3.43470        2.51090
C         -1.07100       -2.49260        2.57770
C         -0.48000       -1.10910        2.68420
N         -1.22920       -0.00510        2.83400
H         -2.24100       -0.06240        2.85820
H         -0.84690        0.92870        2.83290
N          3.78390        0.01540        1.09430
H          4.35240        0.05230        1.94180
C          4.49580        0.04490       -0.14950
O          5.69940        0.06840       -0.12490
N          3.72320        0.02660       -1.30410
H          4.22020        0.04510       -2.20890
C          2.30500        0.01080       -1.32610
O          1.74270       -0.00240       -2.38820
H          1.27620        0.96380        2.72250
H          2.56730       -0.09180        3.33990
H          2.06050       -2.75750        3.40470
H          1.99850       -2.61760        1.61140
H          0.12760       -4.05890        1.59470
H          0.14830       -4.15250        3.35480
H         -1.70680       -2.58890        1.66660
H         -1.73430       -2.73940        3.43530
