28
rmsd4.gzmat
Cl         0.00000        0.00000        0.00000
C          1.68750        0.00000        0.00000
C          2.42190        0.00000        1.14220
C          1.83580        0.00350        2.54450
N          0.78280        0.99950        2.70480
C          1.11160        2.43980        2.51980
C         -0.24900        3.16530        2.45760
C         -1.32600        2.06940        2.57840
C         -0.55110        0.78130        2.69770
N         -1.14110       -0.41360        2.86130
H         -2.15120       -0.49530        2.89200
H         -0.63460       -1.28620        2.86530
N          3.79690       -0.02510        1.06570
H          4.37880       -0.04270        1.90490
C          4.49420       -0.07930       -0.18590
O          5.69750       -0.11980       -0.17450
N          3.70850       -0.06690       -1.33130
H          4.19470       -0.10490       -2.24180
C          2.29130       -0.02140       -1.33390
O          1.71530       -0.00350       -2.38900
H          2.62830        0.21990        3.31690
H          1.47290       -1.02690        2.79210
H          1.70680        2.58770        1.59000
H          1.73100        2.78140        3.38050
H         -0.34240        3.91750        3.26570
H         -0.35780        3.73600        1.51250
H         -1.99510        2.24350        3.44910
H         -1.99170        2.05840        1.68350
