rmsd4.gzmat
 OpenBabel08211713363D

 28 29  0  0  1  0  0  0  0  0999 V2000
    0.0000    0.0000    0.0000 Cl  0  0  0  0  0  0  0  0  0  0  0  0
    1.6875    0.0000    0.0000 C   0  0  0  0  0  0  0  0  0  0  0  0
    2.4219    0.0000    1.1422 C   0  0  0  0  0  0  0  0  0  0  0  0
    1.8358    0.0035    2.5445 C   0  0  0  0  0  0  0  0  0  0  0  0
    0.7828    0.9995    2.7048 N   0  0  0  0  0  0  0  0  0  0  0  0
    1.1116    2.4398    2.5198 C   0  0  0  0  0  0  0  0  0  0  0  0
   -0.2490    3.1653    2.4576 C   0  0  0  0  0  0  0  0  0  0  0  0
   -1.3260    2.0694    2.5784 C   0  0  0  0  0  0  0  0  0  0  0  0
   -0.5511    0.7813    2.6977 C   0  0  2  0  0  0  0  0  0  0  0  0
   -1.1411   -0.4136    2.8613 N   0  0  0  0  0  0  0  0  0  0  0  0
   -2.1512   -0.4953    2.8920 H   0  0  0  0  0  0  0  0  0  0  0  0
   -0.6346   -1.2862    2.8653 H   0  0  0  0  0  0  0  0  0  0  0  0
    3.7969   -0.0251    1.0657 N   0  0  0  0  0  0  0  0  0  0  0  0
    4.3788   -0.0427    1.9049 H   0  0  0  0  0  0  0  0  0  0  0  0
    4.4942   -0.0793   -0.1859 C   0  0  0  0  0  0  0  0  0  0  0  0
    5.6975   -0.1198   -0.1745 O   0  0  0  0  0  0  0  0  0  0  0  0
    3.7085   -0.0669   -1.3313 N   0  0  0  0  0  0  0  0  0  0  0  0
    4.1947   -0.1049   -2.2418 H   0  0  0  0  0  0  0  0  0  0  0  0
    2.2913   -0.0214   -1.3339 C   0  0  0  0  0  0  0  0  0  0  0  0
    1.7153   -0.0035   -2.3890 O   0  0  0  0  0  0  0  0  0  0  0  0
    2.6283    0.2199    3.3169 H   0  0  0  0  0  0  0  0  0  0  0  0
    1.4729   -1.0269    2.7921 H   0  0  0  0  0  0  0  0  0  0  0  0
    1.7068    2.5877    1.5900 H   0  0  0  0  0  0  0  0  0  0  0  0
    1.7310    2.7814    3.3805 H   0  0  0  0  0  0  0  0  0  0  0  0
   -0.3424    3.9175    3.2657 H   0  0  0  0  0  0  0  0  0  0  0  0
   -0.3578    3.7360    1.5125 H   0  0  0  0  0  0  0  0  0  0  0  0
   -1.9951    2.2435    3.4491 H   0  0  0  0  0  0  0  0  0  0  0  0
   -1.9917    2.0584    1.6835 H   0  0  0  0  0  0  0  0  0  0  0  0
  1  2  1  0  0  0  0
  2  3  2  0  0  0  0
  3  4  1  0  0  0  0
  4  5  1  0  0  0  0
  4 22  1  0  0  0  0
  4 21  1  0  0  0  0
  6  5  1  0  0  0  0
  6 24  1  0  0  0  0
  7  6  1  0  0  0  0
  7  8  1  0  0  0  0
  7 25  1  0  0  0  0
  8  9  1  0  0  0  0
  8 27  1  0  0  0  0
  9  5  1  0  0  0  0
  9 10  1  1  0  0  0
 10 12  1  0  0  0  0
 10 11  1  0  0  0  0
 13  3  1  0  0  0  0
 13 14  1  0  0  0  0
 15 16  2  0  0  0  0
 15 13  1  0  0  0  0
 17 15  1  0  0  0  0
 18 17  1  0  0  0  0
 19 17  1  0  0  0  0
 19  2  1  0  0  0  0
 20 19  2  0  0  0  0
 23  6  1  0  0  0  0
 26  7  1  0  0  0  0
 28  8  1  0  0  0  0
M  RAD  1   9   2
M  END
$$$$
