rmsd66.gzmat
 OpenBabel08211713363D

 28 29  0  0  1  0  0  0  0  0999 V2000
    0.0000    0.0000    0.0000 Cl  0  0  0  0  0  0  0  0  0  0  0  0
    1.6872    0.0000    0.0000 C   0  0  0  0  0  0  0  0  0  0  0  0
    2.4112    0.0000    1.1488 C   0  0  0  0  0  0  0  0  0  0  0  0
    1.7937   -0.0300    2.5361 C   0  0  0  0  0  0  0  0  0  0  0  0
    0.8483   -1.1333    2.6761 N   0  0  0  0  0  0  0  0  0  0  0  0
    1.3258   -2.5273    2.4628 C   0  0  0  0  0  0  0  0  0  0  0  0
    0.0499   -3.3925    2.4086 C   0  0  0  0  0  0  0  0  0  0  0  0
   -1.1362   -2.4173    2.5410 C   0  0  0  0  0  0  0  0  0  0  0  0
   -0.5004   -1.0567    2.6778 C   0  0  1  0  0  0  0  0  0  0  0  0
   -1.2114    0.0673    2.8611 N   0  0  0  0  0  0  0  0  0  0  0  0
   -2.2246    0.0440    2.8904 H   0  0  0  0  0  0  0  0  0  0  0  0
   -0.7980    0.9874    2.8838 H   0  0  0  0  0  0  0  0  0  0  0  0
    3.7863    0.0273    1.0894 N   0  0  0  0  0  0  0  0  0  0  0  0
    4.3572    0.0621    1.9353 H   0  0  0  0  0  0  0  0  0  0  0  0
    4.4951    0.0708   -0.1558 C   0  0  0  0  0  0  0  0  0  0  0  0
    5.6983    0.1112   -0.1343 O   0  0  0  0  0  0  0  0  0  0  0  0
    3.7207    0.0466   -1.3093 N   0  0  0  0  0  0  0  0  0  0  0  0
    4.2166    0.0695   -2.2148 H   0  0  0  0  0  0  0  0  0  0  0  0
    2.3030    0.0139   -1.3280 C   0  0  0  0  0  0  0  0  0  0  0  0
    1.7383   -0.0094   -2.3890 O   0  0  0  0  0  0  0  0  0  0  0  0
    1.3149    0.9593    2.7494 H   0  0  0  0  0  0  0  0  0  0  0  0
    2.5787   -0.1468    3.3356 H   0  0  0  0  0  0  0  0  0  0  0  0
    1.9949   -2.8136    3.3059 H   0  0  0  0  0  0  0  0  0  0  0  0
    1.9157   -2.5971    1.5202 H   0  0  0  0  0  0  0  0  0  0  0  0
   -0.0041   -3.9694    1.4628 H   0  0  0  0  0  0  0  0  0  0  0  0
    0.0430   -4.1517    3.2153 H   0  0  0  0  0  0  0  0  0  0  0  0
   -1.8000   -2.4653    1.6463 H   0  0  0  0  0  0  0  0  0  0  0  0
   -1.7827   -2.6728    3.4090 H   0  0  0  0  0  0  0  0  0  0  0  0
  1  2  1  0  0  0  0
  2  3  2  0  0  0  0
  3  4  1  0  0  0  0
  4  5  1  0  0  0  0
  4 21  1  0  0  0  0
  4 22  1  0  0  0  0
  5  9  1  0  0  0  0
  6  5  1  0  0  0  0
  6 23  1  0  0  0  0
  7  6  1  0  0  0  0
  7  8  1  0  0  0  0
  7 26  1  0  0  0  0
  8  9  1  0  0  0  0
  8 28  1  0  0  0  0
  9 10  1  1  0  0  0
 10 12  1  0  0  0  0
 10 11  1  0  0  0  0
 13  3  1  0  0  0  0
 13 14  1  0  0  0  0
 15 16  2  0  0  0  0
 15 13  1  0  0  0  0
 17 15  1  0  0  0  0
 18 17  1  0  0  0  0
 19 17  1  0  0  0  0
 19  2  1  0  0  0  0
 20 19  2  0  0  0  0
 24  6  1  0  0  0  0
 25  7  1  0  0  0  0
 27  8  1  0  0  0  0
M  RAD  1   9   2
M  END
$$$$
