rmsd65.gzmat
 OpenBabel08211713363D

 28 29  0  0  1  0  0  0  0  0999 V2000
    0.0000    0.0000    0.0000 Cl  0  0  0  0  0  0  0  0  0  0  0  0
    1.6867    0.0000    0.0000 C   0  0  0  0  0  0  0  0  0  0  0  0
    2.4084    0.0000    1.1500 C   0  0  0  0  0  0  0  0  0  0  0  0
    1.7842   -0.0159    2.5344 C   0  0  0  0  0  0  0  0  0  0  0  0
    0.8698   -1.1424    2.6924 N   0  0  0  0  0  0  0  0  0  0  0  0
    1.3940   -2.5276    2.5424 C   0  0  0  0  0  0  0  0  0  0  0  0
    0.1468   -3.4347    2.5109 C   0  0  0  0  0  0  0  0  0  0  0  0
   -1.0710   -2.4926    2.5777 C   0  0  0  0  0  0  0  0  0  0  0  0
   -0.4800   -1.1091    2.6842 C   0  0  1  0  0  0  0  0  0  0  0  0
   -1.2292   -0.0051    2.8340 N   0  0  0  0  0  0  0  0  0  0  0  0
   -2.2410   -0.0624    2.8582 H   0  0  0  0  0  0  0  0  0  0  0  0
   -0.8469    0.9287    2.8329 H   0  0  0  0  0  0  0  0  0  0  0  0
    3.7839    0.0154    1.0943 N   0  0  0  0  0  0  0  0  0  0  0  0
    4.3524    0.0523    1.9418 H   0  0  0  0  0  0  0  0  0  0  0  0
    4.4958    0.0449   -0.1495 C   0  0  0  0  0  0  0  0  0  0  0  0
    5.6994    0.0684   -0.1249 O   0  0  0  0  0  0  0  0  0  0  0  0
    3.7232    0.0266   -1.3041 N   0  0  0  0  0  0  0  0  0  0  0  0
    4.2202    0.0451   -2.2089 H   0  0  0  0  0  0  0  0  0  0  0  0
    2.3050    0.0108   -1.3261 C   0  0  0  0  0  0  0  0  0  0  0  0
    1.7427   -0.0024   -2.3882 O   0  0  0  0  0  0  0  0  0  0  0  0
    1.2762    0.9638    2.7225 H   0  0  0  0  0  0  0  0  0  0  0  0
    2.5673   -0.0918    3.3399 H   0  0  0  0  0  0  0  0  0  0  0  0
    2.0605   -2.7575    3.4047 H   0  0  0  0  0  0  0  0  0  0  0  0
    1.9985   -2.6176    1.6114 H   0  0  0  0  0  0  0  0  0  0  0  0
    0.1276   -4.0589    1.5947 H   0  0  0  0  0  0  0  0  0  0  0  0
    0.1483   -4.1525    3.3548 H   0  0  0  0  0  0  0  0  0  0  0  0
   -1.7068   -2.5889    1.6666 H   0  0  0  0  0  0  0  0  0  0  0  0
   -1.7343   -2.7394    3.4353 H   0  0  0  0  0  0  0  0  0  0  0  0
  1  2  1  0  0  0  0
  2  3  2  0  0  0  0
  3  4  1  0  0  0  0
  4  5  1  0  0  0  0
  4 21  1  0  0  0  0
  4 22  1  0  0  0  0
  6  5  1  0  0  0  0
  6 23  1  0  0  0  0
  7  6  1  0  0  0  0
  7  8  1  0  0  0  0
  7 26  1  0  0  0  0
  8  9  1  0  0  0  0
  8 28  1  0  0  0  0
  9  5  1  0  0  0  0
  9 10  1  1  0  0  0
 10 11  1  0  0  0  0
 12 10  1  0  0  0  0
 13  3  1  0  0  0  0
 13 14  1  0  0  0  0
 15 16  2  0  0  0  0
 15 13  1  0  0  0  0
 17 15  1  0  0  0  0
 18 17  1  0  0  0  0
 19 17  1  0  0  0  0
 19  2  1  0  0  0  0
 20 19  2  0  0  0  0
 24  6  1  0  0  0  0
 25  7  1  0  0  0  0
 27  8  1  0  0  0  0
M  RAD  1   9   2
M  END
$$$$
