28
rmsd13.gzmat
Cl         0.00000        0.00000        0.00000
C          1.68710        0.00000        0.00000
C          2.41250        0.00000        1.14790
C          1.79650       -0.01850        2.53550
N          0.82760       -1.09970        2.68180
C          1.27000       -2.50730        2.48170
C         -0.02520       -3.34630        2.49010
C         -1.18460       -2.34430        2.65450
C         -0.51740       -0.99280        2.71820
N         -1.20190        0.15250        2.86910
H         -2.21390        0.14980        2.92880
H         -0.77200        1.06460        2.83390
N          3.78760        0.02820        1.08760
H          4.36010        0.05500        1.93300
C          4.49510        0.08120       -0.15800
O          5.69800        0.12860       -0.13730
N          3.71970        0.05870       -1.31070
H          4.21440        0.08580       -2.21670
C          2.30230        0.01430       -1.32820
O          1.73740       -0.01620       -2.38860
H          1.34050        0.98220        2.74740
H          2.57980       -0.15020        3.33440
H          1.96250       -2.79200        3.30590
H          1.82400       -2.60680        1.51980
H         -0.12900       -3.93360        1.55540
H         -0.01630       -4.09500        3.30670
H         -1.89860       -2.40590        1.80110
H         -1.78690       -2.55930        3.56490
