rmsd67.gzmat
 OpenBabel08211713363D

 28 29  0  0  1  0  0  0  0  0999 V2000
    0.0000    0.0000    0.0000 Cl  0  0  0  0  0  0  0  0  0  0  0  0
    1.6865    0.0000    0.0000 C   0  0  0  0  0  0  0  0  0  0  0  0
    2.4070    0.0000    1.1508 C   0  0  0  0  0  0  0  0  0  0  0  0
    1.7757    0.0312    2.5316 C   0  0  0  0  0  0  0  0  0  0  0  0
    0.8979    1.1885    2.6815 N   0  0  0  0  0  0  0  0  0  0  0  0
    1.4663    2.5551    2.5172 C   0  0  0  0  0  0  0  0  0  0  0  0
    0.2496    3.5031    2.4868 C   0  0  0  0  0  0  0  0  0  0  0  0
   -0.9974    2.5999    2.5448 C   0  0  0  0  0  0  0  0  0  0  0  0
   -0.4522    1.1988    2.6662 C   0  0  2  0  0  0  0  0  0  0  0  0
   -1.2391    0.1225    2.8223 N   0  0  0  0  0  0  0  0  0  0  0  0
   -2.2485    0.2147    2.8359 H   0  0  0  0  0  0  0  0  0  0  0  0
   -0.8899   -0.8239    2.8401 H   0  0  0  0  0  0  0  0  0  0  0  0
    3.7822   -0.0227    1.0967 N   0  0  0  0  0  0  0  0  0  0  0  0
    4.3508   -0.0520    1.9443 H   0  0  0  0  0  0  0  0  0  0  0  0
    4.4949   -0.0646   -0.1467 C   0  0  0  0  0  0  0  0  0  0  0  0
    5.6981   -0.0961   -0.1209 O   0  0  0  0  0  0  0  0  0  0  0  0
    3.7239   -0.0460   -1.3024 N   0  0  0  0  0  0  0  0  0  0  0  0
    4.2222   -0.0710   -2.2065 H   0  0  0  0  0  0  0  0  0  0  0  0
    2.3061   -0.0114   -1.3258 C   0  0  0  0  0  0  0  0  0  0  0  0
    1.7451    0.0151   -2.3882 O   0  0  0  0  0  0  0  0  0  0  0  0
    2.5537    0.0778    3.3440 H   0  0  0  0  0  0  0  0  0  0  0  0
    1.2334   -0.9315    2.7137 H   0  0  0  0  0  0  0  0  0  0  0  0
    2.0661    2.6171    1.5806 H   0  0  0  0  0  0  0  0  0  0  0  0
    2.1458    2.7698    3.3727 H   0  0  0  0  0  0  0  0  0  0  0  0
    0.2723    4.2175    3.3336 H   0  0  0  0  0  0  0  0  0  0  0  0
    0.2524    4.1331    1.5743 H   0  0  0  0  0  0  0  0  0  0  0  0
   -1.6628    2.8718    3.3922 H   0  0  0  0  0  0  0  0  0  0  0  0
   -1.6188    2.7094    1.6256 H   0  0  0  0  0  0  0  0  0  0  0  0
  1  2  1  0  0  0  0
  2  3  2  0  0  0  0
  3  4  1  0  0  0  0
  4  5  1  0  0  0  0
  4 22  1  0  0  0  0
  4 21  1  0  0  0  0
  6  5  1  0  0  0  0
  6 24  1  0  0  0  0
  7  6  1  0  0  0  0
  7  8  1  0  0  0  0
  7 25  1  0  0  0  0
  8  9  1  0  0  0  0
  8 27  1  0  0  0  0
  9  5  1  0  0  0  0
  9 10  1  1  0  0  0
 10 11  1  0  0  0  0
 10 12  1  0  0  0  0
 13  3  1  0  0  0  0
 13 14  1  0  0  0  0
 15 16  2  0  0  0  0
 15 13  1  0  0  0  0
 17 15  1  0  0  0  0
 18 17  1  0  0  0  0
 19 17  1  0  0  0  0
 19  2  1  0  0  0  0
 20 19  2  0  0  0  0
 23  6  1  0  0  0  0
 26  7  1  0  0  0  0
 28  8  1  0  0  0  0
M  RAD  1   9   2
M  END
$$$$
