rmsd31.gzmat
 OpenBabel08211713363D

 28 29  0  0  1  0  0  0  0  0999 V2000
    0.0000    0.0000    0.0000 Cl  0  0  0  0  0  0  0  0  0  0  0  0
    1.6873    0.0000    0.0000 C   0  0  0  0  0  0  0  0  0  0  0  0
    2.4123    0.0000    1.1482 C   0  0  0  0  0  0  0  0  0  0  0  0
    1.7970   -0.0300    2.5366 C   0  0  0  0  0  0  0  0  0  0  0  0
    0.8405   -1.1236    2.6748 N   0  0  0  0  0  0  0  0  0  0  0  0
    1.3043   -2.5228    2.4633 C   0  0  0  0  0  0  0  0  0  0  0  0
    0.0192   -3.3743    2.3984 C   0  0  0  0  0  0  0  0  0  0  0  0
   -1.1560   -2.3902    2.5594 C   0  0  0  0  0  0  0  0  0  0  0  0
   -0.5069   -1.0344    2.6848 C   0  0  1  0  0  0  0  0  0  0  0  0
   -1.2091    0.0952    2.8678 N   0  0  0  0  0  0  0  0  0  0  0  0
   -2.2222    0.0776    2.9021 H   0  0  0  0  0  0  0  0  0  0  0  0
   -0.7899    1.0123    2.8891 H   0  0  0  0  0  0  0  0  0  0  0  0
    3.7876    0.0292    1.0872 N   0  0  0  0  0  0  0  0  0  0  0  0
    4.3599    0.0624    1.9321 H   0  0  0  0  0  0  0  0  0  0  0  0
    4.4956    0.0701   -0.1586 C   0  0  0  0  0  0  0  0  0  0  0  0
    5.6987    0.1070   -0.1374 O   0  0  0  0  0  0  0  0  0  0  0  0
    3.7200    0.0499   -1.3115 N   0  0  0  0  0  0  0  0  0  0  0  0
    4.2145    0.0769   -2.2177 H   0  0  0  0  0  0  0  0  0  0  0  0
    2.3022    0.0137   -1.3286 C   0  0  0  0  0  0  0  0  0  0  0  0
    1.7363   -0.0116   -2.3888 O   0  0  0  0  0  0  0  0  0  0  0  0
    1.3293    0.9633    2.7562 H   0  0  0  0  0  0  0  0  0  0  0  0
    2.5830   -0.1590    3.3332 H   0  0  0  0  0  0  0  0  0  0  0  0
    1.9638   -2.8171    3.3116 H   0  0  0  0  0  0  0  0  0  0  0  0
    1.9006   -2.5982    1.5252 H   0  0  0  0  0  0  0  0  0  0  0  0
   -0.0467   -3.9278    1.4394 H   0  0  0  0  0  0  0  0  0  0  0  0
    0.0093   -4.1520    3.1875 H   0  0  0  0  0  0  0  0  0  0  0  0
   -1.8422   -2.4323    1.6819 H   0  0  0  0  0  0  0  0  0  0  0  0
   -1.7827   -2.6393    3.4436 H   0  0  0  0  0  0  0  0  0  0  0  0
  1  2  1  0  0  0  0
  2  3  2  0  0  0  0
  3  4  1  0  0  0  0
  4  5  1  0  0  0  0
  4 21  1  0  0  0  0
  4 22  1  0  0  0  0
  5  9  1  0  0  0  0
  6  5  1  0  0  0  0
  6 23  1  0  0  0  0
  7  6  1  0  0  0  0
  7  8  1  0  0  0  0
  7 26  1  0  0  0  0
  8  9  1  0  0  0  0
  8 28  1  0  0  0  0
  9 10  1  1  0  0  0
 10 12  1  0  0  0  0
 10 11  1  0  0  0  0
 13  3  1  0  0  0  0
 13 14  1  0  0  0  0
 15 16  2  0  0  0  0
 15 13  1  0  0  0  0
 17 15  1  0  0  0  0
 18 17  1  0  0  0  0
 19 17  1  0  0  0  0
 19  2  1  0  0  0  0
 20 19  2  0  0  0  0
 24  6  1  0  0  0  0
 25  7  1  0  0  0  0
 27  8  1  0  0  0  0
M  RAD  1   9   2
M  END
$$$$
