28
rmsd31.gzmat
Cl         0.00000        0.00000        0.00000
C          1.68730        0.00000        0.00000
C          2.41230        0.00000        1.14820
C          1.79700       -0.03000        2.53660
N          0.84050       -1.12360        2.67480
C          1.30430       -2.52280        2.46330
C          0.01920       -3.37430        2.39840
C         -1.15600       -2.39020        2.55940
C         -0.50690       -1.03440        2.68480
N         -1.20910        0.09520        2.86780
H         -2.22220        0.07760        2.90210
H         -0.78990        1.01230        2.88910
N          3.78760        0.02920        1.08720
H          4.35990        0.06240        1.93210
C          4.49560        0.07010       -0.15860
O          5.69870        0.10700       -0.13740
N          3.72000        0.04990       -1.31150
H          4.21450        0.07690       -2.21770
C          2.30220        0.01370       -1.32860
O          1.73630       -0.01160       -2.38880
H          1.32930        0.96330        2.75620
H          2.58300       -0.15900        3.33320
H          1.96380       -2.81710        3.31160
H          1.90060       -2.59820        1.52520
H         -0.04670       -3.92780        1.43940
H          0.00930       -4.15200        3.18750
H         -1.84220       -2.43230        1.68190
H         -1.78270       -2.63930        3.44360
