28
rmsd40.gzmat
Cl         0.00000        0.00000        0.00000
C          1.68660        0.00000        0.00000
C          2.40750        0.00000        1.15050
C          1.78270       -0.01760        2.53450
N          0.87830        1.11220        2.71960
C          1.41950        2.49380        2.60200
C          0.18310        3.41610        2.59290
C         -1.04540        2.48810        2.66830
C         -0.47110        1.09390        2.72050
N         -1.23280       -0.00570        2.83730
H         -2.24360        0.06290        2.86800
H         -0.86300       -0.94410        2.81030
N          3.78290        0.01610        1.09510
H          4.35220        0.00330        1.94230
C          4.49630       -0.00740       -0.14790
O          5.70010       -0.00360       -0.12140
N          3.72500       -0.01810       -1.30350
H          4.22420       -0.04400       -2.20730
C          2.30660       -0.00840       -1.32640
O          1.74530       -0.00350       -2.38900
H          2.56480        0.03020        3.34330
H          1.26660       -0.99800        2.69710
H          2.02390        2.59620        1.67170
H          2.09150        2.69450        3.46750
H          0.20480        4.12980        3.44030
H          0.15910        4.04510        1.67990
H         -1.67920        2.71730        3.55280
H         -1.70790        2.62040        1.78140
