27
rmsd130.gzmat
Cl         0.00000        0.00000        0.00000
C          1.70810        0.00000        0.00000
C          2.42030        0.00000        1.19190
S          1.66840        0.06540        2.81000
O          2.75520       -0.12530        3.74660
O          0.81840        1.22720        2.87570
C          0.65780       -1.35480        2.85030
S          1.19370       -2.96810        3.00940
C         -0.39020       -3.60610        2.95650
S         -0.81850       -5.28910        3.04470
O         -2.21220       -5.42090        2.70060
O          0.21300       -6.06850        2.40430
N         -0.69470       -5.64990        4.73790
C         -1.31800       -2.59200        2.83280
C         -0.71930       -1.30490        2.77660
C          3.81450       -0.03000        1.13390
C          4.43330       -0.05810       -0.11080
Cl         6.13770       -0.10730       -0.17860
C          3.72050       -0.04670       -1.30520
C          2.32920       -0.01750       -1.24710
H         -0.00570       -6.33460        5.00570
H         -1.55750       -5.80520        5.23470
H         -2.39350       -2.73330        2.77910
H         -1.30710       -0.39440        2.69040
H          4.42150       -0.03050        2.05510
H          4.23240       -0.05970       -2.26960
H          1.74330       -0.00720       -2.16860
