rmsd100.gzmat
 OpenBabel08211713373D

 27 27  0  0  0  0  0  0  0  0999 V2000
    0.0000    0.0000    0.0000 Cl  0  0  0  0  0  0  0  0  0  0  0  0
    1.7082    0.0000    0.0000 C   0  0  0  0  0  0  0  0  0  0  0  0
    2.4238    0.0000    1.1895 C   0  0  0  0  0  0  0  0  0  0  0  0
    1.6827   -0.0483    2.8151 S   0  0  0  0  0  0  0  0  0  0  0  0
    0.9151   -1.2625    2.9307 O   0  0  0  0  0  0  0  0  0  0  0  0
    2.7584    0.2521    3.7352 O   0  0  0  0  0  0  0  0  0  0  0  0
    0.5757    1.2983    2.8031 C   0  0  0  0  0  0  0  0  0  0  0  0
    0.9980    2.9524    2.8362 S   0  0  0  0  0  0  0  0  0  0  0  0
   -0.6261    3.4718    2.7313 C   0  0  0  0  0  0  0  0  0  0  0  0
   -1.1720    5.1202    2.6412 S   0  0  0  0  0  0  0  0  0  0  0  0
   -0.3108    5.8505    1.7437 O   0  0  0  0  0  0  0  0  0  0  0  0
   -2.6065    5.1121    2.4973 O   0  0  0  0  0  0  0  0  0  0  0  0
   -0.8378    5.7527    4.2231 N   0  0  0  0  0  0  0  0  0  0  0  0
   -1.4816    2.3893    2.7006 C   0  0  0  0  0  0  0  0  0  0  0  0
   -0.7951    1.1467    2.7515 C   0  0  0  0  0  0  0  0  0  0  0  0
    3.8176    0.0167    1.1240 C   0  0  0  0  0  0  0  0  0  0  0  0
    4.4320    0.0328   -0.1231 C   0  0  0  0  0  0  0  0  0  0  0  0
    6.1364    0.0564   -0.1980 Cl  0  0  0  0  0  0  0  0  0  0  0  0
    3.7148    0.0290   -1.3144 C   0  0  0  0  0  0  0  0  0  0  0  0
    2.3241    0.0134   -1.2494 C   0  0  0  0  0  0  0  0  0  0  0  0
   -1.6338    5.9410    4.8120 H   0  0  0  0  0  0  0  0  0  0  0  0
   -0.1750    6.5107    4.2749 H   0  0  0  0  0  0  0  0  0  0  0  0
   -2.5645    2.4536    2.6348 H   0  0  0  0  0  0  0  0  0  0  0  0
   -1.3166    0.1923    2.7438 H   0  0  0  0  0  0  0  0  0  0  0  0
    4.4287    0.0184    2.0417 H   0  0  0  0  0  0  0  0  0  0  0  0
    4.2222    0.0387   -2.2812 H   0  0  0  0  0  0  0  0  0  0  0  0
    1.7330    0.0106   -2.1670 H   0  0  0  0  0  0  0  0  0  0  0  0
  1  2  1  0  0  0  0
  2  3  2  0  0  0  0
  4  5  1  0  0  0  0
  4  6  1  0  0  0  0
  7  4  1  0  0  0  0
  7  8  1  0  0  0  0
  9  8  1  0  0  0  0
 10  9  1  0  0  0  0
 10 13  1  0  0  0  0
 11 10  2  0  0  0  0
 12 10  2  0  0  0  0
 13 22  1  0  0  0  0
 13 21  1  0  0  0  0
 14  9  2  0  0  0  0
 14 15  1  0  0  0  0
 15  7  2  0  0  0  0
 16  3  1  0  0  0  0
 16 25  1  0  0  0  0
 17 16  2  0  0  0  0
 18 17  1  0  0  0  0
 19 20  2  0  0  0  0
 19 17  1  0  0  0  0
 20  2  1  0  0  0  0
 23 14  1  0  0  0  0
 24 15  1  0  0  0  0
 26 19  1  0  0  0  0
 27 20  1  0  0  0  0
M  RAD  3   3   2   5   2   6   2
M  END
$$$$
