rmsd104.gzmat
 OpenBabel08211713373D

 27 28  0  0  0  0  0  0  0  0999 V2000
    0.0000    0.0000    0.0000 Cl  0  0  0  0  0  0  0  0  0  0  0  0
    1.7083    0.0000    0.0000 C   0  0  0  0  0  0  0  0  0  0  0  0
    2.4231    0.0000    1.1900 C   0  0  0  0  0  0  0  0  0  0  0  0
    1.6723   -0.0088    2.8111 S   0  0  0  0  0  0  0  0  0  0  0  0
    0.8264   -1.1696    2.9251 O   0  0  0  0  0  0  0  0  0  0  0  0
    2.7568    0.2262    3.7397 O   0  0  0  0  0  0  0  0  0  0  0  0
    0.6596    1.4104    2.7713 C   0  0  0  0  0  0  0  0  0  0  0  0
    1.1975    3.0310    2.7892 S   0  0  0  0  0  0  0  0  0  0  0  0
   -0.3836    3.6619    2.6450 C   0  0  0  0  0  0  0  0  0  0  0  0
   -0.8074    5.3444    2.5331 S   0  0  0  0  0  0  0  0  0  0  0  0
    0.2226    6.0407    1.8016 O   0  0  0  0  0  0  0  0  0  0  0  0
   -2.2016    5.4354    2.1783 O   0  0  0  0  0  0  0  0  0  0  0  0
   -0.6776    5.9038    4.1708 N   0  0  0  0  0  0  0  0  0  0  0  0
   -1.3125    2.6421    2.6120 C   0  0  0  0  0  0  0  0  0  0  0  0
   -0.7168    1.3552    2.6930 C   0  0  0  0  0  0  0  0  0  0  0  0
    3.8169    0.0062    1.1277 C   0  0  0  0  0  0  0  0  0  0  0  0
    4.4332    0.0245   -0.1183 C   0  0  0  0  0  0  0  0  0  0  0  0
    6.1378    0.0414   -0.1903 Cl  0  0  0  0  0  0  0  0  0  0  0  0
    3.7176    0.0301   -1.3107 C   0  0  0  0  0  0  0  0  0  0  0  0
    2.3264    0.0145   -1.2483 C   0  0  0  0  0  0  0  0  0  0  0  0
   -1.5400    6.0847    4.6590 H   0  0  0  0  0  0  0  0  0  0  0  0
   -0.0115    6.6391    4.3467 H   0  0  0  0  0  0  0  0  0  0  0  0
   -2.3861    2.7793    2.5214 H   0  0  0  0  0  0  0  0  0  0  0  0
   -1.3055    0.4410    2.6886 H   0  0  0  0  0  0  0  0  0  0  0  0
    4.4261   -0.0003    2.0470 H   0  0  0  0  0  0  0  0  0  0  0  0
    4.2265    0.0453   -2.2766 H   0  0  0  0  0  0  0  0  0  0  0  0
    1.7374    0.0135   -2.1674 H   0  0  0  0  0  0  0  0  0  0  0  0
  1  2  1  0  0  0  0
  2  3  2  0  0  0  0
  3  4  1  0  0  0  0
  4  5  2  0  0  0  0
  4  6  2  0  0  0  0
  7  8  1  0  0  0  0
  7  4  1  0  0  0  0
  9  8  1  0  0  0  0
 10  9  1  0  0  0  0
 10 13  1  0  0  0  0
 11 10  2  0  0  0  0
 12 10  2  0  0  0  0
 13 22  1  0  0  0  0
 13 21  1  0  0  0  0
 14  9  2  0  0  0  0
 14 15  1  0  0  0  0
 15  7  2  0  0  0  0
 16  3  1  0  0  0  0
 16 25  1  0  0  0  0
 17 16  2  0  0  0  0
 18 17  1  0  0  0  0
 19 20  2  0  0  0  0
 19 17  1  0  0  0  0
 20  2  1  0  0  0  0
 23 14  1  0  0  0  0
 24 15  1  0  0  0  0
 26 19  1  0  0  0  0
 27 20  1  0  0  0  0
M  END
$$$$
