27

Cl        -0.02720        0.70000       -0.05330
C          1.66870        0.32350       -0.04350
C          2.37190        0.04020        1.13700
S          1.62070        0.07510        2.78400
O          2.68970       -0.27660        3.72430
O          0.83120        1.29620        2.93240
C          0.48770       -1.29280        2.75720
S          1.06460       -2.92550        2.83350
C         -0.56970       -3.49170        2.76430
S         -0.94470       -5.22670        2.77940
O         -2.36990       -5.33050        2.47320
O          0.09440       -5.90590        2.01070
N         -0.69340       -5.65620        4.38170
C         -1.49880       -2.47890        2.69320
C         -0.88260       -1.19760        2.68760
C          3.73490       -0.26320        1.09680
C          4.39690       -0.28850       -0.13040
Cl         6.09490       -0.66670       -0.18700
C          3.70560       -0.01400       -1.31440
C          2.34610        0.28790       -1.26670
H         -0.08960       -6.47620        4.43310
H         -1.57350       -5.77660        4.88160
H         -2.57010       -2.67020        2.63800
H         -1.39980       -0.24090        2.63050
H          4.25790       -0.47570        2.02920
H          4.23230       -0.03930       -2.26920
H          1.79500        0.50250       -2.18320
