rmsd148.gzmat
 OpenBabel08211713373D

 27 28  0  0  0  0  0  0  0  0999 V2000
    0.0000    0.0000    0.0000 Cl  0  0  0  0  0  0  0  0  0  0  0  0
    1.7079    0.0000    0.0000 C   0  0  0  0  0  0  0  0  0  0  0  0
    2.4225    0.0000    1.1903 C   0  0  0  0  0  0  0  0  0  0  0  0
    1.6776   -0.0798    2.8120 S   0  0  0  0  0  0  0  0  0  0  0  0
    0.8571   -1.2629    2.8772 O   0  0  0  0  0  0  0  0  0  0  0  0
    2.7622    0.1380    3.7450 O   0  0  0  0  0  0  0  0  0  0  0  0
    0.6343    1.3162    2.8530 C   0  0  0  0  0  0  0  0  0  0  0  0
    1.1317    2.9399    3.0305 S   0  0  0  0  0  0  0  0  0  0  0  0
   -0.4621    3.5459    2.9162 C   0  0  0  0  0  0  0  0  0  0  0  0
   -0.9232    5.2221    2.9587 S   0  0  0  0  0  0  0  0  0  0  0  0
    0.1854    6.0216    2.4960 O   0  0  0  0  0  0  0  0  0  0  0  0
   -2.2475    5.3420    2.4019 O   0  0  0  0  0  0  0  0  0  0  0  0
   -1.0749    5.5669    4.6526 N   0  0  0  0  0  0  0  0  0  0  0  0
   -1.3645    2.5125    2.7660 C   0  0  0  0  0  0  0  0  0  0  0  0
   -0.7388    1.2376    2.7414 C   0  0  0  0  0  0  0  0  0  0  0  0
    3.8164    0.0332    1.1277 C   0  0  0  0  0  0  0  0  0  0  0  0
    4.4318    0.0536   -0.1187 C   0  0  0  0  0  0  0  0  0  0  0  0
    6.1355    0.0968   -0.1905 Cl  0  0  0  0  0  0  0  0  0  0  0  0
    3.7161    0.0363   -1.3112 C   0  0  0  0  0  0  0  0  0  0  0  0
    2.3252    0.0141   -1.2483 C   0  0  0  0  0  0  0  0  0  0  0  0
   -2.0089    5.6979    5.0070 H   0  0  0  0  0  0  0  0  0  0  0  0
   -0.4531    6.2650    5.0292 H   0  0  0  0  0  0  0  0  0  0  0  0
   -2.4388    2.6300    2.6614 H   0  0  0  0  0  0  0  0  0  0  0  0
   -1.3062    0.3155    2.6454 H   0  0  0  0  0  0  0  0  0  0  0  0
    4.4256    0.0426    2.0474 H   0  0  0  0  0  0  0  0  0  0  0  0
    4.2240    0.0380   -2.2777 H   0  0  0  0  0  0  0  0  0  0  0  0
    1.7363    0.0049   -2.1675 H   0  0  0  0  0  0  0  0  0  0  0  0
  1  2  1  0  0  0  0
  2  3  2  0  0  0  0
  3  4  1  0  0  0  0
  4  7  1  0  0  0  0
  4  5  2  0  0  0  0
  4  6  2  0  0  0  0
  7  8  1  0  0  0  0
  9 10  1  0  0  0  0
  9  8  1  0  0  0  0
 10 13  1  0  0  0  0
 11 10  2  0  0  0  0
 12 10  2  0  0  0  0
 13 21  1  0  0  0  0
 13 22  1  0  0  0  0
 14  9  2  0  0  0  0
 15 14  1  0  0  0  0
 15  7  2  0  0  0  0
 16  3  1  0  0  0  0
 16 25  1  0  0  0  0
 17 16  2  0  0  0  0
 18 17  1  0  0  0  0
 19 20  2  0  0  0  0
 19 17  1  0  0  0  0
 20  2  1  0  0  0  0
 23 14  1  0  0  0  0
 24 15  1  0  0  0  0
 26 19  1  0  0  0  0
 27 20  1  0  0  0  0
M  END
$$$$
