27
rmsd119.gzmat
Cl         0.00000        0.00000        0.00000
C          1.70820        0.00000        0.00000
C          2.42230        0.00000        1.19080
S          1.67220       -0.04510        2.81140
O          0.81740       -1.20240        2.88790
O          2.75990        0.15010        3.74580
C          0.67000        1.38180        2.83100
S          1.21620        2.99190        2.99050
C         -0.35810        3.64430        2.86440
S         -0.77160        5.33290        2.89350
O          0.36960        6.09770        2.45270
O         -2.07950        5.49070        2.30900
N         -0.94930        5.68190        4.58410
C         -1.29090        2.63720        2.72310
C         -0.70450        1.34370        2.71490
C          3.81660        0.01260        1.12920
C          4.43340        0.02620       -0.11670
Cl         6.13810        0.03790       -0.18780
C          3.71820        0.02540       -1.30980
C          2.32690        0.01280       -1.24830
H         -1.88300        5.86840        4.91280
H         -0.29690        6.33800        4.98310
H         -2.36080        2.78750        2.61690
H         -1.30000        0.43800        2.62960
H          4.42560        0.01030        2.04900
H          4.22780        0.03230       -2.27550
H          1.73840        0.00990       -2.16800
