rmsd75.gzmat
 OpenBabel08211713373D

 27 27  0  0  0  0  0  0  0  0999 V2000
    0.0000    0.0000    0.0000 Cl  0  0  0  0  0  0  0  0  0  0  0  0
    1.7083    0.0000    0.0000 C   0  0  0  0  0  0  0  0  0  0  0  0
    2.4218    0.0000    1.1908 C   0  0  0  0  0  0  0  0  0  0  0  0
    1.6742   -0.0533    2.8123 S   0  0  0  0  0  0  0  0  0  0  0  0
    0.8914   -1.2589    2.9149 O   0  0  0  0  0  0  0  0  0  0  0  0
    2.7498    0.2271    3.7388 O   0  0  0  0  0  0  0  0  0  0  0  0
    0.5840    1.3073    2.8070 C   0  0  0  0  0  0  0  0  0  0  0  0
    1.0270    2.9556    2.8411 S   0  0  0  0  0  0  0  0  0  0  0  0
   -0.5917    3.4960    2.7608 C   0  0  0  0  0  0  0  0  0  0  0  0
   -1.1179    5.1521    2.6940 S   0  0  0  0  0  0  0  0  0  0  0  0
   -0.3396    5.8565    1.7048 O   0  0  0  0  0  0  0  0  0  0  0  0
   -2.5596    5.1649    2.6904 O   0  0  0  0  0  0  0  0  0  0  0  0
   -0.6166    5.7989    4.2256 N   0  0  0  0  0  0  0  0  0  0  0  0
   -1.4608    2.4243    2.7380 C   0  0  0  0  0  0  0  0  0  0  0  0
   -0.7891    1.1737    2.7694 C   0  0  0  0  0  0  0  0  0  0  0  0
    3.8159    0.0212    1.1298 C   0  0  0  0  0  0  0  0  0  0  0  0
    4.4332    0.0401   -0.1160 C   0  0  0  0  0  0  0  0  0  0  0  0
    6.1378    0.0689   -0.1858 Cl  0  0  0  0  0  0  0  0  0  0  0  0
    3.7184    0.0346   -1.3090 C   0  0  0  0  0  0  0  0  0  0  0  0
    2.3273    0.0154   -1.2476 C   0  0  0  0  0  0  0  0  0  0  0  0
   -1.3394    5.9588    4.9090 H   0  0  0  0  0  0  0  0  0  0  0  0
    0.0194    6.5810    4.1981 H   0  0  0  0  0  0  0  0  0  0  0  0
   -2.5439    2.5008    2.6959 H   0  0  0  0  0  0  0  0  0  0  0  0
   -1.3238    0.2270    2.7625 H   0  0  0  0  0  0  0  0  0  0  0  0
    4.4240    0.0250    2.0500 H   0  0  0  0  0  0  0  0  0  0  0  0
    4.2282    0.0446   -2.2746 H   0  0  0  0  0  0  0  0  0  0  0  0
    1.7388    0.0106   -2.1669 H   0  0  0  0  0  0  0  0  0  0  0  0
  1  2  1  0  0  0  0
  2  3  2  0  0  0  0
  4  5  1  0  0  0  0
  4  6  1  0  0  0  0
  7  4  1  0  0  0  0
  7  8  1  0  0  0  0
  9  8  1  0  0  0  0
 10  9  1  0  0  0  0
 10 13  1  0  0  0  0
 11 10  2  0  0  0  0
 12 10  2  0  0  0  0
 13 21  1  0  0  0  0
 14  9  2  0  0  0  0
 14 15  1  0  0  0  0
 15  7  2  0  0  0  0
 16  3  1  0  0  0  0
 16 25  1  0  0  0  0
 17 16  2  0  0  0  0
 18 17  1  0  0  0  0
 19 20  2  0  0  0  0
 19 17  1  0  0  0  0
 20  2  1  0  0  0  0
 22 13  1  0  0  0  0
 23 14  1  0  0  0  0
 24 15  1  0  0  0  0
 26 19  1  0  0  0  0
 27 20  1  0  0  0  0
M  RAD  3   3   2   5   2   6   2
M  END
$$$$
