rmsd120.gzmat
 OpenBabel08211713423D

 37 38  0  0  1  0  0  0  0  0999 V2000
    0.0000    0.0000    0.0000 O   0  0  0  0  0  0  0  0  0  0  0  0
    1.4144    0.0000    0.0000 C   0  0  0  0  0  0  0  0  0  0  0  0
    1.9643    0.0000    1.4355 C   0  0  1  0  0  0  0  0  0  0  0  0
    2.9150   -0.5762    1.4911 H   0  0  0  0  0  0  0  0  0  0  0  0
    2.2526    1.3507    1.7286 O   0  0  0  0  0  0  0  0  0  0  0  0
    0.9250   -0.5155    2.4554 C   0  0  1  0  0  0  0  0  0  0  0  0
    0.1001    0.2212    2.5815 H   0  0  0  0  0  0  0  0  0  0  0  0
    0.3921   -1.7484    2.0190 O   0  0  0  0  0  0  0  0  0  0  0  0
    1.5911   -0.8456    3.8089 C   0  0  1  0  0  0  0  0  0  0  0  0
    2.4458   -1.5479    3.6800 H   0  0  0  0  0  0  0  0  0  0  0  0
    2.0932    0.3928    4.2646 O   0  0  0  0  0  0  0  0  0  0  0  0
    0.5494   -1.3792    4.8146 C   0  0  0  0  0  0  0  0  0  0  0  0
    1.0858   -2.5116    5.5795 N   0  0  0  0  0  0  0  0  0  0  0  0
    1.8273   -2.2278    6.7500 C   0  0  0  0  0  0  0  0  0  0  0  0
    2.1387   -1.0865    6.9699 O   0  0  0  0  0  0  0  0  0  0  0  0
    2.1598   -3.3924    7.6776 C   0  0  0  0  0  0  0  0  0  0  0  0
    2.6551   -3.2097    8.7636 O   0  0  0  0  0  0  0  0  0  0  0  0
    1.8575   -4.6567    7.2300 N   0  0  0  0  0  0  0  0  0  0  0  0
    2.0595   -5.4774    7.8057 H   0  0  0  0  0  0  0  0  0  0  0  0
    1.2955   -4.8763    5.9645 C   0  0  0  0  0  0  0  0  0  0  0  0
    0.9306   -3.8268    5.1408 C   0  0  0  0  0  0  0  0  0  0  0  0
    0.4192   -4.0738    3.8746 N   0  0  0  0  0  0  0  0  0  0  0  0
    0.2739   -3.2987    3.2063 H   0  0  0  0  0  0  0  0  0  0  0  0
    0.2159   -5.3895    3.3989 C   0  0  0  0  0  0  0  0  0  0  0  0
   -0.2159   -5.5730    2.2857 O   0  0  0  0  0  0  0  0  0  0  0  0
    0.5365   -6.4354    4.2692 N   0  0  0  0  0  0  0  0  0  0  0  0
    0.3697   -7.3911    3.9372 H   0  0  0  0  0  0  0  0  0  0  0  0
    1.0956   -6.2625    5.5553 C   0  0  0  0  0  0  0  0  0  0  0  0
    1.3548   -7.2398    6.2171 O   0  0  0  0  0  0  0  0  0  0  0  0
   -0.3435    0.8748    0.2787 H   0  0  0  0  0  0  0  0  0  0  0  0
    1.7923    0.8725   -0.5668 H   0  0  0  0  0  0  0  0  0  0  0  0
    1.6626   -0.9343   -0.5385 H   0  0  0  0  0  0  0  0  0  0  0  0
    2.4377    1.4467    2.6930 H   0  0  0  0  0  0  0  0  0  0  0  0
   -0.1140   -1.6046    1.1775 H   0  0  0  0  0  0  0  0  0  0  0  0
    2.4349    0.3054    5.1885 H   0  0  0  0  0  0  0  0  0  0  0  0
   -0.4057   -1.6637    4.3140 H   0  0  0  0  0  0  0  0  0  0  0  0
    0.2659   -0.5596    5.5277 H   0  0  0  0  0  0  0  0  0  0  0  0
  1 30  1  0  0  0  0
  2  1  1  0  0  0  0
  2  3  1  0  0  0  0
  3  4  1  1  0  0  0
  3  5  1  0  0  0  0
  3  6  1  0  0  0  0
  5 33  1  0  0  0  0
  6  7  1  1  0  0  0
  6  9  1  0  0  0  0
  8  6  1  0  0  0  0
  9 10  1  6  0  0  0
  9 11  1  0  0  0  0
  9 12  1  0  0  0  0
 11 35  1  0  0  0  0
 12 37  1  0  0  0  0
 12 13  1  0  0  0  0
 13 14  1  0  0  0  0
 14 15  2  0  0  0  0
 14 16  1  0  0  0  0
 16 17  2  0  0  0  0
 18 16  1  0  0  0  0
 18 19  1  0  0  0  0
 20 18  1  0  0  0  0
 21 13  1  0  0  0  0
 21 20  2  0  0  0  0
 22 21  1  0  0  0  0
 23 22  1  0  0  0  0
 24 22  1  0  0  0  0
 24 26  1  0  0  0  0
 25 24  2  0  0  0  0
 26 28  1  0  0  0  0
 27 26  1  0  0  0  0
 28 20  1  0  0  0  0
 28 29  2  0  0  0  0
 31  2  1  0  0  0  0
 32  2  1  0  0  0  0
 34  8  1  0  0  0  0
 36 12  1  0  0  0  0
M  END
$$$$
