rmsd141.gzmat
 OpenBabel08211713423D

 37 38  0  0  1  0  0  0  0  0999 V2000
    0.0000    0.0000    0.0000 O   0  0  0  0  0  0  0  0  0  0  0  0
    1.4111    0.0000    0.0000 C   0  0  0  0  0  0  0  0  0  0  0  0
    1.9682    0.0000    1.4362 C   0  0  1  0  0  0  0  0  0  0  0  0
    1.6956   -0.9406    1.9662 H   0  0  0  0  0  0  0  0  0  0  0  0
    3.3796    0.1061    1.3887 O   0  0  0  0  0  0  0  0  0  0  0  0
    1.5564    1.2589    2.2326 C   0  0  1  0  0  0  0  0  0  0  0  0
    2.0318    2.1681    1.7866 H   0  0  0  0  0  0  0  0  0  0  0  0
    0.1630    1.4706    2.2186 O   0  0  0  0  0  0  0  0  0  0  0  0
    1.9468    1.1430    3.7201 C   0  0  1  0  0  0  0  0  0  0  0  0
    3.0546    1.0020    3.8103 H   0  0  0  0  0  0  0  0  0  0  0  0
    1.7131    2.3688    4.3769 O   0  0  0  0  0  0  0  0  0  0  0  0
    1.2110    0.0351    4.5101 C   0  0  0  0  0  0  0  0  0  0  0  0
   -0.2545    0.1408    4.4571 N   0  0  0  0  0  0  0  0  0  0  0  0
   -0.9138   -0.5065    3.3917 C   0  0  0  0  0  0  0  0  0  0  0  0
   -0.2983   -1.2702    2.6874 O   0  0  0  0  0  0  0  0  0  0  0  0
   -2.4162   -0.2992    3.2229 C   0  0  0  0  0  0  0  0  0  0  0  0
   -3.0168   -0.8237    2.3138 O   0  0  0  0  0  0  0  0  0  0  0  0
   -3.0485    0.4920    4.1476 N   0  0  0  0  0  0  0  0  0  0  0  0
   -4.0581    0.6494    4.1046 H   0  0  0  0  0  0  0  0  0  0  0  0
   -2.3300    1.1518    5.1548 C   0  0  0  0  0  0  0  0  0  0  0  0
   -0.9527    1.0476    5.2534 C   0  0  0  0  0  0  0  0  0  0  0  0
   -0.2680    1.8011    6.2002 N   0  0  0  0  0  0  0  0  0  0  0  0
    0.7557    1.9124    6.1222 H   0  0  0  0  0  0  0  0  0  0  0  0
   -0.9422    2.6216    7.1333 C   0  0  0  0  0  0  0  0  0  0  0  0
   -0.3108    3.2721    7.9324 O   0  0  0  0  0  0  0  0  0  0  0  0
   -2.3374    2.6395    7.0708 N   0  0  0  0  0  0  0  0  0  0  0  0
   -2.8327    3.2173    7.7577 H   0  0  0  0  0  0  0  0  0  0  0  0
   -3.0998    1.9589    6.0943 C   0  0  0  0  0  0  0  0  0  0  0  0
   -4.3025    2.0785    6.1055 O   0  0  0  0  0  0  0  0  0  0  0  0
   -0.3621   -0.7400    0.5516 H   0  0  0  0  0  0  0  0  0  0  0  0
    1.6676    0.9260   -0.5505 H   0  0  0  0  0  0  0  0  0  0  0  0
    1.7720   -0.8735   -0.5718 H   0  0  0  0  0  0  0  0  0  0  0  0
    3.7769   -0.6686    0.9433 H   0  0  0  0  0  0  0  0  0  0  0  0
   -0.2116    1.2233    1.3281 H   0  0  0  0  0  0  0  0  0  0  0  0
    0.9446    2.8373    3.9720 H   0  0  0  0  0  0  0  0  0  0  0  0
    1.5494    0.0438    5.5732 H   0  0  0  0  0  0  0  0  0  0  0  0
    1.5083   -0.9700    4.1150 H   0  0  0  0  0  0  0  0  0  0  0  0
  1 30  1  0  0  0  0
  2  1  1  0  0  0  0
  2  3  1  0  0  0  0
  3  4  1  1  0  0  0
  3  6  1  0  0  0  0
  5  3  1  0  0  0  0
  6  7  1  6  0  0  0
  6  9  1  0  0  0  0
  8  6  1  0  0  0  0
  9 10  1  1  0  0  0
  9 11  1  0  0  0  0
  9 12  1  0  0  0  0
 12 36  1  0  0  0  0
 13 12  1  0  0  0  0
 13 21  1  0  0  0  0
 14 13  1  0  0  0  0
 15 14  2  0  0  0  0
 16 14  1  0  0  0  0
 16 18  1  0  0  0  0
 17 16  2  0  0  0  0
 18 20  1  0  0  0  0
 19 18  1  0  0  0  0
 20 21  2  0  0  0  0
 20 28  1  0  0  0  0
 21 22  1  0  0  0  0
 22 24  1  0  0  0  0
 23 22  1  0  0  0  0
 24 25  2  0  0  0  0
 26 24  1  0  0  0  0
 26 27  1  0  0  0  0
 28 29  2  0  0  0  0
 28 26  1  0  0  0  0
 31  2  1  0  0  0  0
 32  2  1  0  0  0  0
 33  5  1  0  0  0  0
 34  8  1  0  0  0  0
 35 11  1  0  0  0  0
 37 12  1  0  0  0  0
M  END
$$$$
