37

O         -0.20280       -0.66630        0.93450
C          1.16570       -0.79320        0.63320
C          2.09490       -0.13570        1.65470
H          1.90740       -0.58890        2.64480
O          3.42500       -0.39670        1.21000
C          1.95220        1.38860        1.79430
H          2.56720        1.69420        2.66790
O          2.42710        2.03230        0.62170
C          0.53290        1.89850        2.00220
H         -0.01510        1.70000        1.06440
O         -0.05970        1.19600        3.07440
C          0.54460        3.41880        2.23590
N         -0.51580        4.09470        1.49300
C         -1.79240        4.05110        2.05210
O         -2.01700        3.37090        3.03510
C         -2.87190        4.93750        1.41670
O         -3.95040        5.08550        1.94450
N         -2.49070        5.52650        0.23960
H         -3.16580        6.11210       -0.25070
C         -1.27700        5.31100       -0.39740
C         -0.29590        4.58500        0.21490
N          0.89760        4.32100       -0.42180
H          1.53390        3.58430       -0.08640
C          1.18570        4.78490       -1.70400
O          2.21290        4.51040       -2.28080
N          0.18750        5.58170       -2.25390
H          0.37840        5.94040       -3.18590
C         -1.07140        5.87300       -1.72180
O         -1.89590        6.54560       -2.31430
H         -0.31330       -0.43770        1.87170
H          1.35360       -0.33850       -0.35540
H          1.47140       -1.85410        0.56290
H          4.02040       -0.37860        1.97010
H          3.19330        1.52040        0.31100
H         -0.88320        1.66900        3.29940
H          1.50110        3.86460        1.94080
H          0.39040        3.62030        3.30400
