37
rmsd192.gzmat
O          0.00000        0.00000        0.00000
C          1.41110        0.00000        0.00000
C          1.94920        0.00000        1.43920
H          1.73550       -0.96800        1.95480
O          3.35630        0.02420        1.39380
C          1.44010        1.16960        2.30740
H          0.37780        1.00740        2.60590
O          2.10840        1.13620        3.54670
C          1.62200        2.59240        1.73230
H          1.84620        3.29700        2.57170
O          2.71960        2.56280        0.83870
C          0.41210        3.09500        0.90190
N         -0.68290        3.54460        1.77050
C         -0.55680        4.83680        2.34150
O          0.43860        5.46850        2.10870
C         -1.69850        5.35350        3.20970
O         -1.67730        6.46830        3.67410
N         -2.75130        4.50120        3.44240
H         -3.54180        4.79120        4.02250
C         -2.78290        3.20720        2.90360
C         -1.77480        2.73730        2.07980
N         -1.85000        1.44940        1.56760
H         -1.10360        1.07530        0.95220
C         -2.90210        0.56760        1.89760
O         -2.88930       -0.56440        1.46790
N         -3.91220        1.06390        2.71990
H         -4.68830        0.43560        2.95030
C         -3.92630        2.37360        3.25700
O         -4.85410        2.70290        3.95740
H         -0.37610       -0.88070        0.21500
H          1.67530        0.92510       -0.55020
H          1.78890       -0.87000       -0.56690
H          3.65480        0.89990        1.04490
H          3.05450        0.88190        3.42240
H          3.14630        3.44220        0.77180
H          0.07260        2.33290        0.16680
H          0.74660        3.96160        0.27210
