37
rmsd120.gzmat
O          0.00000        0.00000        0.00000
C          1.41440        0.00000        0.00000
C          1.96430        0.00000        1.43550
H          2.91500       -0.57620        1.49110
O          2.25260        1.35070        1.72860
C          0.92500       -0.51550        2.45540
H          0.10010        0.22120        2.58150
O          0.39210       -1.74840        2.01900
C          1.59110       -0.84560        3.80890
H          2.44580       -1.54790        3.68000
O          2.09320        0.39280        4.26460
C          0.54940       -1.37920        4.81460
N          1.08580       -2.51160        5.57950
C          1.82730       -2.22780        6.75000
O          2.13870       -1.08650        6.96990
C          2.15980       -3.39240        7.67760
O          2.65510       -3.20970        8.76360
N          1.85750       -4.65670        7.23000
H          2.05950       -5.47740        7.80570
C          1.29550       -4.87630        5.96450
C          0.93060       -3.82680        5.14080
N          0.41920       -4.07380        3.87460
H          0.27390       -3.29870        3.20630
C          0.21590       -5.38950        3.39890
O         -0.21590       -5.57300        2.28570
N          0.53650       -6.43540        4.26920
H          0.36970       -7.39110        3.93720
C          1.09560       -6.26250        5.55530
O          1.35480       -7.23980        6.21710
H         -0.34350        0.87480        0.27870
H          1.79230        0.87250       -0.56680
H          1.66260       -0.93430       -0.53850
H          2.43770        1.44670        2.69300
H         -0.11400       -1.60460        1.17750
H          2.43490        0.30540        5.18850
H         -0.40570       -1.66370        4.31400
H          0.26590       -0.55960        5.52770
