
     RDKit          3D

 37 38  0  0  0  0  0  0  0  0999 V2000
   -0.0053    0.0807    0.0975 O   0  0  0  0  0  0  0  0  0  0  0  0
    1.4108    0.0105    0.0323 C   0  0  0  0  0  0  0  0  0  0  0  0
    2.0621    0.0249    1.4226 C   0  0  1  0  0  0  0  0  0  0  0  0
    1.6892   -0.8568    1.9650 H   0  0  0  0  0  0  0  0  0  0  0  0
    3.4763   -0.0029    1.3236 O   0  0  0  0  0  0  0  0  0  0  0  0
    1.7357    1.3033    2.2125 C   0  0  1  0  0  0  0  0  0  0  0  0
    2.4709    2.0540    1.8601 H   0  0  0  0  0  0  0  0  0  0  0  0
    0.4249    1.8127    2.0437 O   0  0  0  0  0  0  0  0  0  0  0  0
    1.9504    1.1707    3.7245 C   0  0  1  0  0  0  0  0  0  0  0  0
    3.0094    0.9232    3.9017 H   0  0  0  0  0  0  0  0  0  0  0  0
    1.6906    2.4367    4.3220 O   0  0  0  0  0  0  0  0  0  0  0  0
    1.1266    0.0802    4.4343 C   0  0  0  0  0  0  0  0  0  0  0  0
   -0.3372    0.2317    4.3568 N   0  0  0  0  0  0  0  0  0  0  0  0
   -1.0118   -0.4837    3.3756 C   0  0  0  0  0  0  0  0  0  0  0  0
   -0.4249   -1.2046    2.5871 O   0  0  0  0  0  0  0  0  0  0  0  0
   -2.5400   -0.3832    3.3014 C   0  0  0  0  0  0  0  0  0  0  0  0
   -3.1491   -0.9442    2.4177 O   0  0  0  0  0  0  0  0  0  0  0  0
   -3.1104    0.3346    4.3128 N   0  0  0  0  0  0  0  0  0  0  0  0
   -4.1260    0.4145    4.3526 H   0  0  0  0  0  0  0  0  0  0  0  0
   -2.3914    1.0754    5.2356 C   0  0  0  0  0  0  0  0  0  0  0  0
   -1.0260    1.0565    5.2382 C   0  0  0  0  0  0  0  0  0  0  0  0
   -0.3163    1.8242    6.1381 N   0  0  0  0  0  0  0  0  0  0  0  0
    0.6351    2.1069    5.8673 H   0  0  0  0  0  0  0  0  0  0  0  0
   -0.9266    2.6531    7.0778 C   0  0  0  0  0  0  0  0  0  0  0  0
   -0.3005    3.3916    7.8017 O   0  0  0  0  0  0  0  0  0  0  0  0
   -2.3147    2.5597    7.0976 N   0  0  0  0  0  0  0  0  0  0  0  0
   -2.7839    3.1450    7.7840 H   0  0  0  0  0  0  0  0  0  0  0  0
   -3.1330    1.8657    6.2067 C   0  0  0  0  0  0  0  0  0  0  0  0
   -4.3493    1.9091    6.2572 O   0  0  0  0  0  0  0  0  0  0  0  0
   -0.3376   -0.6339    0.6739 H   0  0  0  0  0  0  0  0  0  0  0  0
    1.7536    0.8832   -0.5461 H   0  0  0  0  0  0  0  0  0  0  0  0
    1.7458   -0.8950   -0.5096 H   0  0  0  0  0  0  0  0  0  0  0  0
    3.7488   -0.8900    1.0576 H   0  0  0  0  0  0  0  0  0  0  0  0
    0.0173    1.3915    1.2557 H   0  0  0  0  0  0  0  0  0  0  0  0
    1.0236    2.8640    3.7563 H   0  0  0  0  0  0  0  0  0  0  0  0
    1.4023    0.0724    5.4982 H   0  0  0  0  0  0  0  0  0  0  0  0
    1.3601   -0.9082    4.0229 H   0  0  0  0  0  0  0  0  0  0  0  0
  1  2  1  0
  1 30  1  0
  2  3  1  0
  2 31  1  0
  2 32  1  0
  3  4  1  1
  3  5  1  0
  3  6  1  0
  5 33  1  0
  6  7  1  6
  6  8  1  0
  6  9  1  0
  8 34  1  0
  9 10  1  6
  9 11  1  0
  9 12  1  0
 11 35  1  0
 12 13  1  0
 12 36  1  0
 12 37  1  0
 13 14  1  0
 13 21  1  0
 14 15  2  0
 14 16  1  0
 16 17  2  0
 16 18  1  0
 18 19  1  0
 18 20  1  0
 20 21  2  0
 20 28  1  0
 21 22  1  0
 22 23  1  0
 22 24  1  0
 24 25  2  0
 24 26  1  0
 26 27  1  0
 26 28  1  0
 28 29  2  0
M  END

