37

O         -0.00530        0.08070        0.09750
C          1.41080        0.01050        0.03230
C          2.06210        0.02490        1.42260
H          1.68920       -0.85680        1.96500
O          3.47630       -0.00290        1.32360
C          1.73570        1.30330        2.21250
H          2.47090        2.05400        1.86010
O          0.42490        1.81270        2.04370
C          1.95040        1.17070        3.72450
H          3.00940        0.92320        3.90170
O          1.69060        2.43670        4.32200
C          1.12660        0.08020        4.43430
N         -0.33720        0.23170        4.35680
C         -1.01180       -0.48370        3.37560
O         -0.42490       -1.20460        2.58710
C         -2.54000       -0.38320        3.30140
O         -3.14910       -0.94420        2.41770
N         -3.11040        0.33460        4.31280
H         -4.12600        0.41450        4.35260
C         -2.39140        1.07540        5.23560
C         -1.02600        1.05650        5.23820
N         -0.31630        1.82420        6.13810
H          0.63510        2.10690        5.86730
C         -0.92660        2.65310        7.07780
O         -0.30050        3.39160        7.80170
N         -2.31470        2.55970        7.09760
H         -2.78390        3.14500        7.78400
C         -3.13300        1.86570        6.20670
O         -4.34930        1.90910        6.25720
H         -0.33760       -0.63390        0.67390
H          1.75360        0.88320       -0.54610
H          1.74580       -0.89500       -0.50960
H          3.74880       -0.89000        1.05760
H          0.01730        1.39150        1.25570
H          1.02360        2.86400        3.75630
H          1.40230        0.07240        5.49820
H          1.36010       -0.90820        4.02290
