
     RDKit          3D

 37 38  0  0  0  0  0  0  0  0999 V2000
   -0.2028   -0.6663    0.9345 O   0  0  0  0  0  0  0  0  0  0  0  0
    1.1657   -0.7932    0.6332 C   0  0  0  0  0  0  0  0  0  0  0  0
    2.0949   -0.1357    1.6547 C   0  0  1  0  0  0  0  0  0  0  0  0
    1.9074   -0.5889    2.6448 H   0  0  0  0  0  0  0  0  0  0  0  0
    3.4250   -0.3967    1.2100 O   0  0  0  0  0  0  0  0  0  0  0  0
    1.9522    1.3886    1.7943 C   0  0  1  0  0  0  0  0  0  0  0  0
    2.5672    1.6942    2.6679 H   0  0  0  0  0  0  0  0  0  0  0  0
    2.4271    2.0323    0.6217 O   0  0  0  0  0  0  0  0  0  0  0  0
    0.5329    1.8985    2.0022 C   0  0  1  0  0  0  0  0  0  0  0  0
   -0.0151    1.7000    1.0644 H   0  0  0  0  0  0  0  0  0  0  0  0
   -0.0597    1.1960    3.0744 O   0  0  0  0  0  0  0  0  0  0  0  0
    0.5446    3.4188    2.2359 C   0  0  0  0  0  0  0  0  0  0  0  0
   -0.5158    4.0947    1.4930 N   0  0  0  0  0  0  0  0  0  0  0  0
   -1.7924    4.0511    2.0521 C   0  0  0  0  0  0  0  0  0  0  0  0
   -2.0170    3.3709    3.0351 O   0  0  0  0  0  0  0  0  0  0  0  0
   -2.8719    4.9375    1.4167 C   0  0  0  0  0  0  0  0  0  0  0  0
   -3.9504    5.0855    1.9445 O   0  0  0  0  0  0  0  0  0  0  0  0
   -2.4907    5.5265    0.2396 N   0  0  0  0  0  0  0  0  0  0  0  0
   -3.1658    6.1121   -0.2507 H   0  0  0  0  0  0  0  0  0  0  0  0
   -1.2770    5.3110   -0.3974 C   0  0  0  0  0  0  0  0  0  0  0  0
   -0.2959    4.5850    0.2149 C   0  0  0  0  0  0  0  0  0  0  0  0
    0.8976    4.3210   -0.4218 N   0  0  0  0  0  0  0  0  0  0  0  0
    1.5339    3.5843   -0.0864 H   0  0  0  0  0  0  0  0  0  0  0  0
    1.1857    4.7849   -1.7040 C   0  0  0  0  0  0  0  0  0  0  0  0
    2.2129    4.5104   -2.2808 O   0  0  0  0  0  0  0  0  0  0  0  0
    0.1875    5.5817   -2.2539 N   0  0  0  0  0  0  0  0  0  0  0  0
    0.3784    5.9404   -3.1859 H   0  0  0  0  0  0  0  0  0  0  0  0
   -1.0714    5.8730   -1.7218 C   0  0  0  0  0  0  0  0  0  0  0  0
   -1.8959    6.5456   -2.3143 O   0  0  0  0  0  0  0  0  0  0  0  0
   -0.3133   -0.4377    1.8717 H   0  0  0  0  0  0  0  0  0  0  0  0
    1.3536   -0.3385   -0.3554 H   0  0  0  0  0  0  0  0  0  0  0  0
    1.4714   -1.8541    0.5629 H   0  0  0  0  0  0  0  0  0  0  0  0
    4.0204   -0.3786    1.9701 H   0  0  0  0  0  0  0  0  0  0  0  0
    3.1933    1.5204    0.3110 H   0  0  0  0  0  0  0  0  0  0  0  0
   -0.8832    1.6690    3.2994 H   0  0  0  0  0  0  0  0  0  0  0  0
    1.5011    3.8646    1.9408 H   0  0  0  0  0  0  0  0  0  0  0  0
    0.3904    3.6203    3.3040 H   0  0  0  0  0  0  0  0  0  0  0  0
  1  2  1  0
  1 30  1  0
  2  3  1  0
  2 31  1  0
  2 32  1  0
  3  4  1  1
  3  5  1  0
  3  6  1  0
  5 33  1  0
  6  7  1  1
  6  8  1  0
  6  9  1  0
  8 34  1  0
  9 10  1  6
  9 11  1  0
  9 12  1  0
 11 35  1  0
 12 13  1  0
 12 36  1  0
 12 37  1  0
 13 14  1  0
 13 21  1  0
 14 15  2  0
 14 16  1  0
 16 17  2  0
 16 18  1  0
 18 19  1  0
 18 20  1  0
 20 21  2  0
 20 28  1  0
 21 22  1  0
 22 23  1  0
 22 24  1  0
 24 25  2  0
 24 26  1  0
 26 27  1  0
 26 28  1  0
 28 29  2  0
M  END

