rmsd191.gzmat
 OpenBabel08211713423D

 37 38  0  0  1  0  0  0  0  0999 V2000
    0.0000    0.0000    0.0000 O   0  0  0  0  0  0  0  0  0  0  0  0
    1.4109    0.0000    0.0000 C   0  0  0  0  0  0  0  0  0  0  0  0
    1.9513    0.0000    1.4384 C   0  0  1  0  0  0  0  0  0  0  0  0
    1.7426   -0.9693    1.9537 H   0  0  0  0  0  0  0  0  0  0  0  0
    3.3582    0.0291    1.3911 O   0  0  0  0  0  0  0  0  0  0  0  0
    1.4397    1.1675    2.3083 C   0  0  1  0  0  0  0  0  0  0  0  0
    0.3773    1.0033    2.6059 H   0  0  0  0  0  0  0  0  0  0  0  0
    2.1090    1.1336    3.5471 O   0  0  0  0  0  0  0  0  0  0  0  0
    1.6180    2.5925    1.7368 C   0  0  1  0  0  0  0  0  0  0  0  0
    1.8319    3.2957    2.5802 H   0  0  0  0  0  0  0  0  0  0  0  0
    2.7222    2.5717    0.8506 O   0  0  0  0  0  0  0  0  0  0  0  0
    0.4130    3.0926    0.8981 C   0  0  0  0  0  0  0  0  0  0  0  0
   -0.6867    3.5479    1.7575 N   0  0  0  0  0  0  0  0  0  0  0  0
   -0.5691    4.8473    2.3139 C   0  0  0  0  0  0  0  0  0  0  0  0
    0.4248    5.4800    2.0787 O   0  0  0  0  0  0  0  0  0  0  0  0
   -1.7161    5.3691    3.1715 C   0  0  0  0  0  0  0  0  0  0  0  0
   -1.6966    6.4850    3.6337 O   0  0  0  0  0  0  0  0  0  0  0  0
   -2.7734    4.5204    3.3969 N   0  0  0  0  0  0  0  0  0  0  0  0
   -3.5682    4.8154    3.9681 H   0  0  0  0  0  0  0  0  0  0  0  0
   -2.8027    3.2238    2.8650 C   0  0  0  0  0  0  0  0  0  0  0  0
   -1.7840    2.7452    2.0593 C   0  0  0  0  0  0  0  0  0  0  0  0
   -1.8545    1.4535    1.5569 N   0  0  0  0  0  0  0  0  0  0  0  0
   -1.1012    1.0742    0.9534 H   0  0  0  0  0  0  0  0  0  0  0  0
   -2.9158    0.5779    1.8741 C   0  0  0  0  0  0  0  0  0  0  0  0
   -2.8985   -0.5566    1.4513 O   0  0  0  0  0  0  0  0  0  0  0  0
   -3.9380    1.0837    2.6754 N   0  0  0  0  0  0  0  0  0  0  0  0
   -4.7220    0.4612    2.8948 H   0  0  0  0  0  0  0  0  0  0  0  0
   -3.9559    2.3973    3.2029 C   0  0  0  0  0  0  0  0  0  0  0  0
   -4.8957    2.7363    3.8821 O   0  0  0  0  0  0  0  0  0  0  0  0
   -0.3771   -0.8783    0.2244 H   0  0  0  0  0  0  0  0  0  0  0  0
    1.6747    0.9260   -0.5489 H   0  0  0  0  0  0  0  0  0  0  0  0
    1.7882   -0.8688   -0.5689 H   0  0  0  0  0  0  0  0  0  0  0  0
    3.6536    0.9060    1.0422 H   0  0  0  0  0  0  0  0  0  0  0  0
    3.0548    0.8791    3.4217 H   0  0  0  0  0  0  0  0  0  0  0  0
    3.1506    3.4512    0.8006 H   0  0  0  0  0  0  0  0  0  0  0  0
    0.0770    2.3280    0.1641 H   0  0  0  0  0  0  0  0  0  0  0  0
    0.7525    3.9557    0.2657 H   0  0  0  0  0  0  0  0  0  0  0  0
  1 30  1  0  0  0  0
  2  1  1  0  0  0  0
  2  3  1  0  0  0  0
  3  4  1  1  0  0  0
  3  6  1  0  0  0  0
  5  3  1  0  0  0  0
  6  7  1  1  0  0  0
  6  8  1  0  0  0  0
  9  6  1  0  0  0  0
  9 10  1  1  0  0  0
 11  9  1  0  0  0  0
 12  9  1  0  0  0  0
 12 13  1  0  0  0  0
 13 21  1  0  0  0  0
 13 14  1  0  0  0  0
 14 16  1  0  0  0  0
 15 14  2  0  0  0  0
 16 18  1  0  0  0  0
 16 17  2  0  0  0  0
 18 19  1  0  0  0  0
 20 28  1  0  0  0  0
 20 18  1  0  0  0  0
 21 20  2  0  0  0  0
 22 24  1  0  0  0  0
 22 21  1  0  0  0  0
 23 22  1  0  0  0  0
 24 26  1  0  0  0  0
 25 24  2  0  0  0  0
 26 27  1  0  0  0  0
 26 28  1  0  0  0  0
 28 29  2  0  0  0  0
 31  2  1  0  0  0  0
 32  2  1  0  0  0  0
 33  5  1  0  0  0  0
 34  8  1  0  0  0  0
 35 11  1  0  0  0  0
 36 12  1  0  0  0  0
 37 12  1  0  0  0  0
M  END
$$$$
