37
rmsd7.gzmat
O          0.00000        0.00000        0.00000
C          1.40880        0.00000        0.00000
C          1.91880        0.00000        1.45300
H          1.27980       -0.63620        2.10260
O          3.21070       -0.57200        1.34360
C          2.08440        1.41810        2.03930
H          2.72070        1.39370        2.95720
O          2.71730        2.25130        1.09280
C          0.73010        2.08320        2.37400
H         -0.03660        1.31520        2.63590
O          0.86920        2.78590        3.57910
C          0.26440        3.00980        1.23390
N         -1.03730        3.61650        1.54510
C         -1.03440        4.87750        2.19230
O          0.01870        5.39530        2.45370
C         -2.38130        5.53360        2.48230
O         -2.45210        6.65650        2.92160
N         -3.51200        4.79410        2.22840
H         -4.44100        5.17750        2.41280
C         -3.43810        3.48760        1.72430
C         -2.22420        2.90470        1.40260
N         -2.18990        1.59590        0.93900
H         -1.30050        1.16090        0.65150
C         -3.36180        0.82620        0.77470
O         -3.27900       -0.31840        0.38810
N         -4.57450        1.44060        1.08380
H         -5.42960        0.89000        0.95780
C         -4.69460        2.76940        1.55870
O         -5.79870        3.20290        1.78970
H         -0.38170       -0.89460        0.11700
H          1.66980        0.92820       -0.54670
H          1.79840       -0.87100       -0.55910
H          3.57110       -0.80500        2.22230
H          3.56470        1.84450        0.80060
H          1.21740        3.69700        3.43250
H          0.22790        2.47130        0.25920
H          1.01820        3.82900        1.07500
