
     RDKit          3D

 37 38  0  0  0  0  0  0  0  0999 V2000
   -0.1238    0.0283   -0.0103 O   0  0  0  0  0  0  0  0  0  0  0  0
    1.2937   -0.0479    0.0578 C   0  0  0  0  0  0  0  0  0  0  0  0
    1.8636    0.0173    1.4776 C   0  0  1  0  0  0  0  0  0  0  0  0
    1.5526   -0.8875    2.0279 H   0  0  0  0  0  0  0  0  0  0  0  0
    3.2795   -0.0350    1.4165 O   0  0  0  0  0  0  0  0  0  0  0  0
    1.4463    1.2189    2.3641 C   0  0  1  0  0  0  0  0  0  0  0  0
    0.3879    1.1108    2.6434 H   0  0  0  0  0  0  0  0  0  0  0  0
    2.1905    1.1386    3.5576 O   0  0  0  0  0  0  0  0  0  0  0  0
    1.6268    2.6097    1.7194 C   0  0  1  0  0  0  0  0  0  0  0  0
    1.7839    3.3013    2.5620 H   0  0  0  0  0  0  0  0  0  0  0  0
    2.7873    2.5827    0.8861 O   0  0  0  0  0  0  0  0  0  0  0  0
    0.4326    3.1474    0.9038 C   0  0  0  0  0  0  0  0  0  0  0  0
   -0.6847    3.5751    1.7530 N   0  0  0  0  0  0  0  0  0  0  0  0
   -0.5752    4.8625    2.3113 C   0  0  0  0  0  0  0  0  0  0  0  0
    0.3911    5.5540    2.0886 O   0  0  0  0  0  0  0  0  0  0  0  0
   -1.7219    5.3634    3.2078 C   0  0  0  0  0  0  0  0  0  0  0  0
   -1.6947    6.4775    3.6782 O   0  0  0  0  0  0  0  0  0  0  0  0
   -2.7242    4.4562    3.4186 N   0  0  0  0  0  0  0  0  0  0  0  0
   -3.5028    4.7200    4.0208 H   0  0  0  0  0  0  0  0  0  0  0  0
   -2.7601    3.1825    2.8711 C   0  0  0  0  0  0  0  0  0  0  0  0
   -1.7607    2.7527    2.0438 C   0  0  0  0  0  0  0  0  0  0  0  0
   -1.8066    1.4908    1.5082 N   0  0  0  0  0  0  0  0  0  0  0  0
   -1.0707    1.1177    0.8829 H   0  0  0  0  0  0  0  0  0  0  0  0
   -2.7667    0.5496    1.8323 C   0  0  0  0  0  0  0  0  0  0  0  0
   -2.7086   -0.5964    1.4226 O   0  0  0  0  0  0  0  0  0  0  0  0
   -3.7728    1.0284    2.6522 N   0  0  0  0  0  0  0  0  0  0  0  0
   -4.5033    0.3672    2.9028 H   0  0  0  0  0  0  0  0  0  0  0  0
   -3.8667    2.3077    3.2194 C   0  0  0  0  0  0  0  0  0  0  0  0
   -4.7888    2.6285    3.9475 O   0  0  0  0  0  0  0  0  0  0  0  0
   -0.5568   -0.7748    0.3248 H   0  0  0  0  0  0  0  0  0  0  0  0
    1.6790    0.7990   -0.5285 H   0  0  0  0  0  0  0  0  0  0  0  0
    1.6630   -0.9712   -0.4183 H   0  0  0  0  0  0  0  0  0  0  0  0
    3.5536    0.8142    1.0256 H   0  0  0  0  0  0  0  0  0  0  0  0
    3.0545    0.7750    3.2994 H   0  0  0  0  0  0  0  0  0  0  0  0
    3.1356    3.4794    0.7945 H   0  0  0  0  0  0  0  0  0  0  0  0
    0.0791    2.4337    0.1521 H   0  0  0  0  0  0  0  0  0  0  0  0
    0.7763    4.0448    0.3746 H   0  0  0  0  0  0  0  0  0  0  0  0
  1  2  1  0
  1 30  1  0
  2  3  1  0
  2 31  1  0
  2 32  1  0
  3  4  1  1
  3  5  1  0
  3  6  1  0
  5 33  1  0
  6  7  1  1
  6  8  1  0
  6  9  1  0
  8 34  1  0
  9 10  1  1
  9 11  1  0
  9 12  1  0
 11 35  1  0
 12 13  1  0
 12 36  1  0
 12 37  1  0
 13 14  1  0
 13 21  1  0
 14 15  2  0
 14 16  1  0
 16 17  2  0
 16 18  1  0
 18 19  1  0
 18 20  1  0
 20 21  2  0
 20 28  1  0
 21 22  1  0
 22 23  1  0
 22 24  1  0
 24 25  2  0
 24 26  1  0
 26 27  1  0
 26 28  1  0
 28 29  2  0
M  END

