37

O          0.00540       -0.48510        0.10030
C          1.36490       -0.13070        0.00970
C          1.95030        0.07250        1.40130
H          1.25820        0.72940        1.95240
O          1.93020       -1.15810        2.13770
C          3.34150        0.70740        1.52370
H          3.28630        1.74680        1.15730
O          3.68010        0.74290        2.91130
C          4.48340       -0.00500        0.79010
H          4.57430       -1.01590        1.24630
O          4.21330       -0.08310       -0.58180
C          5.81110        0.73800        1.06030
N          6.91170       -0.16250        1.39330
C          7.51380       -0.83070        0.32720
O          7.04820       -0.75770       -0.79370
C          8.80460       -1.61030        0.61560
O          9.46020       -2.08630       -0.28260
N          9.12220       -1.69750        1.94570
H          9.95740       -2.21750        2.21220
C          8.34200       -1.20130        2.98020
C          7.23570       -0.44790        2.71010
N          6.42340        0.01230        3.72290
H          5.49220        0.40290        3.51850
C          6.66920       -0.25430        5.06820
O          5.91780        0.09350        5.94980
N          7.84600       -0.95950        5.29610
H          8.05570       -1.15610        6.27150
C          8.72080       -1.50240        4.35070
O          9.70260       -2.15250        4.66090
H         -0.05580       -1.21540        0.73230
H          1.43230        0.80360       -0.56830
H          1.96480       -0.88110       -0.53910
H          2.41220       -1.82390        1.62410
H          3.20400       -0.00600        3.31400
H          5.03200       -0.38590       -1.01540
H          5.71570        1.47120        1.86780
H          6.08700        1.27970        0.14640
