
     RDKit          3D

 37 38  0  0  0  0  0  0  0  0999 V2000
   -0.0917    0.0855    0.0639 O   0  0  0  0  0  0  0  0  0  0  0  0
    1.3187   -0.0632    0.0300 C   0  0  0  0  0  0  0  0  0  0  0  0
    1.9631    0.0029    1.4156 C   0  0  1  0  0  0  0  0  0  0  0  0
    1.4027   -0.6700    2.0942 H   0  0  0  0  0  0  0  0  0  0  0  0
    3.2974   -0.4565    1.2169 O   0  0  0  0  0  0  0  0  0  0  0  0
    2.0462    1.4056    2.0519 C   0  0  1  0  0  0  0  0  0  0  0  0
    2.5161    1.2569    3.0468 H   0  0  0  0  0  0  0  0  0  0  0  0
    2.8406    2.2491    1.2474 O   0  0  0  0  0  0  0  0  0  0  0  0
    0.7105    2.1018    2.3719 C   0  0  1  0  0  0  0  0  0  0  0  0
   -0.0378    1.3129    2.5545 H   0  0  0  0  0  0  0  0  0  0  0  0
    0.7789    2.8378    3.5728 O   0  0  0  0  0  0  0  0  0  0  0  0
    0.2373    3.0043    1.2222 C   0  0  0  0  0  0  0  0  0  0  0  0
   -1.0524    3.6297    1.5341 N   0  0  0  0  0  0  0  0  0  0  0  0
   -1.0268    4.8830    2.1611 C   0  0  0  0  0  0  0  0  0  0  0  0
    0.0178    5.4345    2.4283 O   0  0  0  0  0  0  0  0  0  0  0  0
   -2.3761    5.5493    2.4858 C   0  0  0  0  0  0  0  0  0  0  0  0
   -2.4192    6.6711    2.9369 O   0  0  0  0  0  0  0  0  0  0  0  0
   -3.4755    4.7703    2.2429 N   0  0  0  0  0  0  0  0  0  0  0  0
   -4.3959    5.1436    2.4696 H   0  0  0  0  0  0  0  0  0  0  0  0
   -3.4298    3.4855    1.7217 C   0  0  0  0  0  0  0  0  0  0  0  0
   -2.2323    2.9292    1.3695 C   0  0  0  0  0  0  0  0  0  0  0  0
   -2.1825    1.6552    0.8604 N   0  0  0  0  0  0  0  0  0  0  0  0
   -1.2965    1.2124    0.5766 H   0  0  0  0  0  0  0  0  0  0  0  0
   -3.2887    0.8362    0.7234 C   0  0  0  0  0  0  0  0  0  0  0  0
   -3.1981   -0.3131    0.3329 O   0  0  0  0  0  0  0  0  0  0  0  0
   -4.4836    1.4438    1.0718 N   0  0  0  0  0  0  0  0  0  0  0  0
   -5.3204    0.8744    0.9771 H   0  0  0  0  0  0  0  0  0  0  0  0
   -4.6671    2.7412    1.5738 C   0  0  0  0  0  0  0  0  0  0  0  0
   -5.7687    3.1751    1.8615 O   0  0  0  0  0  0  0  0  0  0  0  0
   -0.5530   -0.7627    0.1338 H   0  0  0  0  0  0  0  0  0  0  0  0
    1.7256    0.7481   -0.5926 H   0  0  0  0  0  0  0  0  0  0  0  0
    1.6073   -1.0183   -0.4355 H   0  0  0  0  0  0  0  0  0  0  0  0
    3.6982   -0.6246    2.0804 H   0  0  0  0  0  0  0  0  0  0  0  0
    3.6153    1.7264    0.9876 H   0  0  0  0  0  0  0  0  0  0  0  0
    1.1203    3.7251    3.3783 H   0  0  0  0  0  0  0  0  0  0  0  0
    0.1604    2.4656    0.2717 H   0  0  0  0  0  0  0  0  0  0  0  0
    0.9629    3.8112    1.0792 H   0  0  0  0  0  0  0  0  0  0  0  0
  1  2  1  0
  1 30  1  0
  2  3  1  0
  2 31  1  0
  2 32  1  0
  3  4  1  1
  3  5  1  0
  3  6  1  0
  5 33  1  0
  6  7  1  1
  6  8  1  0
  6  9  1  0
  8 34  1  0
  9 10  1  1
  9 11  1  0
  9 12  1  0
 11 35  1  0
 12 13  1  0
 12 36  1  0
 12 37  1  0
 13 14  1  0
 13 21  1  0
 14 15  2  0
 14 16  1  0
 16 17  2  0
 16 18  1  0
 18 19  1  0
 18 20  1  0
 20 21  2  0
 20 28  1  0
 21 22  1  0
 22 23  1  0
 22 24  1  0
 24 25  2  0
 24 26  1  0
 26 27  1  0
 26 28  1  0
 28 29  2  0
M  END

