rmsd7.gzmat
 OpenBabel08211713423D

 37 38  0  0  1  0  0  0  0  0999 V2000
    0.0000    0.0000    0.0000 O   0  0  0  0  0  0  0  0  0  0  0  0
    1.4088    0.0000    0.0000 C   0  0  0  0  0  0  0  0  0  0  0  0
    1.9188    0.0000    1.4530 C   0  0  1  0  0  0  0  0  0  0  0  0
    1.2798   -0.6362    2.1026 H   0  0  0  0  0  0  0  0  0  0  0  0
    3.2107   -0.5720    1.3436 O   0  0  0  0  0  0  0  0  0  0  0  0
    2.0844    1.4181    2.0393 C   0  0  1  0  0  0  0  0  0  0  0  0
    2.7207    1.3937    2.9572 H   0  0  0  0  0  0  0  0  0  0  0  0
    2.7173    2.2513    1.0928 O   0  0  0  0  0  0  0  0  0  0  0  0
    0.7301    2.0832    2.3740 C   0  0  1  0  0  0  0  0  0  0  0  0
   -0.0366    1.3152    2.6359 H   0  0  0  0  0  0  0  0  0  0  0  0
    0.8692    2.7859    3.5791 O   0  0  0  0  0  0  0  0  0  0  0  0
    0.2644    3.0098    1.2339 C   0  0  0  0  0  0  0  0  0  0  0  0
   -1.0373    3.6165    1.5451 N   0  0  0  0  0  0  0  0  0  0  0  0
   -1.0344    4.8775    2.1923 C   0  0  0  0  0  0  0  0  0  0  0  0
    0.0187    5.3953    2.4537 O   0  0  0  0  0  0  0  0  0  0  0  0
   -2.3813    5.5336    2.4823 C   0  0  0  0  0  0  0  0  0  0  0  0
   -2.4521    6.6565    2.9216 O   0  0  0  0  0  0  0  0  0  0  0  0
   -3.5120    4.7941    2.2284 N   0  0  0  0  0  0  0  0  0  0  0  0
   -4.4410    5.1775    2.4128 H   0  0  0  0  0  0  0  0  0  0  0  0
   -3.4381    3.4876    1.7243 C   0  0  0  0  0  0  0  0  0  0  0  0
   -2.2242    2.9047    1.4026 C   0  0  0  0  0  0  0  0  0  0  0  0
   -2.1899    1.5959    0.9390 N   0  0  0  0  0  0  0  0  0  0  0  0
   -1.3005    1.1609    0.6515 H   0  0  0  0  0  0  0  0  0  0  0  0
   -3.3618    0.8262    0.7747 C   0  0  0  0  0  0  0  0  0  0  0  0
   -3.2790   -0.3184    0.3881 O   0  0  0  0  0  0  0  0  0  0  0  0
   -4.5745    1.4406    1.0838 N   0  0  0  0  0  0  0  0  0  0  0  0
   -5.4296    0.8900    0.9578 H   0  0  0  0  0  0  0  0  0  0  0  0
   -4.6946    2.7694    1.5587 C   0  0  0  0  0  0  0  0  0  0  0  0
   -5.7987    3.2029    1.7897 O   0  0  0  0  0  0  0  0  0  0  0  0
   -0.3817   -0.8946    0.1170 H   0  0  0  0  0  0  0  0  0  0  0  0
    1.6698    0.9282   -0.5467 H   0  0  0  0  0  0  0  0  0  0  0  0
    1.7984   -0.8710   -0.5591 H   0  0  0  0  0  0  0  0  0  0  0  0
    3.5711   -0.8050    2.2223 H   0  0  0  0  0  0  0  0  0  0  0  0
    3.5647    1.8445    0.8006 H   0  0  0  0  0  0  0  0  0  0  0  0
    1.2174    3.6970    3.4325 H   0  0  0  0  0  0  0  0  0  0  0  0
    0.2279    2.4713    0.2592 H   0  0  0  0  0  0  0  0  0  0  0  0
    1.0182    3.8290    1.0750 H   0  0  0  0  0  0  0  0  0  0  0  0
  1 30  1  0  0  0  0
  2  1  1  0  0  0  0
  2  3  1  0  0  0  0
  3  6  1  0  0  0  0
  3  4  1  1  0  0  0
  5  3  1  0  0  0  0
  5 33  1  0  0  0  0
  6  9  1  0  0  0  0
  6  7  1  1  0  0  0
  8  6  1  0  0  0  0
  9 10  1  1  0  0  0
  9 11  1  0  0  0  0
 12 13  1  0  0  0  0
 12  9  1  0  0  0  0
 13 14  1  0  0  0  0
 14 15  2  0  0  0  0
 14 16  1  0  0  0  0
 16 17  2  0  0  0  0
 18 19  1  0  0  0  0
 18 16  1  0  0  0  0
 20 18  1  0  0  0  0
 21 13  1  0  0  0  0
 21 20  2  0  0  0  0
 22 21  1  0  0  0  0
 23 22  1  0  0  0  0
 24 22  1  0  0  0  0
 24 26  1  0  0  0  0
 25 24  2  0  0  0  0
 26 28  1  0  0  0  0
 27 26  1  0  0  0  0
 28 20  1  0  0  0  0
 28 29  2  0  0  0  0
 31  2  1  0  0  0  0
 32  2  1  0  0  0  0
 34  8  1  0  0  0  0
 35 11  1  0  0  0  0
 36 12  1  0  0  0  0
 37 12  1  0  0  0  0
M  END
$$$$
