37

O          0.09800        1.08730       -0.34410
C          1.18690        0.18800       -0.13650
C          1.41630       -0.10520        1.34800
H          0.49790       -0.58850        1.73940
O          2.53490       -0.94760        1.44800
C          1.62150        1.20830        2.12910
H          2.39830        1.79960        1.60280
O          0.41950        1.94980        2.24580
C          2.12690        1.00750        3.55340
H          3.13560        0.57440        3.49790
O          2.23610        2.27480        4.19320
C          1.23470        0.07320        4.38880
N          1.98870       -0.70400        5.37750
C          2.35430       -1.99930        5.01700
O          2.19390       -2.41100        3.88220
C          2.90030       -2.92390        6.11620
O          3.13160       -4.08920        5.88850
N          3.05940       -2.32010        7.33470
H          3.41670       -2.87600        8.11090
C          2.85940       -0.96970        7.57620
C          2.34920       -0.16090        6.60270
N          2.18690        1.19020        6.80810
H          2.10130        1.81660        5.99090
C          2.51060        1.81290        8.01110
O          2.41930        3.00720        8.17600
N          2.95200        0.93620        8.99880
H          3.18650        1.36540        9.89020
C          3.20330       -0.43250        8.88320
O          3.64760       -1.10110        9.79920
H         -0.72380        0.57890       -0.33540
H          2.08710        0.67210       -0.54590
H          1.04580       -0.76190       -0.67870
H          2.42800       -1.53950        2.21600
H          0.07430        2.04670        1.33920
H          1.49000        2.80170        3.85420
H          0.72430       -0.66240        3.76160
H          0.46620        0.65950        4.90950
