rmsd50.gzmat
 OpenBabel08211713423D

 37 38  0  0  1  0  0  0  0  0999 V2000
    0.0000    0.0000    0.0000 O   0  0  0  0  0  0  0  0  0  0  0  0
    1.4092    0.0000    0.0000 C   0  0  0  0  0  0  0  0  0  0  0  0
    1.9203    0.0000    1.4458 C   0  0  1  0  0  0  0  0  0  0  0  0
    1.1745    0.4829    2.1289 H   0  0  0  0  0  0  0  0  0  0  0  0
    1.9963   -1.3103    1.9596 O   0  0  0  0  0  0  0  0  0  0  0  0
    3.2958    0.6720    1.5921 C   0  0  1  0  0  0  0  0  0  0  0  0
    3.2840    1.7111    1.1924 H   0  0  0  0  0  0  0  0  0  0  0  0
    3.6220    0.8302    2.9604 O   0  0  0  0  0  0  0  0  0  0  0  0
    4.4477   -0.1690    0.9947 C   0  0  1  0  0  0  0  0  0  0  0  0
    4.5657   -1.1292    1.5504 H   0  0  0  0  0  0  0  0  0  0  0  0
    4.0614   -0.4834   -0.3221 O   0  0  0  0  0  0  0  0  0  0  0  0
    5.7544    0.6525    0.9979 C   0  0  0  0  0  0  0  0  0  0  0  0
    6.9051   -0.1943    1.3349 N   0  0  0  0  0  0  0  0  0  0  0  0
    7.6114   -0.8141    0.2779 C   0  0  0  0  0  0  0  0  0  0  0  0
    7.1544   -0.7489   -0.8330 O   0  0  0  0  0  0  0  0  0  0  0  0
    8.9265   -1.5090    0.6171 C   0  0  0  0  0  0  0  0  0  0  0  0
    9.6592   -1.9234   -0.2483 O   0  0  0  0  0  0  0  0  0  0  0  0
    9.2426   -1.6361    1.9495 N   0  0  0  0  0  0  0  0  0  0  0  0
   10.1039   -2.1056    2.2395 H   0  0  0  0  0  0  0  0  0  0  0  0
    8.3875   -1.1701    2.9578 C   0  0  0  0  0  0  0  0  0  0  0  0
    7.2338   -0.4679    2.6625 C   0  0  0  0  0  0  0  0  0  0  0  0
    6.3852   -0.0526    3.6797 N   0  0  0  0  0  0  0  0  0  0  0  0
    5.4735    0.3848    3.4627 H   0  0  0  0  0  0  0  0  0  0  0  0
    6.6772   -0.3042    5.0410 C   0  0  0  0  0  0  0  0  0  0  0  0
    5.9045    0.0505    5.8991 O   0  0  0  0  0  0  0  0  0  0  0  0
    7.8688   -0.9774    5.3200 N   0  0  0  0  0  0  0  0  0  0  0  0
    8.0914   -1.1503    6.3061 H   0  0  0  0  0  0  0  0  0  0  0  0
    8.7685   -1.4511    4.3386 C   0  0  0  0  0  0  0  0  0  0  0  0
    9.7647   -2.0370    4.6913 O   0  0  0  0  0  0  0  0  0  0  0  0
   -0.3417   -0.8005    0.4518 H   0  0  0  0  0  0  0  0  0  0  0  0
    1.6652    0.9273   -0.5462 H   0  0  0  0  0  0  0  0  0  0  0  0
    1.7820   -0.8677   -0.5767 H   0  0  0  0  0  0  0  0  0  0  0  0
    2.5053   -1.8920    1.3529 H   0  0  0  0  0  0  0  0  0  0  0  0
    3.1457    0.1654    3.5156 H   0  0  0  0  0  0  0  0  0  0  0  0
    4.8518   -0.7406   -0.8590 H   0  0  0  0  0  0  0  0  0  0  0  0
    5.7003    1.5223    1.6959 H   0  0  0  0  0  0  0  0  0  0  0  0
    5.9164    1.1094   -0.0140 H   0  0  0  0  0  0  0  0  0  0  0  0
  1  2  1  0  0  0  0
  1 30  1  0  0  0  0
  2  3  1  0  0  0  0
  3  6  1  0  0  0  0
  3  5  1  0  0  0  0
  3  4  1  1  0  0  0
  6  7  1  6  0  0  0
  6  8  1  0  0  0  0
  8 34  1  0  0  0  0
  9 12  1  0  0  0  0
  9 10  1  1  0  0  0
  9  6  1  0  0  0  0
 11  9  1  0  0  0  0
 12 13  1  0  0  0  0
 12 36  1  0  0  0  0
 13 21  1  0  0  0  0
 14 16  1  0  0  0  0
 14 13  1  0  0  0  0
 15 14  2  0  0  0  0
 16 18  1  0  0  0  0
 17 16  2  0  0  0  0
 18 19  1  0  0  0  0
 18 20  1  0  0  0  0
 20 28  1  0  0  0  0
 21 20  2  0  0  0  0
 21 22  1  0  0  0  0
 22 24  1  0  0  0  0
 23 22  1  0  0  0  0
 24 26  1  0  0  0  0
 24 25  2  0  0  0  0
 26 27  1  0  0  0  0
 28 29  2  0  0  0  0
 28 26  1  0  0  0  0
 31  2  1  0  0  0  0
 32  2  1  0  0  0  0
 33  5  1  0  0  0  0
 35 11  1  0  0  0  0
 37 12  1  0  0  0  0
M  END
$$$$
