37
rmsd221.gzmat
O          0.00000        0.00000        0.00000
C          1.40790        0.00000        0.00000
C          1.92350        0.00000        1.45360
H          1.33420       -0.69900        2.08850
O          3.26150       -0.44830        1.32880
C          1.96930        1.40000        2.09390
H          2.52340        1.38230        3.06210
O          2.65520        2.30580        1.24740
C          0.55430        1.98180        2.28800
H         -0.13410        1.67870        1.46050
O          0.10330        1.36530        3.47610
C          0.58680        3.51420        2.47000
N         -0.47460        4.15580        1.68170
C         -1.71770        4.39770        2.31310
O         -1.89450        3.96860        3.42260
C         -2.75140        5.21920        1.54850
O         -3.76380        5.60890        2.08010
N         -2.48010        5.49950        0.23080
H         -3.14150        6.03220       -0.33780
C         -1.30900        5.04550       -0.39340
C         -0.32250        4.38040        0.31400
N          0.81690        3.92740       -0.33530
H          1.52030        3.35730        0.16710
C          1.00470        4.10840       -1.72360
O          1.99370        3.66580       -2.26120
N          0.01240        4.80770       -2.41360
H          0.14890        4.95230       -3.41890
C         -1.17350        5.30170       -1.82180
O         -1.97110        5.88540       -2.51750
H         -0.35620       -0.86780        0.28130
H          1.66460        0.92530       -0.55050
H          1.80260       -0.86940       -0.55820
H          3.62770       -0.72710        2.19180
H          3.41680        1.85450        0.81120
H         -0.73470        1.79130        3.77760
H          1.57740        3.95910        2.21060
H          0.44440        3.76820        3.55350
