rmsd173.gzmat
 OpenBabel08211713363D

 49 52  0  0  0  0  0  0  0  0999 V2000
    0.0000    0.0000    0.0000 C   0  0  0  0  0  0  0  0  0  0  0  0
    1.3266    0.0000    0.0000 N   0  0  0  0  0  0  0  0  0  0  0  0
    2.0091    0.0000    1.1874 C   0  0  0  0  0  0  0  0  0  0  0  0
    1.3930    0.0142    2.4200 C   0  0  0  0  0  0  0  0  0  0  0  0
   -0.0310    0.0308    2.4451 C   0  0  0  0  0  0  0  0  0  0  0  0
   -0.7407    0.0550    3.6736 C   0  0  0  0  0  0  0  0  0  0  0  0
   -2.1139    0.0634    3.6756 C   0  0  0  0  0  0  0  0  0  0  0  0
   -2.8334    0.0500    2.4560 C   0  0  0  0  0  0  0  0  0  0  0  0
   -2.1672    0.0319    1.2556 C   0  0  0  0  0  0  0  0  0  0  0  0
   -0.7501    0.0210    1.2245 C   0  0  0  0  0  0  0  0  0  0  0  0
    3.4332   -0.0257    1.0959 N   0  0  0  0  0  0  0  0  0  0  0  0
    4.1934   -0.0094   -0.0311 C   0  0  0  0  0  0  0  0  0  0  0  0
    3.6812    0.0555   -1.2663 N   0  0  0  0  0  0  0  0  0  0  0  0
    4.2661    0.0609   -2.0877 H   0  0  0  0  0  0  0  0  0  0  0  0
    2.6567    0.0646   -1.4295 H   0  0  0  0  0  0  0  0  0  0  0  0
    5.7008   -0.0695    0.1106 C   0  0  0  0  0  0  0  0  0  0  0  0
    6.1677   -0.0109    1.5341 C   0  0  0  0  0  0  0  0  0  0  0  0
    6.4407   -1.1905    2.2288 C   0  0  0  0  0  0  0  0  0  0  0  0
    6.8675   -1.1305    3.5536 C   0  0  0  0  0  0  0  0  0  0  0  0
    7.0240    0.1037    4.1827 C   0  0  0  0  0  0  0  0  0  0  0  0
    6.7579    1.2813    3.4850 C   0  0  0  0  0  0  0  0  0  0  0  0
    6.3316    1.2267    2.1604 C   0  0  0  0  0  0  0  0  0  0  0  0
   -0.6696   -0.0188   -1.3453 C   0  0  0  0  0  0  0  0  0  0  0  0
    0.3085   -0.2784   -2.4556 C   0  0  0  0  0  0  0  0  0  0  0  0
    0.6876   -1.5902   -2.7518 C   0  0  0  0  0  0  0  0  0  0  0  0
    1.6165   -1.8339   -3.7602 C   0  0  0  0  0  0  0  0  0  0  0  0
    2.1681   -0.7711   -4.4749 C   0  0  0  0  0  0  0  0  0  0  0  0
    1.7850    0.5364   -4.1831 C   0  0  0  0  0  0  0  0  0  0  0  0
    0.8563    0.7852   -3.1739 C   0  0  0  0  0  0  0  0  0  0  0  0
    1.9437    0.0128    3.3577 H   0  0  0  0  0  0  0  0  0  0  0  0
   -0.1802    0.0677    4.6095 H   0  0  0  0  0  0  0  0  0  0  0  0
   -2.6694    0.0815    4.6176 H   0  0  0  0  0  0  0  0  0  0  0  0
   -3.9256    0.0554    2.4862 H   0  0  0  0  0  0  0  0  0  0  0  0
   -2.7248    0.0274    0.3174 H   0  0  0  0  0  0  0  0  0  0  0  0
    3.9256   -0.0624    2.0057 H   0  0  0  0  0  0  0  0  0  0  0  0
    6.1727    0.7614   -0.4732 H   0  0  0  0  0  0  0  0  0  0  0  0
    6.0794   -1.0025   -0.3807 H   0  0  0  0  0  0  0  0  0  0  0  0
    6.3346   -2.1594    1.7408 H   0  0  0  0  0  0  0  0  0  0  0  0
    7.0877   -2.0516    4.0970 H   0  0  0  0  0  0  0  0  0  0  0  0
    7.3637    0.1489    5.2199 H   0  0  0  0  0  0  0  0  0  0  0  0
    6.8924    2.2481    3.9743 H   0  0  0  0  0  0  0  0  0  0  0  0
    6.1385    2.1515    1.6174 H   0  0  0  0  0  0  0  0  0  0  0  0
   -1.2006    0.9518   -1.5049 H   0  0  0  0  0  0  0  0  0  0  0  0
   -1.4754   -0.7930   -1.3596 H   0  0  0  0  0  0  0  0  0  0  0  0
    0.2548   -2.4232   -2.1985 H   0  0  0  0  0  0  0  0  0  0  0  0
    1.9009   -2.8590   -4.0007 H   0  0  0  0  0  0  0  0  0  0  0  0
    2.8776   -0.9659   -5.2786 H   0  0  0  0  0  0  0  0  0  0  0  0
    2.1935    1.3667   -4.7596 H   0  0  0  0  0  0  0  0  0  0  0  0
    0.5521    1.8086   -2.9574 H   0  0  0  0  0  0  0  0  0  0  0  0
  1 10  1  0  0  0  0
  2  1  2  0  0  0  0
  2  3  2  0  0  0  0
  3  4  1  0  0  0  0
  4  5  1  0  0  0  0
  4 30  1  0  0  0  0
  5  6  2  0  0  0  0
  6  7  1  0  0  0  0
  6 31  1  0  0  0  0
  7 32  1  0  0  0  0
  8 33  1  0  0  0  0
  8  7  2  0  0  0  0
  9  8  1  0  0  0  0
 10  9  2  0  0  0  0
 10  5  1  0  0  0  0
 11  3  1  0  0  0  0
 11 35  1  0  0  0  0
 12 16  1  0  0  0  0
 12 11  1  0  0  0  0
 13 12  2  0  0  0  0
 14 13  1  0  0  0  0
 15 13  1  0  0  0  0
 16 17  1  0  0  0  0
 17 22  2  0  0  0  0
 17 18  1  0  0  0  0
 18 19  2  0  0  0  0
 19 39  1  0  0  0  0
 19 20  1  0  0  0  0
 20 40  1  0  0  0  0
 21 41  1  0  0  0  0
 21 20  2  0  0  0  0
 22 21  1  0  0  0  0
 23  1  1  0  0  0  0
 24 23  1  0  0  0  0
 25 24  1  0  0  0  0
 25 45  1  0  0  0  0
 26 25  2  0  0  0  0
 27 28  2  0  0  0  0
 27 26  1  0  0  0  0
 28 29  1  0  0  0  0
 29 49  1  0  0  0  0
 29 24  2  0  0  0  0
 34  9  1  0  0  0  0
 36 16  1  0  0  0  0
 37 16  1  0  0  0  0
 38 18  1  0  0  0  0
 42 22  1  0  0  0  0
 43 23  1  0  0  0  0
 44 23  1  0  0  0  0
 46 26  1  0  0  0  0
 47 27  1  0  0  0  0
 48 28  1  0  0  0  0
M  RAD  1   4   2
M  END
$$$$
