49
rmsd197.gzmat
C          0.00000        0.00000        0.00000
N          1.32680        0.00000        0.00000
C          2.00800        0.00000        1.18840
C          1.39080       -0.00160        2.42040
C         -0.03280        0.00060        2.44450
C         -0.74240        0.00430        3.67310
C         -2.11550        0.01340        3.67470
C         -2.83490        0.01740        2.45530
C         -2.16850        0.00900        1.25490
C         -0.75120        0.00260        1.22400
N          3.43250        0.01050        1.10410
C          4.19970        0.03520       -0.01800
N          3.69350        0.01250       -1.25680
H          4.28090        0.04640       -2.07580
H          2.66990       -0.01700       -1.42420
C          5.70580        0.10050        0.13620
C          6.16620       -0.05910        1.55430
C          6.28660        1.06340        2.37690
C          6.70220        0.91290        3.69740
C          7.00540       -0.35450        4.19440
C          6.89560       -1.47250        3.36890
C          6.47600       -1.32740        2.04820
C         -0.67480        0.00400       -1.34290
C          0.31380       -0.10120       -2.46820
C          0.73310       -1.35880       -2.90750
C          1.67970       -1.45850       -3.92410
C          2.21080       -0.30620       -4.50130
C          1.78410        0.94830       -4.06980
C          0.83580        1.05340       -3.05430
H          1.94020       -0.00180        3.35870
H         -0.18190        0.00120        4.60890
H         -2.67060        0.01710        4.61720
H         -3.92730        0.02700        2.48710
H         -2.72530        0.00700        0.31640
H          3.92000       -0.00390        2.01790
H          6.07700        1.07390       -0.27750
H          6.18880       -0.67680       -0.50880
H          6.07070        2.05910        1.99050
H          6.80030        1.78930        4.34110
H          7.33770       -0.46990        5.22860
H          7.14620       -2.46300        3.75460
H          6.40200       -2.20580        1.40720
H         -1.28800        0.93270       -1.44660
H         -1.41120       -0.83480       -1.39760
H          0.31820       -2.26170       -2.46020
H          1.99280       -2.44090       -4.27850
H          2.93870       -0.38780       -5.30800
H          2.17680        1.85030       -4.53930
H          0.49850        2.03580       -2.72610
