rmsd197.gzmat
 OpenBabel08211713363D

 49 52  0  0  0  0  0  0  0  0999 V2000
    0.0000    0.0000    0.0000 C   0  0  0  0  0  0  0  0  0  0  0  0
    1.3268    0.0000    0.0000 N   0  0  0  0  0  0  0  0  0  0  0  0
    2.0080    0.0000    1.1884 C   0  0  0  0  0  0  0  0  0  0  0  0
    1.3908   -0.0016    2.4204 C   0  0  0  0  0  0  0  0  0  0  0  0
   -0.0328    0.0006    2.4445 C   0  0  0  0  0  0  0  0  0  0  0  0
   -0.7424    0.0043    3.6731 C   0  0  0  0  0  0  0  0  0  0  0  0
   -2.1155    0.0134    3.6747 C   0  0  0  0  0  0  0  0  0  0  0  0
   -2.8349    0.0174    2.4553 C   0  0  0  0  0  0  0  0  0  0  0  0
   -2.1685    0.0090    1.2549 C   0  0  0  0  0  0  0  0  0  0  0  0
   -0.7512    0.0026    1.2240 C   0  0  0  0  0  0  0  0  0  0  0  0
    3.4325    0.0105    1.1041 N   0  0  0  0  0  0  0  0  0  0  0  0
    4.1997    0.0352   -0.0180 C   0  0  0  0  0  0  0  0  0  0  0  0
    3.6935    0.0125   -1.2568 N   0  0  0  0  0  0  0  0  0  0  0  0
    4.2809    0.0464   -2.0758 H   0  0  0  0  0  0  0  0  0  0  0  0
    2.6699   -0.0170   -1.4242 H   0  0  0  0  0  0  0  0  0  0  0  0
    5.7058    0.1005    0.1362 C   0  0  0  0  0  0  0  0  0  0  0  0
    6.1662   -0.0591    1.5543 C   0  0  0  0  0  0  0  0  0  0  0  0
    6.2866    1.0634    2.3769 C   0  0  0  0  0  0  0  0  0  0  0  0
    6.7022    0.9129    3.6974 C   0  0  0  0  0  0  0  0  0  0  0  0
    7.0054   -0.3545    4.1944 C   0  0  0  0  0  0  0  0  0  0  0  0
    6.8956   -1.4725    3.3689 C   0  0  0  0  0  0  0  0  0  0  0  0
    6.4760   -1.3274    2.0482 C   0  0  0  0  0  0  0  0  0  0  0  0
   -0.6748    0.0040   -1.3429 C   0  0  0  0  0  0  0  0  0  0  0  0
    0.3138   -0.1012   -2.4682 C   0  0  0  0  0  0  0  0  0  0  0  0
    0.7331   -1.3588   -2.9075 C   0  0  0  0  0  0  0  0  0  0  0  0
    1.6797   -1.4585   -3.9241 C   0  0  0  0  0  0  0  0  0  0  0  0
    2.2108   -0.3062   -4.5013 C   0  0  0  0  0  0  0  0  0  0  0  0
    1.7841    0.9483   -4.0698 C   0  0  0  0  0  0  0  0  0  0  0  0
    0.8358    1.0534   -3.0543 C   0  0  0  0  0  0  0  0  0  0  0  0
    1.9402   -0.0018    3.3587 H   0  0  0  0  0  0  0  0  0  0  0  0
   -0.1819    0.0012    4.6089 H   0  0  0  0  0  0  0  0  0  0  0  0
   -2.6706    0.0171    4.6172 H   0  0  0  0  0  0  0  0  0  0  0  0
   -3.9273    0.0270    2.4871 H   0  0  0  0  0  0  0  0  0  0  0  0
   -2.7253    0.0070    0.3164 H   0  0  0  0  0  0  0  0  0  0  0  0
    3.9200   -0.0039    2.0179 H   0  0  0  0  0  0  0  0  0  0  0  0
    6.0770    1.0739   -0.2775 H   0  0  0  0  0  0  0  0  0  0  0  0
    6.1888   -0.6768   -0.5088 H   0  0  0  0  0  0  0  0  0  0  0  0
    6.0707    2.0591    1.9905 H   0  0  0  0  0  0  0  0  0  0  0  0
    6.8003    1.7893    4.3411 H   0  0  0  0  0  0  0  0  0  0  0  0
    7.3377   -0.4699    5.2286 H   0  0  0  0  0  0  0  0  0  0  0  0
    7.1462   -2.4630    3.7546 H   0  0  0  0  0  0  0  0  0  0  0  0
    6.4020   -2.2058    1.4072 H   0  0  0  0  0  0  0  0  0  0  0  0
   -1.2880    0.9327   -1.4466 H   0  0  0  0  0  0  0  0  0  0  0  0
   -1.4112   -0.8348   -1.3976 H   0  0  0  0  0  0  0  0  0  0  0  0
    0.3182   -2.2617   -2.4602 H   0  0  0  0  0  0  0  0  0  0  0  0
    1.9928   -2.4409   -4.2785 H   0  0  0  0  0  0  0  0  0  0  0  0
    2.9387   -0.3878   -5.3080 H   0  0  0  0  0  0  0  0  0  0  0  0
    2.1768    1.8503   -4.5393 H   0  0  0  0  0  0  0  0  0  0  0  0
    0.4985    2.0358   -2.7261 H   0  0  0  0  0  0  0  0  0  0  0  0
  1 10  1  0  0  0  0
  2  1  2  0  0  0  0
  2  3  2  0  0  0  0
  3  4  1  0  0  0  0
  4  5  1  0  0  0  0
  4 30  1  0  0  0  0
  5  6  2  0  0  0  0
  6  7  1  0  0  0  0
  6 31  1  0  0  0  0
  7 32  1  0  0  0  0
  8 33  1  0  0  0  0
  8  7  2  0  0  0  0
  9  8  1  0  0  0  0
 10  9  2  0  0  0  0
 10  5  1  0  0  0  0
 11  3  1  0  0  0  0
 11 35  1  0  0  0  0
 12 16  1  0  0  0  0
 12 11  1  0  0  0  0
 13 12  2  0  0  0  0
 14 13  1  0  0  0  0
 15 13  1  0  0  0  0
 16 17  1  0  0  0  0
 17 22  2  0  0  0  0
 17 18  1  0  0  0  0
 18 19  2  0  0  0  0
 19 20  1  0  0  0  0
 19 39  1  0  0  0  0
 20 40  1  0  0  0  0
 21 41  1  0  0  0  0
 21 20  2  0  0  0  0
 22 21  1  0  0  0  0
 23  1  1  0  0  0  0
 24 23  1  0  0  0  0
 25 24  1  0  0  0  0
 25 45  1  0  0  0  0
 26 25  2  0  0  0  0
 27 28  2  0  0  0  0
 27 26  1  0  0  0  0
 28 29  1  0  0  0  0
 29 49  1  0  0  0  0
 29 24  2  0  0  0  0
 34  9  1  0  0  0  0
 36 16  1  0  0  0  0
 37 16  1  0  0  0  0
 38 18  1  0  0  0  0
 42 22  1  0  0  0  0
 43 23  1  0  0  0  0
 44 23  1  0  0  0  0
 46 26  1  0  0  0  0
 47 27  1  0  0  0  0
 48 28  1  0  0  0  0
M  RAD  1   4   2
M  END
$$$$
