49
rmsd218.gzmat
C          0.00000        0.00000        0.00000
N          1.32660        0.00000        0.00000
C          2.00690        0.00000        1.18930
C          1.38980       -0.01080        2.42100
C         -0.03400       -0.00560        2.44500
C         -0.74390       -0.00200        3.67340
C         -2.11690        0.01670        3.67520
C         -2.83590        0.02840        2.45550
C         -2.16940        0.01990        1.25510
C         -0.75170        0.00370        1.22420
N          3.43080        0.01650        1.10150
C          4.19420        0.07780       -0.02340
N          3.69200        0.04330       -1.26220
H          4.28150        0.07770       -2.08010
H          2.66900       -0.00070       -1.43120
C          5.69600        0.14770        0.15920
C          6.07300        0.86580        1.42170
C          6.59310        0.15240        2.50230
C          6.93120        0.82350        3.67590
C          6.75000        2.20220        3.77020
C          6.23560        2.91420        2.68680
C          5.90060        2.24900        1.51030
C         -0.67620       -0.00260       -1.34160
C          0.30810        0.03190       -2.47520
C          0.79830       -1.16100       -3.01070
C          1.72510       -1.12570       -4.05010
C          2.16560        0.09730       -4.55340
C          1.67440        1.28710       -4.01940
C          0.74690        1.25690       -2.98050
H          1.93900       -0.02040        3.35950
H         -0.18320       -0.01210        4.60900
H         -2.67270        0.02320        4.61720
H         -3.92830        0.04440        2.48730
H         -2.72630        0.02600        0.31650
H          3.92100        0.06720        2.01130
H          6.18570        0.64990       -0.71140
H          6.11560       -0.89070        0.14720
H          6.75280       -0.92350        2.43420
H          7.34530        0.26830        4.51990
H          7.01840        2.72700        4.68980
H          6.10240        3.99550        2.75900
H          5.51200        2.81340        0.66380
H         -1.37380        0.86790       -1.41070
H         -1.33220       -0.90410       -1.42430
H          0.44900       -2.11840       -2.62470
H          2.08960       -2.05740       -4.48390
H          2.87120        0.12360       -5.38320
H          2.00060        2.24400       -4.42760
H          0.35880        2.18890       -2.57220
