49
rmsd214.gzmat
C          0.00000        0.00000        0.00000
N          1.32650        0.00000        0.00000
C          2.00900        0.00000        1.18790
C          1.39290       -0.00040        2.42030
C         -0.03090       -0.01870        2.44440
C         -0.74110       -0.02840        3.67280
C         -2.11410       -0.05310        3.67450
C         -2.83320       -0.07370        2.45500
C         -2.16700       -0.05900        1.25460
C         -0.74980       -0.02600        1.22420
N          3.43270        0.00270        1.09230
C          4.18750        0.00390       -0.04150
N          3.67790       -0.04370       -1.27530
H          4.26360       -0.06140       -2.09680
H          2.65250       -0.04070       -1.43930
C          5.68920        0.02330        0.14650
C          6.08460        1.11010        1.10310
C          6.48490        0.78920        2.40050
C          6.85470        1.80470        3.28010
C          6.82470        3.13520        2.86510
C          6.42380        3.45270        1.56810
C          6.05560        2.44140        0.68400
C         -0.67370        0.03660       -1.34320
C          0.31020        0.25910       -2.45590
C          0.84140       -0.82770       -3.15220
C          1.78670       -0.61520       -4.15390
C          2.20410        0.67850       -4.45940
C          1.66620        1.76430       -3.76990
C          0.71840        1.55750       -2.77090
H          1.94220        0.01140        3.35870
H         -0.18020       -0.01620        4.60820
H         -2.67040       -0.05710        4.61630
H         -3.92510       -0.10130        2.48590
H         -2.72390       -0.07500        0.31640
H          3.93170        0.10510        1.99070
H          6.22710        0.16130       -0.82230
H          6.03710       -0.97910        0.50280
H          6.53660       -0.24860        2.72700
H          7.18070        1.55610        4.29220
H          7.12430        3.92930        3.55250
H          6.40600        4.49420        1.24210
H          5.75440        2.69640       -0.33060
H         -1.45120        0.83940       -1.35390
H         -1.24030       -0.91370       -1.49910
H          0.51220       -1.84060       -2.92270
H          2.18380       -1.46300       -4.71260
H          2.92950        0.84500       -5.25510
H          1.97620        2.77860       -4.02240
H          0.29450        2.40890       -2.23940
