49
rmsd160.gzmat
C          0.00000        0.00000        0.00000
N          1.32640        0.00000        0.00000
C          2.00960        0.00000        1.18720
C          1.39360        0.01020        2.41960
C         -0.03060        0.02460        2.44390
C         -0.74130        0.04640        3.67170
C         -2.11460        0.05840        3.67260
C         -2.83400        0.05080        2.45300
C         -2.16710        0.03230        1.25310
C         -0.75000        0.01800        1.22380
N          3.43330       -0.01340        1.08870
C          4.18520       -0.02200       -0.04700
N          3.67380        0.06310       -1.27850
H          4.25740        0.08070       -2.10140
H          2.64870        0.08530       -1.44040
C          5.68790       -0.08840        0.12930
C          6.05680       -1.10380        1.17120
C          5.99000       -2.46400        0.86440
C          6.31250       -3.40850        1.83590
C          6.70420       -2.99600        3.10900
C          6.78150       -1.63660        3.40910
C          6.45980       -0.68770        2.44100
C         -0.67120       -0.02040       -1.34430
C          0.32090       -0.13560       -2.46600
C          0.82240       -1.38990       -2.82250
C          1.76490       -1.49700       -3.84200
C          2.20590       -0.35490       -4.50850
C          1.70150        0.89540       -4.15620
C          0.76130        1.00810       -3.13380
H          1.94340        0.00920        3.35780
H         -0.18120        0.05510        4.60780
H         -2.67080        0.07500        4.61440
H         -3.92630        0.06170        2.48330
H         -2.72330        0.03060        0.31410
H          3.93270       -0.12530        1.98660
H          6.07920        0.92630        0.39420
H          6.20420       -0.33130       -0.83090
H          5.69370       -2.79380       -0.13040
H          6.26420       -4.47310        1.59780
H          6.95860       -3.73860        3.86870
H          7.10350       -1.31490        4.40140
H          6.54680        0.37190        2.67830
H         -1.29310        0.90050       -1.46320
H         -1.39910       -0.86750       -1.38940
H          0.47370       -2.28470       -2.30790
H          2.14260       -2.47820       -4.13100
H          2.92370       -0.44320       -5.32350
H          2.02630        1.78640       -4.69440
H          0.36520        1.98740       -2.86660
