49
rmsd145.gzmat
C          0.00000        0.00000        0.00000
N          1.32630        0.00000        0.00000
C          2.00970        0.00000        1.18750
C          1.39300       -0.00420        2.41960
C         -0.03150       -0.01360        2.44390
C         -0.74300       -0.02570        3.67150
C         -2.11630       -0.03320        3.67240
C         -2.83550       -0.02710        2.45290
C         -2.16790       -0.01810        1.25330
C         -0.75050       -0.01070        1.22370
N          3.43370       -0.00040        1.08770
C          4.18340       -0.01160       -0.05020
N          3.67020       -0.06080       -1.28170
H          4.25390       -0.08810       -2.10460
H          2.64470       -0.05730       -1.44420
C          5.68560        0.00430        0.13170
C          6.09490        1.19470        0.94920
C          6.56930        1.01980        2.24910
C          6.95850        2.12920        2.99740
C          6.87050        3.40800        2.44990
C          6.39740        3.57910        1.14940
C          6.01080        2.47370        0.39570
C         -0.67430        0.01550       -1.34300
C          0.31570        0.12750       -2.46630
C          0.71070        1.38600       -2.92440
C          1.66170        1.48930       -3.93690
C          2.21810        0.33910       -4.49400
C          1.81690       -0.91680       -4.04240
C          0.86540       -1.02530       -3.03050
H          1.94170       -0.00210        3.35820
H         -0.18380       -0.02850        4.60800
H         -2.67230       -0.04400        4.61440
H         -3.92800       -0.02910        2.48290
H         -2.72420       -0.01720        0.31460
H          3.93630        0.11440        1.98070
H          6.22430        0.01720       -0.84660
H          6.02340       -0.95260        0.60280
H          6.66210        0.02370        2.67890
H          7.34320        1.99470        4.01030
H          7.17960        4.27640        3.03600
H          6.33740        4.58020        0.71810
H          5.65360        2.61450       -0.62280
H         -1.40420        0.86040       -1.38540
H         -1.29450       -0.90690       -1.45910
H          0.27390        2.28770       -2.49640
H          1.95890        2.47200       -4.30430
H          2.94520        0.42230       -5.30120
H          2.23110       -1.81770       -4.49530
H          0.54720       -2.00920       -2.68720
