49
rmsd64.gzmat
C          0.00000        0.00000        0.00000
N          1.32650        0.00000        0.00000
C          2.00740        0.00000        1.18880
C          1.39060       -0.00420        2.42090
C         -0.03350       -0.00500        2.44480
C         -0.74420       -0.00100        3.67280
C         -2.11750        0.00020        3.67400
C         -2.83610       -0.00390        2.45410
C         -2.16880       -0.00610        1.25410
C         -0.75160       -0.00500        1.22420
N          3.43070        0.01830        1.09630
C          4.18990        0.04200       -0.03400
N          3.68400        0.06420       -1.27040
H          4.27210        0.11880       -2.08870
H          2.65940        0.04990       -1.43750
C          5.69190        0.06880        0.15760
C          6.10880       -0.93380        1.19400
C          6.17570       -2.28670        0.85820
C          6.53900       -3.22180        1.82500
C          6.83640       -2.80630        3.12210
C          6.77970       -1.45250        3.45150
C          6.41800       -0.51320        2.48820
C         -0.67410        0.00630       -1.34270
C          0.31060        0.12950       -2.46970
C          0.85070       -1.01680       -3.05610
C          1.78310       -0.89720       -4.08430
C          2.17820        0.36380       -4.52750
C          1.63510        1.50760       -3.94460
C          0.70290        1.39280       -2.91590
H          1.93970       -0.00450        3.35980
H         -0.18420        0.00360        4.60890
H         -2.67380        0.00530        4.61610
H         -3.92840       -0.00410        2.48420
H         -2.72560       -0.00840        0.31530
H          3.92820       -0.07160        1.99820
H          6.01520        1.10260        0.44020
H          6.23420       -0.12750       -0.79830
H          5.95160       -2.61810       -0.15480
H          6.59390       -4.28090        1.56420
H          7.12070       -3.54090        3.87900
H          7.02690       -1.12780        4.46410
H          6.40130        0.54440        2.74860
H         -1.41590        0.84110       -1.38680
H         -1.28250       -0.92470       -1.45540
H          0.53730       -2.00420       -2.71880
H          2.18810       -1.79280       -4.55630
H          2.88950        0.45550       -5.34780
H          1.92700        2.49440       -4.30520
H          0.27610        2.28950       -2.46750
