rmsd218.gzmat
 OpenBabel08211713363D

 49 52  0  0  0  0  0  0  0  0999 V2000
    0.0000    0.0000    0.0000 C   0  0  0  0  0  0  0  0  0  0  0  0
    1.3266    0.0000    0.0000 N   0  0  0  0  0  0  0  0  0  0  0  0
    2.0069    0.0000    1.1893 C   0  0  0  0  0  0  0  0  0  0  0  0
    1.3898   -0.0108    2.4210 C   0  0  0  0  0  0  0  0  0  0  0  0
   -0.0340   -0.0056    2.4450 C   0  0  0  0  0  0  0  0  0  0  0  0
   -0.7439   -0.0020    3.6734 C   0  0  0  0  0  0  0  0  0  0  0  0
   -2.1169    0.0167    3.6752 C   0  0  0  0  0  0  0  0  0  0  0  0
   -2.8359    0.0284    2.4555 C   0  0  0  0  0  0  0  0  0  0  0  0
   -2.1694    0.0199    1.2551 C   0  0  0  0  0  0  0  0  0  0  0  0
   -0.7517    0.0037    1.2242 C   0  0  0  0  0  0  0  0  0  0  0  0
    3.4308    0.0165    1.1015 N   0  0  0  0  0  0  0  0  0  0  0  0
    4.1942    0.0778   -0.0234 C   0  0  0  0  0  0  0  0  0  0  0  0
    3.6920    0.0433   -1.2622 N   0  0  0  0  0  0  0  0  0  0  0  0
    4.2815    0.0777   -2.0801 H   0  0  0  0  0  0  0  0  0  0  0  0
    2.6690   -0.0007   -1.4312 H   0  0  0  0  0  0  0  0  0  0  0  0
    5.6960    0.1477    0.1592 C   0  0  0  0  0  0  0  0  0  0  0  0
    6.0730    0.8658    1.4217 C   0  0  0  0  0  0  0  0  0  0  0  0
    6.5931    0.1524    2.5023 C   0  0  0  0  0  0  0  0  0  0  0  0
    6.9312    0.8235    3.6759 C   0  0  0  0  0  0  0  0  0  0  0  0
    6.7500    2.2022    3.7702 C   0  0  0  0  0  0  0  0  0  0  0  0
    6.2356    2.9142    2.6868 C   0  0  0  0  0  0  0  0  0  0  0  0
    5.9006    2.2490    1.5103 C   0  0  0  0  0  0  0  0  0  0  0  0
   -0.6762   -0.0026   -1.3416 C   0  0  0  0  0  0  0  0  0  0  0  0
    0.3081    0.0319   -2.4752 C   0  0  0  0  0  0  0  0  0  0  0  0
    0.7983   -1.1610   -3.0107 C   0  0  0  0  0  0  0  0  0  0  0  0
    1.7251   -1.1257   -4.0501 C   0  0  0  0  0  0  0  0  0  0  0  0
    2.1656    0.0973   -4.5534 C   0  0  0  0  0  0  0  0  0  0  0  0
    1.6744    1.2871   -4.0194 C   0  0  0  0  0  0  0  0  0  0  0  0
    0.7469    1.2569   -2.9805 C   0  0  0  0  0  0  0  0  0  0  0  0
    1.9390   -0.0204    3.3595 H   0  0  0  0  0  0  0  0  0  0  0  0
   -0.1832   -0.0121    4.6090 H   0  0  0  0  0  0  0  0  0  0  0  0
   -2.6727    0.0232    4.6172 H   0  0  0  0  0  0  0  0  0  0  0  0
   -3.9283    0.0444    2.4873 H   0  0  0  0  0  0  0  0  0  0  0  0
   -2.7263    0.0260    0.3165 H   0  0  0  0  0  0  0  0  0  0  0  0
    3.9210    0.0672    2.0113 H   0  0  0  0  0  0  0  0  0  0  0  0
    6.1857    0.6499   -0.7114 H   0  0  0  0  0  0  0  0  0  0  0  0
    6.1156   -0.8907    0.1472 H   0  0  0  0  0  0  0  0  0  0  0  0
    6.7528   -0.9235    2.4342 H   0  0  0  0  0  0  0  0  0  0  0  0
    7.3453    0.2683    4.5199 H   0  0  0  0  0  0  0  0  0  0  0  0
    7.0184    2.7270    4.6898 H   0  0  0  0  0  0  0  0  0  0  0  0
    6.1024    3.9955    2.7590 H   0  0  0  0  0  0  0  0  0  0  0  0
    5.5120    2.8134    0.6638 H   0  0  0  0  0  0  0  0  0  0  0  0
   -1.3738    0.8679   -1.4107 H   0  0  0  0  0  0  0  0  0  0  0  0
   -1.3322   -0.9041   -1.4243 H   0  0  0  0  0  0  0  0  0  0  0  0
    0.4490   -2.1184   -2.6247 H   0  0  0  0  0  0  0  0  0  0  0  0
    2.0896   -2.0574   -4.4839 H   0  0  0  0  0  0  0  0  0  0  0  0
    2.8712    0.1236   -5.3832 H   0  0  0  0  0  0  0  0  0  0  0  0
    2.0006    2.2440   -4.4276 H   0  0  0  0  0  0  0  0  0  0  0  0
    0.3588    2.1889   -2.5722 H   0  0  0  0  0  0  0  0  0  0  0  0
  1  2  2  0  0  0  0
  1 10  1  0  0  0  0
  2  3  2  0  0  0  0
  3  4  1  0  0  0  0
  4  5  1  0  0  0  0
  4 30  1  0  0  0  0
  5  6  2  0  0  0  0
  6  7  1  0  0  0  0
  6 31  1  0  0  0  0
  7 32  1  0  0  0  0
  8 33  1  0  0  0  0
  8  7  2  0  0  0  0
  9  8  1  0  0  0  0
 10  9  2  0  0  0  0
 10  5  1  0  0  0  0
 11  3  1  0  0  0  0
 11 35  1  0  0  0  0
 12 16  1  0  0  0  0
 12 11  1  0  0  0  0
 13 12  2  0  0  0  0
 14 13  1  0  0  0  0
 15 13  1  0  0  0  0
 16 17  1  0  0  0  0
 17 22  2  0  0  0  0
 17 18  1  0  0  0  0
 18 19  2  0  0  0  0
 19 20  1  0  0  0  0
 19 39  1  0  0  0  0
 20 40  1  0  0  0  0
 21 41  1  0  0  0  0
 21 20  2  0  0  0  0
 22 21  1  0  0  0  0
 23  1  1  0  0  0  0
 24 23  1  0  0  0  0
 25 45  1  0  0  0  0
 25 24  2  0  0  0  0
 26 25  1  0  0  0  0
 27 26  2  0  0  0  0
 27 28  1  0  0  0  0
 28 29  2  0  0  0  0
 29 49  1  0  0  0  0
 29 24  1  0  0  0  0
 34  9  1  0  0  0  0
 36 16  1  0  0  0  0
 37 16  1  0  0  0  0
 38 18  1  0  0  0  0
 42 22  1  0  0  0  0
 43 23  1  0  0  0  0
 44 23  1  0  0  0  0
 46 26  1  0  0  0  0
 47 27  1  0  0  0  0
 48 28  1  0  0  0  0
M  RAD  1   4   2
M  END
$$$$
