49
rmsd16.gzmat
C          0.00000        0.00000        0.00000
N          1.32650        0.00000        0.00000
C          2.00800        0.00000        1.18850
C          1.39180       -0.00380        2.42070
C         -0.03200        0.00040        2.44480
C         -0.74160       -0.00120        3.67340
C         -2.11470        0.00860        3.67540
C         -2.83410        0.02280        2.45600
C         -2.16790        0.02150        1.25550
C         -0.75070        0.00760        1.22440
N          3.43210        0.00090        1.09960
C          4.19440       -0.03320       -0.02610
N          3.68490       -0.09380       -1.26160
H          4.27130       -0.14820       -2.08020
H          2.66020       -0.09670       -1.42580
C          5.70050       -0.03830        0.13490
C          6.14440        0.52060        1.45380
C          6.45090       -0.34210        2.50810
C          6.86380        0.17950        3.73180
C          6.96720        1.55920        3.90430
C          6.66210        2.41880        2.84990
C          6.25430        1.90160        1.62210
C         -0.67490       -0.00120       -1.34250
C          0.29790       -0.22170       -2.46510
C          0.64450       -1.52210       -2.83880
C          1.56740       -1.72850       -3.86150
C          2.14500       -0.63960       -4.51240
C          1.79290        0.65760       -4.14430
C          0.87070        0.86920       -3.12130
H          1.94190       -0.01060        3.35870
H         -0.18050       -0.01020        4.60880
H         -2.67050        0.00610        4.61740
H         -3.92640        0.03590        2.48800
H         -2.72550        0.03340        0.31750
H          3.92350        0.07900        2.00720
H          6.18630        0.53370       -0.69450
H          6.07850       -1.08530        0.00560
H          6.38680       -1.42210        2.37810
H          7.11550       -0.49380        4.55360
H          7.29510        1.96630        4.86340
H          6.74980        3.49880        2.98380
H          6.03180        2.57910        0.79860
H         -1.21920        0.96600       -1.47930
H         -1.47150       -0.78410       -1.36700
H          0.18980       -2.37590       -2.33790
H          1.82580       -2.74400       -4.16360
H          2.85080       -0.80390       -5.32630
H          2.22190        1.50950       -4.67210
H          0.59060        1.88490       -2.84430
