rmsd14.gzmat
 OpenBabel08211713373D

 39 40  0  0  1  0  0  0  0  0999 V2000
    0.0000    0.0000    0.0000 N   0  0  0  0  0  0  0  0  0  0  0  0
    1.3758    0.0000    0.0000 C   0  0  0  0  0  0  0  0  0  0  0  0
    2.1653    0.0000    1.1151 N   0  0  0  0  0  0  0  0  0  0  0  0
    1.5233   -0.0292    2.3193 C   0  0  0  0  0  0  0  0  0  0  0  0
    0.1008   -0.0442    2.4101 C   0  0  1  0  0  0  0  0  0  0  0  0
   -0.5991   -0.0231    1.2029 C   0  0  0  0  0  0  0  0  0  0  0  0
   -0.6101   -0.0945    3.7169 C   0  0  0  0  0  0  0  0  0  0  0  0
   -0.3426    1.1344    4.5421 C   0  0  0  0  0  0  0  0  0  0  0  0
    0.1381    1.0022    5.8377 C   0  0  0  0  0  0  0  0  0  0  0  0
    0.3926    2.1531    6.6070 C   0  0  0  0  0  0  0  0  0  0  0  0
    0.1654    3.4274    6.0801 C   0  0  0  0  0  0  0  0  0  0  0  0
   -0.3279    3.5328    4.7617 C   0  0  0  0  0  0  0  0  0  0  0  0
   -0.5768    2.3984    3.9941 C   0  0  0  0  0  0  0  0  0  0  0  0
   -0.5134    4.8092    4.3460 O   0  0  0  0  0  0  0  0  0  0  0  0
   -0.9416    4.9915    3.0004 C   0  0  0  0  0  0  0  0  0  0  0  0
    0.3007    4.5264    6.8863 O   0  0  0  0  0  0  0  0  0  0  0  0
    1.3134    5.4316    6.4475 C   0  0  0  0  0  0  0  0  0  0  0  0
    0.8694    1.8428    7.8331 O   0  0  0  0  0  0  0  0  0  0  0  0
    1.0620    2.8908    8.7753 C   0  0  0  0  0  0  0  0  0  0  0  0
    2.3476   -0.0910    3.4154 N   0  0  0  0  0  0  0  0  0  0  0  0
    2.0032    0.0144   -1.2155 N   0  0  0  0  0  0  0  0  0  0  0  0
   -1.6979   -0.0277    1.1731 H   0  0  0  0  0  0  0  0  0  0  0  0
   -0.3224   -1.0191    4.2685 H   0  0  0  0  0  0  0  0  0  0  0  0
   -1.7108   -0.1935    3.5694 H   0  0  0  0  0  0  0  0  0  0  0  0
    0.3014    0.0271    6.2885 H   0  0  0  0  0  0  0  0  0  0  0  0
   -0.9468    2.4751    2.9772 H   0  0  0  0  0  0  0  0  0  0  0  0
   -0.9739    6.0860    2.9180 H   0  0  0  0  0  0  0  0  0  0  0  0
   -1.9395    4.5669    2.8504 H   0  0  0  0  0  0  0  0  0  0  0  0
   -0.2178    4.5719    2.2941 H   0  0  0  0  0  0  0  0  0  0  0  0
    0.9940    5.9485    5.5362 H   0  0  0  0  0  0  0  0  0  0  0  0
    2.2646    4.9196    6.2868 H   0  0  0  0  0  0  0  0  0  0  0  0
    1.3788    6.1376    7.2836 H   0  0  0  0  0  0  0  0  0  0  0  0
    1.3573    2.3359    9.6750 H   0  0  0  0  0  0  0  0  0  0  0  0
    0.1299    3.4426    8.9431 H   0  0  0  0  0  0  0  0  0  0  0  0
    1.8598    3.5637    8.4482 H   0  0  0  0  0  0  0  0  0  0  0  0
    1.9861    0.1396    4.3229 H   0  0  0  0  0  0  0  0  0  0  0  0
    3.3380    0.0008    3.2819 H   0  0  0  0  0  0  0  0  0  0  0  0
    1.4634    0.0113   -2.0559 H   0  0  0  0  0  0  0  0  0  0  0  0
    3.0000    0.0018   -1.2673 H   0  0  0  0  0  0  0  0  0  0  0  0
  1  2  2  0  0  0  0
  1  6  2  0  0  0  0
  2  3  2  0  0  0  0
  3  4  2  0  0  0  0
  4  5  1  0  0  0  0
  4 20  1  0  0  0  0
  5  7  1  6  0  0  0
  6  5  1  0  0  0  0
  7 23  1  0  0  0  0
  7  8  1  0  0  0  0
  8  9  1  0  0  0  0
  9 25  1  0  0  0  0
  9 10  2  0  0  0  0
 10 18  1  0  0  0  0
 11 10  1  0  0  0  0
 11 16  1  0  0  0  0
 12 11  2  0  0  0  0
 13  8  2  0  0  0  0
 13 12  1  0  0  0  0
 14 12  1  0  0  0  0
 15 14  1  0  0  0  0
 17 16  1  0  0  0  0
 17 32  1  0  0  0  0
 18 19  1  0  0  0  0
 19 34  1  0  0  0  0
 19 33  1  0  0  0  0
 20 36  1  0  0  0  0
 21  2  1  0  0  0  0
 22  6  1  0  0  0  0
 24  7  1  0  0  0  0
 26 13  1  0  0  0  0
 27 15  1  0  0  0  0
 28 15  1  0  0  0  0
 29 15  1  0  0  0  0
 30 17  1  0  0  0  0
 31 17  1  0  0  0  0
 35 19  1  0  0  0  0
 37 20  1  0  0  0  0
 38 21  1  0  0  0  0
 39 21  1  0  0  0  0
M  RAD  1   5   2
M  END
$$$$
