rmsd109.gzmat
 OpenBabel08211713373D

 39 40  0  0  1  0  0  0  0  0999 V2000
    0.0000    0.0000    0.0000 N   0  0  0  0  0  0  0  0  0  0  0  0
    1.3758    0.0000    0.0000 C   0  0  0  0  0  0  0  0  0  0  0  0
    2.1650    0.0000    1.1155 N   0  0  0  0  0  0  0  0  0  0  0  0
    1.5234   -0.0409    2.3193 C   0  0  0  0  0  0  0  0  0  0  0  0
    0.1011   -0.0650    2.4100 C   0  0  1  0  0  0  0  0  0  0  0  0
   -0.5984   -0.0328    1.2033 C   0  0  0  0  0  0  0  0  0  0  0  0
   -0.6102   -0.1347    3.7162 C   0  0  0  0  0  0  0  0  0  0  0  0
   -0.3509    1.0902    4.5493 C   0  0  0  0  0  0  0  0  0  0  0  0
    0.1519    0.9565    5.8363 C   0  0  0  0  0  0  0  0  0  0  0  0
    0.4137    2.1068    6.6036 C   0  0  0  0  0  0  0  0  0  0  0  0
    0.1668    3.3806    6.0839 C   0  0  0  0  0  0  0  0  0  0  0  0
   -0.3589    3.4874    4.7786 C   0  0  0  0  0  0  0  0  0  0  0  0
   -0.6098    2.3537    4.0110 C   0  0  0  0  0  0  0  0  0  0  0  0
   -0.5663    4.7649    4.3750 O   0  0  0  0  0  0  0  0  0  0  0  0
   -1.0177    4.9513    3.0381 C   0  0  0  0  0  0  0  0  0  0  0  0
    0.3348    4.4714    6.8938 O   0  0  0  0  0  0  0  0  0  0  0  0
    1.2354    5.4435    6.3623 C   0  0  0  0  0  0  0  0  0  0  0  0
    0.9146    1.7990    7.8209 O   0  0  0  0  0  0  0  0  0  0  0  0
    1.1702    2.8552    8.7389 C   0  0  0  0  0  0  0  0  0  0  0  0
    2.3487   -0.1040    3.4144 N   0  0  0  0  0  0  0  0  0  0  0  0
    2.0062    0.0138   -1.2140 N   0  0  0  0  0  0  0  0  0  0  0  0
   -1.6971   -0.0345    1.1755 H   0  0  0  0  0  0  0  0  0  0  0  0
   -0.3149   -1.0624    4.2580 H   0  0  0  0  0  0  0  0  0  0  0  0
   -1.7097   -0.2412    3.5683 H   0  0  0  0  0  0  0  0  0  0  0  0
    0.3308   -0.0186    6.2813 H   0  0  0  0  0  0  0  0  0  0  0  0
   -0.9978    2.4292    3.0006 H   0  0  0  0  0  0  0  0  0  0  0  0
   -1.0744    6.0458    2.9664 H   0  0  0  0  0  0  0  0  0  0  0  0
   -2.0078    4.5064    2.8975 H   0  0  0  0  0  0  0  0  0  0  0  0
   -0.2947    4.5542    2.3188 H   0  0  0  0  0  0  0  0  0  0  0  0
    0.6940    6.0906    5.6625 H   0  0  0  0  0  0  0  0  0  0  0  0
    2.0987    4.9859    5.8751 H   0  0  0  0  0  0  0  0  0  0  0  0
    1.5387    6.0072    7.2515 H   0  0  0  0  0  0  0  0  0  0  0  0
    1.5205    2.3083    9.6234 H   0  0  0  0  0  0  0  0  0  0  0  0
    0.2505    3.4089    8.9595 H   0  0  0  0  0  0  0  0  0  0  0  0
    1.9467    3.5244    8.3579 H   0  0  0  0  0  0  0  0  0  0  0  0
    1.9878    0.1265    4.3228 H   0  0  0  0  0  0  0  0  0  0  0  0
    3.3387   -0.0083    3.2793 H   0  0  0  0  0  0  0  0  0  0  0  0
    1.4691    0.0161   -2.0561 H   0  0  0  0  0  0  0  0  0  0  0  0
    3.0036    0.0029   -1.2623 H   0  0  0  0  0  0  0  0  0  0  0  0
  1  2  2  0  0  0  0
  1  6  2  0  0  0  0
  2  3  2  0  0  0  0
  3  4  2  0  0  0  0
  4  5  1  0  0  0  0
  4 20  1  0  0  0  0
  5  7  1  6  0  0  0
  6  5  1  0  0  0  0
  7 23  1  0  0  0  0
  7  8  1  0  0  0  0
  8  9  1  0  0  0  0
  9 25  1  0  0  0  0
  9 10  2  0  0  0  0
 10 18  1  0  0  0  0
 11 10  1  0  0  0  0
 11 16  1  0  0  0  0
 12 11  2  0  0  0  0
 13  8  2  0  0  0  0
 13 12  1  0  0  0  0
 14 12  1  0  0  0  0
 15 14  1  0  0  0  0
 17 16  1  0  0  0  0
 17 32  1  0  0  0  0
 18 19  1  0  0  0  0
 19 34  1  0  0  0  0
 19 33  1  0  0  0  0
 20 36  1  0  0  0  0
 21  2  1  0  0  0  0
 22  6  1  0  0  0  0
 24  7  1  0  0  0  0
 26 13  1  0  0  0  0
 27 15  1  0  0  0  0
 28 15  1  0  0  0  0
 29 15  1  0  0  0  0
 30 17  1  0  0  0  0
 31 17  1  0  0  0  0
 35 19  1  0  0  0  0
 37 20  1  0  0  0  0
 38 21  1  0  0  0  0
 39 21  1  0  0  0  0
M  RAD  1   5   2
M  END
$$$$
