39
rmsd131.gzmat
N          0.00000        0.00000        0.00000
C          1.37570        0.00000        0.00000
N          2.16570        0.00000        1.11500
C          1.52440        0.00940        2.31960
C          0.10210        0.00370        2.41060
C         -0.59840        0.00150        1.20380
C         -0.60880       -0.00780        3.71900
C         -0.30040       -1.26450        4.48560
C         -0.48310       -2.50450        3.86750
C         -0.16330       -3.66720        4.56250
C          0.35100       -3.61250        5.87600
C          0.50990       -2.36230        6.47940
C          0.18240       -1.18260        5.78410
O          0.98000       -2.10000        7.71900
C          1.29660       -3.19130        8.57420
O          0.57880       -4.75150        6.60220
C          1.64880       -5.54340        6.08670
O         -0.28830       -4.92540        4.07530
C         -0.74620       -5.05160        2.73290
N          2.35050        0.07420        3.41500
N          2.00530       -0.02330       -1.21440
H         -1.69720        0.00060        1.17560
H         -1.71160        0.06720        3.57730
H         -0.34340        0.90080        4.30590
H         -0.86350       -2.53830        2.85190
H          0.29760       -0.22860        6.29130
H          1.56670       -2.67860        9.50630
H          2.14310       -3.75900        8.17810
H          0.42590       -3.83990        8.72310
H          2.55860       -4.95240        5.96130
H          1.35650       -6.01010        5.13980
H          1.77590       -6.30580        6.86370
H         -0.73340       -6.13990        2.58890
H         -0.06040       -4.56150        2.03400
H         -1.76520       -4.66410        2.63220
H          1.99790       -0.18560        4.31860
H          3.34190       -0.00300        3.27490
H          1.46760        0.00400       -2.05620
H          3.00230        0.00920       -1.26270
