rmsd131.gzmat
 OpenBabel08211713373D

 39 40  0  0  1  0  0  0  0  0999 V2000
    0.0000    0.0000    0.0000 N   0  0  0  0  0  0  0  0  0  0  0  0
    1.3757    0.0000    0.0000 C   0  0  0  0  0  0  0  0  0  0  0  0
    2.1657    0.0000    1.1150 N   0  0  0  0  0  0  0  0  0  0  0  0
    1.5244    0.0094    2.3196 C   0  0  0  0  0  0  0  0  0  0  0  0
    0.1021    0.0037    2.4106 C   0  0  1  0  0  0  0  0  0  0  0  0
   -0.5984    0.0015    1.2038 C   0  0  0  0  0  0  0  0  0  0  0  0
   -0.6088   -0.0078    3.7190 C   0  0  0  0  0  0  0  0  0  0  0  0
   -0.3004   -1.2645    4.4856 C   0  0  0  0  0  0  0  0  0  0  0  0
   -0.4831   -2.5045    3.8675 C   0  0  0  0  0  0  0  0  0  0  0  0
   -0.1633   -3.6672    4.5625 C   0  0  0  0  0  0  0  0  0  0  0  0
    0.3510   -3.6125    5.8760 C   0  0  0  0  0  0  0  0  0  0  0  0
    0.5099   -2.3623    6.4794 C   0  0  0  0  0  0  0  0  0  0  0  0
    0.1824   -1.1826    5.7841 C   0  0  0  0  0  0  0  0  0  0  0  0
    0.9800   -2.1000    7.7190 O   0  0  0  0  0  0  0  0  0  0  0  0
    1.2966   -3.1913    8.5742 C   0  0  0  0  0  0  0  0  0  0  0  0
    0.5788   -4.7515    6.6022 O   0  0  0  0  0  0  0  0  0  0  0  0
    1.6488   -5.5434    6.0867 C   0  0  0  0  0  0  0  0  0  0  0  0
   -0.2883   -4.9254    4.0753 O   0  0  0  0  0  0  0  0  0  0  0  0
   -0.7462   -5.0516    2.7329 C   0  0  0  0  0  0  0  0  0  0  0  0
    2.3505    0.0742    3.4150 N   0  0  0  0  0  0  0  0  0  0  0  0
    2.0053   -0.0233   -1.2144 N   0  0  0  0  0  0  0  0  0  0  0  0
   -1.6972    0.0006    1.1756 H   0  0  0  0  0  0  0  0  0  0  0  0
   -1.7116    0.0672    3.5773 H   0  0  0  0  0  0  0  0  0  0  0  0
   -0.3434    0.9008    4.3059 H   0  0  0  0  0  0  0  0  0  0  0  0
   -0.8635   -2.5383    2.8519 H   0  0  0  0  0  0  0  0  0  0  0  0
    0.2976   -0.2286    6.2913 H   0  0  0  0  0  0  0  0  0  0  0  0
    1.5667   -2.6786    9.5063 H   0  0  0  0  0  0  0  0  0  0  0  0
    2.1431   -3.7590    8.1781 H   0  0  0  0  0  0  0  0  0  0  0  0
    0.4259   -3.8399    8.7231 H   0  0  0  0  0  0  0  0  0  0  0  0
    2.5586   -4.9524    5.9613 H   0  0  0  0  0  0  0  0  0  0  0  0
    1.3565   -6.0101    5.1398 H   0  0  0  0  0  0  0  0  0  0  0  0
    1.7759   -6.3058    6.8637 H   0  0  0  0  0  0  0  0  0  0  0  0
   -0.7334   -6.1399    2.5889 H   0  0  0  0  0  0  0  0  0  0  0  0
   -0.0604   -4.5615    2.0340 H   0  0  0  0  0  0  0  0  0  0  0  0
   -1.7652   -4.6641    2.6322 H   0  0  0  0  0  0  0  0  0  0  0  0
    1.9979   -0.1856    4.3186 H   0  0  0  0  0  0  0  0  0  0  0  0
    3.3419   -0.0030    3.2749 H   0  0  0  0  0  0  0  0  0  0  0  0
    1.4676    0.0040   -2.0562 H   0  0  0  0  0  0  0  0  0  0  0  0
    3.0023    0.0092   -1.2627 H   0  0  0  0  0  0  0  0  0  0  0  0
  1  2  2  0  0  0  0
  1  6  2  0  0  0  0
  2  3  2  0  0  0  0
  3  4  2  0  0  0  0
  4  5  1  0  0  0  0
  4 20  1  0  0  0  0
  5  7  1  6  0  0  0
  6  5  1  0  0  0  0
  7 24  1  0  0  0  0
  7  8  1  0  0  0  0
  8 13  1  0  0  0  0
  9  8  2  0  0  0  0
  9 10  1  0  0  0  0
 10 11  2  0  0  0  0
 11 12  1  0  0  0  0
 11 16  1  0  0  0  0
 12 14  1  0  0  0  0
 13 26  1  0  0  0  0
 13 12  2  0  0  0  0
 14 15  1  0  0  0  0
 15 29  1  0  0  0  0
 15 27  1  0  0  0  0
 17 16  1  0  0  0  0
 17 32  1  0  0  0  0
 18 10  1  0  0  0  0
 19 18  1  0  0  0  0
 20 36  1  0  0  0  0
 21  2  1  0  0  0  0
 22  6  1  0  0  0  0
 23  7  1  0  0  0  0
 25  9  1  0  0  0  0
 28 15  1  0  0  0  0
 30 17  1  0  0  0  0
 31 17  1  0  0  0  0
 33 19  1  0  0  0  0
 34 19  1  0  0  0  0
 35 19  1  0  0  0  0
 37 20  1  0  0  0  0
 38 21  1  0  0  0  0
 39 21  1  0  0  0  0
M  RAD  1   5   2
M  END
$$$$
