39
rmsd121.gzmat
N          0.00000        0.00000        0.00000
C          1.37570        0.00000        0.00000
N          2.16530        0.00000        1.11480
C          1.52420        0.01960        2.31970
C          0.10170        0.02910        2.41050
C         -0.59810        0.01390        1.20370
C         -0.61200        0.04850        3.71700
C         -0.31620       -1.19320        4.51230
C         -0.53400       -2.44650        3.93380
C         -0.23340       -3.59490        4.66060
C          0.29870       -3.51250        5.96530
C          0.50150       -2.24860        6.52570
C          0.18890       -1.08350        5.80050
O          1.00570       -1.96030        7.74620
C          1.30650       -3.03320        8.62960
O          0.50450       -4.62790        6.73240
C          1.49610       -5.50750        6.20250
O         -0.39390       -4.86450        4.21500
C         -0.86370       -5.02450        2.88090
N          2.35100        0.07230        3.41390
N          2.00380       -0.02290       -1.21510
H         -1.69650        0.01290        1.17570
H         -1.71380        0.12900        3.57090
H         -0.34160        0.96770        4.28480
H         -0.92770       -2.50350        2.92460
H          0.33210       -0.11790        6.27780
H          1.62630       -2.50060        9.53420
H          2.11610       -3.64970        8.22870
H          0.41440       -3.63810        8.82690
H          2.39140       -4.96840        5.88650
H          1.07620       -6.08250        5.36960
H          1.71050       -6.16680        7.05140
H         -0.86670       -6.11700        2.76990
H         -0.17770       -4.56560        2.16170
H         -1.87800       -4.62610        2.77720
H          1.99240       -0.16380        4.32160
H          3.34070       -0.02440        3.27660
H          1.46420       -0.01030       -2.05570
H          3.00030        0.01300       -1.26590
