39
rmsd16.gzmat
N          0.00000        0.00000        0.00000
C          1.37600        0.00000        0.00000
N          2.16610        0.00000        1.11540
C          1.52460       -0.04320        2.31910
C          0.10240       -0.06590        2.41010
C         -0.59840       -0.03150        1.20350
C         -0.60540       -0.13630        3.71740
C         -0.34920        1.08350        4.55860
C          0.06230        0.93630        5.87590
C          0.29010        2.07960        6.66450
C          0.11230        3.35930        6.13250
C         -0.30700        3.47960        4.79000
C         -0.53210        2.35320        4.00410
O         -0.45020        4.76220        4.37640
C         -0.76810        4.96380        3.00360
O          0.22770        4.45370        6.94830
C          1.28060        5.33710        6.56280
O          0.69110        1.75750        7.91440
C          0.86000        2.80250        8.86440
N          2.34860       -0.10720        3.41510
N          2.00590        0.01270       -1.21420
H         -1.69710       -0.03060        1.17570
H         -0.31150       -1.06630        4.25680
H         -1.70620       -0.23840        3.57130
H          0.19250       -0.04290        6.32860
H         -0.84610        2.43880        2.96900
H         -0.78830        6.05960        2.93320
H         -1.75240        4.54740        2.76680
H          0.01020        4.54870        2.35520
H          1.00480        5.87920        5.65140
H          2.22310        4.80270        6.42410
H          1.33820        6.02500        7.41430
H          1.09830        2.24370        9.77820
H         -0.06740        3.37410        8.98580
H          1.68800        3.45650        8.57630
H          1.98560        0.11390        4.32420
H          3.33860       -0.01300        3.28210
H          1.46860        0.01730       -2.05630
H          3.00350        0.01280       -1.26210
