rmsd116.gzmat
 OpenBabel08211713373D

 39 40  0  0  1  0  0  0  0  0999 V2000
    0.0000    0.0000    0.0000 N   0  0  0  0  0  0  0  0  0  0  0  0
    1.3759    0.0000    0.0000 C   0  0  0  0  0  0  0  0  0  0  0  0
    2.1663    0.0000    1.1151 N   0  0  0  0  0  0  0  0  0  0  0  0
    1.5251    0.0471    2.3194 C   0  0  0  0  0  0  0  0  0  0  0  0
    0.1024    0.0680    2.4101 C   0  0  2  0  0  0  0  0  0  0  0  0
   -0.5983    0.0290    1.2033 C   0  0  0  0  0  0  0  0  0  0  0  0
   -0.6094    0.1496    3.7147 C   0  0  0  0  0  0  0  0  0  0  0  0
   -0.3055   -1.0227    4.6061 C   0  0  0  0  0  0  0  0  0  0  0  0
   -0.3385   -2.3188    4.0844 C   0  0  0  0  0  0  0  0  0  0  0  0
   -0.0661   -3.3981    4.9200 C   0  0  0  0  0  0  0  0  0  0  0  0
    0.2493   -3.2050    6.2823 C   0  0  0  0  0  0  0  0  0  0  0  0
    0.2741   -1.9005    6.7825 C   0  0  0  0  0  0  0  0  0  0  0  0
    0.0022   -0.8046    5.9420 C   0  0  0  0  0  0  0  0  0  0  0  0
    0.5571   -1.5090    8.0449 O   0  0  0  0  0  0  0  0  0  0  0  0
    0.7172   -2.5050    9.0473 C   0  0  0  0  0  0  0  0  0  0  0  0
    0.3986   -4.2648    7.1373 O   0  0  0  0  0  0  0  0  0  0  0  0
    1.5595   -5.0511    6.8701 C   0  0  0  0  0  0  0  0  0  0  0  0
   -0.0640   -4.6985    4.5386 O   0  0  0  0  0  0  0  0  0  0  0  0
   -0.2979   -4.9647    3.1599 C   0  0  0  0  0  0  0  0  0  0  0  0
    2.3492    0.1156    3.4140 N   0  0  0  0  0  0  0  0  0  0  0  0
    2.0030   -0.0191   -1.2159 N   0  0  0  0  0  0  0  0  0  0  0  0
   -1.6971    0.0215    1.1759 H   0  0  0  0  0  0  0  0  0  0  0  0
   -1.7138    0.1983    3.5633 H   0  0  0  0  0  0  0  0  0  0  0  0
   -0.3581    1.1116    4.2192 H   0  0  0  0  0  0  0  0  0  0  0  0
   -0.5774   -2.4627    3.0356 H   0  0  0  0  0  0  0  0  0  0  0  0
    0.0170    0.1954    6.3675 H   0  0  0  0  0  0  0  0  0  0  0  0
    0.8233   -1.8983    9.9559 H   0  0  0  0  0  0  0  0  0  0  0  0
    1.6176   -3.0973    8.8623 H   0  0  0  0  0  0  0  0  0  0  0  0
   -0.1682   -3.1478    9.1078 H   0  0  0  0  0  0  0  0  0  0  0  0
    2.4638   -4.4386    6.8821 H   0  0  0  0  0  0  0  0  0  0  0  0
    1.4606   -5.5775    5.9147 H   0  0  0  0  0  0  0  0  0  0  0  0
    1.5541   -5.7680    7.6992 H   0  0  0  0  0  0  0  0  0  0  0  0
   -0.2139   -6.0588    3.1220 H   0  0  0  0  0  0  0  0  0  0  0  0
    0.4673   -4.4961    2.5328 H   0  0  0  0  0  0  0  0  0  0  0  0
   -1.3044   -4.6479    2.8682 H   0  0  0  0  0  0  0  0  0  0  0  0
    1.9815   -0.0705    4.3289 H   0  0  0  0  0  0  0  0  0  0  0  0
    3.3387    0.0100    3.2866 H   0  0  0  0  0  0  0  0  0  0  0  0
    1.4626    0.0015   -2.0564 H   0  0  0  0  0  0  0  0  0  0  0  0
    2.9998    0.0018   -1.2677 H   0  0  0  0  0  0  0  0  0  0  0  0
  1  2  2  0  0  0  0
  1  6  2  0  0  0  0
  2  3  2  0  0  0  0
  3  4  2  0  0  0  0
  4  5  1  0  0  0  0
  4 20  1  0  0  0  0
  5  7  1  6  0  0  0
  6  5  1  0  0  0  0
  7 24  1  0  0  0  0
  7  8  1  0  0  0  0
  8 13  1  0  0  0  0
  9  8  2  0  0  0  0
  9 10  1  0  0  0  0
 10 11  2  0  0  0  0
 11 12  1  0  0  0  0
 11 16  1  0  0  0  0
 12 14  1  0  0  0  0
 13 26  1  0  0  0  0
 13 12  2  0  0  0  0
 14 15  1  0  0  0  0
 15 29  1  0  0  0  0
 15 27  1  0  0  0  0
 17 30  1  0  0  0  0
 17 16  1  0  0  0  0
 17 32  1  0  0  0  0
 18 10  1  0  0  0  0
 19 18  1  0  0  0  0
 20 36  1  0  0  0  0
 21  2  1  0  0  0  0
 22  6  1  0  0  0  0
 23  7  1  0  0  0  0
 25  9  1  0  0  0  0
 28 15  1  0  0  0  0
 31 17  1  0  0  0  0
 33 19  1  0  0  0  0
 34 19  1  0  0  0  0
 35 19  1  0  0  0  0
 37 20  1  0  0  0  0
 38 21  1  0  0  0  0
 39 21  1  0  0  0  0
M  RAD  1   5   2
M  END
$$$$
