39

N         -0.14490       -0.16430        0.02200
C          1.18750       -0.02920       -0.07230
N          2.04720        0.08990        0.95030
C          1.53930        0.06920        2.18480
C          0.14130       -0.07680        2.41740
C         -0.62950       -0.18350        1.26580
C         -0.43970       -0.12130        3.80590
C         -0.18910        1.13560        4.62470
C          0.24730        1.05260        5.94770
C          0.48740        2.21600        6.69660
C          0.27620        3.47760        6.12360
C         -0.16430        3.56230        4.78170
C         -0.39240        2.39740        4.04340
O         -0.31540        4.81930        4.29760
C         -0.73860        4.98460        2.96230
O          0.49870        4.61210        6.85270
C          1.72770        5.26980        6.58140
O          0.97430        2.08310        7.96360
C          0.16850        2.58920        9.02040
N          2.42240        0.16270        3.22080
N          1.71620        0.01810       -1.32930
H         -1.71800       -0.29710        1.36240
H         -0.03980       -0.98650        4.36300
H         -1.52750       -0.28810        3.72250
H          0.41890        0.08840        6.43080
H         -0.71300        2.45000        3.00400
H         -0.79120        6.06650        2.78320
H         -1.73650        4.54270        2.79390
H         -0.02710        4.53340        2.24820
H          1.76990        5.61920        5.53660
H          2.58560        4.60390        6.78120
H          1.78160        6.13790        7.25320
H          0.70000        2.36340        9.95530
H         -0.81520        2.08620        9.03770
H          0.01870        3.67550        8.93200
H          2.08870        0.46690        4.12770
H          3.37080        0.41400        2.96830
H          1.11580       -0.24560       -2.09830
H          2.71800       -0.06950       -1.42650
