35
rmsd32.gzmat
S          0.00000        0.00000        0.00000
O          1.43520        0.00000        0.00000
N         -0.80910        0.00000       -1.44190
C         -1.62210       -1.07230       -1.59520
O         -2.35490       -1.34530       -2.51160
C         -1.63040       -2.04920       -0.31540
O         -2.90380       -1.92640        0.26590
C         -0.65040       -1.50360        0.72260
C         -1.36990       -3.47870       -0.77460
C         -1.31460       -4.40090        0.40620
O         -0.41440       -4.50210        1.19890
O         -2.44320       -5.14860        0.46070
C         -2.61640       -5.98030        1.60760
C         -2.96580       -5.15890        2.81020
C         -2.59520       -5.59820        4.08130
C         -2.91980       -4.83470        5.20040
C         -3.60880       -3.63220        5.05130
C         -3.97930       -3.19520        3.78080
C         -3.66030       -3.95830        2.66030
C         -0.54900        1.39350        0.93080
H         -3.60950       -2.08280       -0.40680
H          0.15430       -2.23590        0.96480
H         -1.16190       -1.36750        1.69730
H         -0.41600       -3.54680       -1.34400
H         -2.16170       -3.78740       -1.49940
H         -1.70610       -6.59290        1.75600
H         -3.46040       -6.62770        1.28710
H         -2.04590       -6.53050        4.20090
H         -2.63130       -5.17680        6.19210
H         -3.85940       -3.03530        5.92540
H         -4.51870       -2.25780        3.66160
H         -3.94220       -3.61100        1.66460
H         -1.57880        1.29120        1.30390
H         -0.55060        2.31160        0.31400
H          0.09710        1.61490        1.79310
