35
rmsd122.gzmat
S          0.00000        0.00000        0.00000
O          1.43600        0.00000        0.00000
N         -0.80710        0.00000       -1.44410
C         -1.66160       -1.04320       -1.57490
O         -2.38690       -1.31790       -2.49650
C         -1.73440       -1.96520       -0.25640
O         -2.95430       -1.65320        0.37140
C         -0.65230       -1.50310        0.71850
C         -1.67910       -3.43540       -0.64380
C         -1.73050       -4.30400        0.57790
O         -0.96850       -4.29470        1.50970
O         -2.79140       -5.14230        0.49250
C         -2.95640       -6.10180        1.53830
C         -2.14820       -7.32350        1.22750
C         -2.04030       -7.76070       -0.09340
C         -1.28520       -8.89290       -0.38910
C         -0.64490       -9.59120        0.63340
C         -0.76090       -9.15780        1.95310
C         -1.51000       -8.02170        2.25210
C         -0.55200        1.38580        0.94250
H         -3.71080       -1.79750       -0.24400
H          0.13300       -2.27900        0.86540
H         -1.07500       -1.39200        1.73790
H         -0.75460       -3.66330       -1.22120
H         -2.51440       -3.66960       -1.34870
H         -4.04780       -6.30110        1.49740
H         -2.70050       -5.64680        2.51400
H         -2.54450       -7.21260       -0.88900
H         -1.19700       -9.23320       -1.41910
H         -0.05400      -10.47490        0.40170
H         -0.26160       -9.70420        2.75130
H         -1.58750       -7.67840        3.28200
H         -1.49090        1.19740        1.48400
H         -0.75370        2.26000        0.29650
H          0.19150        1.72340        1.68030
