rmsd100.gzmat
 OpenBabel08211713403D

 35 36  0  0  1  0  0  0  0  0999 V2000
    0.0000    0.0000    0.0000 S   0  0  1  0  0  0  0  0  0  0  0  0
    1.4360    0.0000    0.0000 O   0  0  0  0  0  0  0  0  0  0  0  0
   -0.8101    0.0000   -1.4412 N   0  0  0  0  0  0  0  0  0  0  0  0
   -1.6471   -1.0564   -1.5800 C   0  0  0  0  0  0  0  0  0  0  0  0
   -2.3733   -1.3304   -2.5009 O   0  0  0  0  0  0  0  0  0  0  0  0
   -1.6919   -2.0028   -0.2783 C   0  0  2  0  0  0  0  0  0  0  0  0
   -2.9337   -1.7688    0.3393 O   0  0  0  0  0  0  0  0  0  0  0  0
   -0.6467   -1.5054    0.7197 C   0  0  0  0  0  0  0  0  0  0  0  0
   -1.5566   -3.4639   -0.6895 C   0  0  0  0  0  0  0  0  0  0  0  0
   -1.8926   -4.3518    0.4710 C   0  0  0  0  0  0  0  0  0  0  0  0
   -2.8861   -5.0052    0.6377 O   0  0  0  0  0  0  0  0  0  0  0  0
   -0.8626   -4.3322    1.3607 O   0  0  0  0  0  0  0  0  0  0  0  0
   -1.0855   -4.8944    2.6533 C   0  0  0  0  0  0  0  0  0  0  0  0
   -1.4600   -3.7769    3.5803 C   0  0  0  0  0  0  0  0  0  0  0  0
   -2.5868   -2.9989    3.3084 C   0  0  0  0  0  0  0  0  0  0  0  0
   -2.9325   -1.9535    4.1603 C   0  0  0  0  0  0  0  0  0  0  0  0
   -2.1556   -1.6850    5.2862 C   0  0  0  0  0  0  0  0  0  0  0  0
   -1.0317   -2.4628    5.5583 C   0  0  0  0  0  0  0  0  0  0  0  0
   -0.6807   -3.5075    4.7053 C   0  0  0  0  0  0  0  0  0  0  0  0
   -0.5542    1.3810    0.9442 C   0  0  0  0  0  0  0  0  0  0  0  0
   -3.6762   -1.9462   -0.2865 H   0  0  0  0  0  0  0  0  0  0  0  0
    0.1481   -2.2599    0.9026 H   0  0  0  0  0  0  0  0  0  0  0  0
   -1.1055   -1.3853    1.7246 H   0  0  0  0  0  0  0  0  0  0  0  0
   -0.5390   -3.6780   -1.0797 H   0  0  0  0  0  0  0  0  0  0  0  0
   -2.2496   -3.6837   -1.5400 H   0  0  0  0  0  0  0  0  0  0  0  0
   -0.1065   -5.3561    2.8863 H   0  0  0  0  0  0  0  0  0  0  0  0
   -1.8630   -5.6856    2.6184 H   0  0  0  0  0  0  0  0  0  0  0  0
   -3.1997   -3.2072    2.4266 H   0  0  0  0  0  0  0  0  0  0  0  0
   -3.8159   -1.3532    3.9489 H   0  0  0  0  0  0  0  0  0  0  0  0
   -2.4304   -0.8726    5.9556 H   0  0  0  0  0  0  0  0  0  0  0  0
   -0.4283   -2.2562    6.4403 H   0  0  0  0  0  0  0  0  0  0  0  0
    0.2005   -4.1094    4.9206 H   0  0  0  0  0  0  0  0  0  0  0  0
   -1.5974    1.2793    1.2808 H   0  0  0  0  0  0  0  0  0  0  0  0
   -0.5247    2.3136    0.3518 H   0  0  0  0  0  0  0  0  0  0  0  0
    0.0645    1.5694    1.8332 H   0  0  0  0  0  0  0  0  0  0  0  0
  1  2  1  6  0  0  0
  1  8  1  0  0  0  0
  1 20  1  0  0  0  0
  3  1  1  0  0  0  0
  4  3  2  0  0  0  0
  4  6  1  0  0  0  0
  5  4  2  0  0  0  0
  6  7  1  1  0  0  0
  6  8  1  0  0  0  0
  8 22  1  0  0  0  0
  8 23  1  0  0  0  0
  9  6  1  0  0  0  0
  9 10  1  0  0  0  0
 10 11  2  0  0  0  0
 10 12  1  0  0  0  0
 12 13  1  0  0  0  0
 13 26  1  0  0  0  0
 13 14  1  0  0  0  0
 14 19  1  0  0  0  0
 15 14  2  0  0  0  0
 15 16  1  0  0  0  0
 16 17  2  0  0  0  0
 17 18  1  0  0  0  0
 17 30  1  0  0  0  0
 18 31  1  0  0  0  0
 19 32  1  0  0  0  0
 19 18  2  0  0  0  0
 20 33  1  0  0  0  0
 20 35  1  0  0  0  0
 21  7  1  0  0  0  0
 24  9  1  0  0  0  0
 25  9  1  0  0  0  0
 27 13  1  0  0  0  0
 28 15  1  0  0  0  0
 29 16  1  0  0  0  0
 34 20  1  0  0  0  0
M  RAD  1   2   2
M  END
$$$$
