rmsd156.gzmat
 OpenBabel08211713403D

 35 36  0  0  1  0  0  0  0  0999 V2000
    0.0000    0.0000    0.0000 S   0  0  1  0  0  0  0  0  0  0  0  0
    1.4360    0.0000    0.0000 O   0  0  0  0  0  0  0  0  0  0  0  0
   -0.8092    0.0000   -1.4414 N   0  0  0  0  0  0  0  0  0  0  0  0
   -1.6372   -1.0632   -1.5864 C   0  0  0  0  0  0  0  0  0  0  0  0
   -2.3625   -1.3387   -2.5071 O   0  0  0  0  0  0  0  0  0  0  0  0
   -1.6642   -2.0220   -0.2928 C   0  0  2  0  0  0  0  0  0  0  0  0
   -2.9159   -1.8340    0.3154 O   0  0  0  0  0  0  0  0  0  0  0  0
   -0.6470   -1.5025    0.7234 C   0  0  0  0  0  0  0  0  0  0  0  0
   -1.4679   -3.4679   -0.7332 C   0  0  0  0  0  0  0  0  0  0  0  0
   -1.4651   -4.3695    0.4637 C   0  0  0  0  0  0  0  0  0  0  0  0
   -0.6351   -4.4061    1.3371 O   0  0  0  0  0  0  0  0  0  0  0  0
   -2.5455   -5.1836    0.4327 O   0  0  0  0  0  0  0  0  0  0  0  0
   -2.8213   -5.9386    1.6176 C   0  0  0  0  0  0  0  0  0  0  0  0
   -3.3969   -5.0087    2.6412 C   0  0  0  0  0  0  0  0  0  0  0  0
   -4.7421   -4.6459    2.5718 C   0  0  0  0  0  0  0  0  0  0  0  0
   -5.2630   -3.7351    3.4882 C   0  0  0  0  0  0  0  0  0  0  0  0
   -4.4417   -3.1899    4.4736 C   0  0  0  0  0  0  0  0  0  0  0  0
   -3.0974   -3.5533    4.5426 C   0  0  0  0  0  0  0  0  0  0  0  0
   -2.5731   -4.4605    3.6251 C   0  0  0  0  0  0  0  0  0  0  0  0
   -0.5481    1.3895    0.9372 C   0  0  0  0  0  0  0  0  0  0  0  0
   -3.6472   -2.0468   -0.3106 H   0  0  0  0  0  0  0  0  0  0  0  0
    0.1515   -2.2498    0.9353 H   0  0  0  0  0  0  0  0  0  0  0  0
   -1.1303   -1.3728    1.7137 H   0  0  0  0  0  0  0  0  0  0  0  0
   -0.5170   -3.5877   -1.2987 H   0  0  0  0  0  0  0  0  0  0  0  0
   -2.2709   -3.7501   -1.4574 H   0  0  0  0  0  0  0  0  0  0  0  0
   -1.9021   -6.4496    1.9611 H   0  0  0  0  0  0  0  0  0  0  0  0
   -3.5460   -6.6887    1.2430 H   0  0  0  0  0  0  0  0  0  0  0  0
   -5.3819   -5.0658    1.7967 H   0  0  0  0  0  0  0  0  0  0  0  0
   -6.3111   -3.4471    3.4316 H   0  0  0  0  0  0  0  0  0  0  0  0
   -4.8502   -2.4806    5.1910 H   0  0  0  0  0  0  0  0  0  0  0  0
   -2.4560   -3.1261    5.3100 H   0  0  0  0  0  0  0  0  0  0  0  0
   -1.5155   -4.7285    3.6620 H   0  0  0  0  0  0  0  0  0  0  0  0
   -1.5832    1.2879    1.2977 H   0  0  0  0  0  0  0  0  0  0  0  0
   -0.5376    2.3130    0.3293 H   0  0  0  0  0  0  0  0  0  0  0  0
    0.0884    1.5971    1.8094 H   0  0  0  0  0  0  0  0  0  0  0  0
  1  2  1  6  0  0  0
  1  8  1  0  0  0  0
  1 20  1  0  0  0  0
  3  1  1  0  0  0  0
  4  3  2  0  0  0  0
  4  6  1  0  0  0  0
  5  4  2  0  0  0  0
  6  7  1  1  0  0  0
  6  8  1  0  0  0  0
  8 22  1  0  0  0  0
  8 23  1  0  0  0  0
  9  6  1  0  0  0  0
  9 10  1  0  0  0  0
 10 11  2  0  0  0  0
 12 10  1  0  0  0  0
 12 13  1  0  0  0  0
 13 26  1  0  0  0  0
 13 14  1  0  0  0  0
 14 19  1  0  0  0  0
 15 14  2  0  0  0  0
 15 16  1  0  0  0  0
 16 17  2  0  0  0  0
 17 18  1  0  0  0  0
 17 30  1  0  0  0  0
 18 31  1  0  0  0  0
 19 32  1  0  0  0  0
 19 18  2  0  0  0  0
 20 33  1  0  0  0  0
 20 35  1  0  0  0  0
 21  7  1  0  0  0  0
 24  9  1  0  0  0  0
 25  9  1  0  0  0  0
 27 13  1  0  0  0  0
 28 15  1  0  0  0  0
 29 16  1  0  0  0  0
 34 20  1  0  0  0  0
M  RAD  1   2   2
M  END
$$$$
