35

S         -0.12470        0.34350       -0.03040
O          1.24960        0.85390       -0.02760
N         -0.91300        0.28110       -1.41040
C         -1.56820       -0.91510       -1.56490
O         -2.29860       -1.21870       -2.48520
C         -1.44810       -1.88060       -0.32230
O         -2.62670       -1.65640        0.45290
C         -0.27390       -1.39480        0.50850
C         -1.35970       -3.33570       -0.76610
C         -1.36160       -4.28320        0.41300
O         -0.69840       -4.12260        1.41280
O         -2.17100       -5.32800        0.20780
C         -2.20030       -6.35460        1.23020
C         -1.09680       -7.36050        1.03420
C          0.13590       -7.20960        1.68670
C          1.16340       -8.13170        1.47520
C          0.97140       -9.21070        0.60740
C         -0.25310       -9.36640       -0.04890
C         -1.28040       -8.44530        0.16480
C         -1.11870        1.30790        1.11080
H         -3.37770       -1.72090       -0.15760
H          0.68450       -1.84530        0.22160
H         -0.42310       -1.48380        1.59010
H         -0.42830       -3.50180       -1.33310
H         -2.19150       -3.55090       -1.44960
H         -3.18630       -6.82220        1.11400
H         -2.13190       -5.87280        2.21440
H          0.28640       -6.35480        2.34850
H          2.11910       -8.00700        1.98980
H          1.77590       -9.93180        0.44340
H         -0.40860      -10.20930       -0.72650
H         -2.23840       -8.56870       -0.34760
H         -2.08040        0.78940        1.21890
H         -1.24070        2.29300        0.64120
H         -0.57700        1.38760        2.06240
