rmsd68.gzmat
 OpenBabel08211713403D

 35 36  0  0  1  0  0  0  0  0999 V2000
    0.0000    0.0000    0.0000 S   0  0  1  0  0  0  0  0  0  0  0  0
    1.4361    0.0000    0.0000 O   0  0  0  0  0  0  0  0  0  0  0  0
   -0.8088    0.0000   -1.4424 N   0  0  0  0  0  0  0  0  0  0  0  0
   -1.6435   -1.0586   -1.5817 C   0  0  0  0  0  0  0  0  0  0  0  0
   -2.3691   -1.3334   -2.5031 O   0  0  0  0  0  0  0  0  0  0  0  0
   -1.6940   -2.0014   -0.2771 C   0  0  2  0  0  0  0  0  0  0  0  0
   -2.9396   -1.7607    0.3307 O   0  0  0  0  0  0  0  0  0  0  0  0
   -0.6516   -1.4996    0.7209 C   0  0  0  0  0  0  0  0  0  0  0  0
   -1.5611   -3.4611   -0.6851 C   0  0  0  0  0  0  0  0  0  0  0  0
   -1.5139   -4.3597    0.5137 C   0  0  0  0  0  0  0  0  0  0  0  0
   -0.8333   -4.2271    1.5000 O   0  0  0  0  0  0  0  0  0  0  0  0
   -2.3536   -5.4057    0.3344 O   0  0  0  0  0  0  0  0  0  0  0  0
   -2.3058   -6.4530    1.3107 C   0  0  0  0  0  0  0  0  0  0  0  0
   -1.1010   -7.3003    1.0410 C   0  0  0  0  0  0  0  0  0  0  0  0
    0.0912   -7.0582    1.7245 C   0  0  0  0  0  0  0  0  0  0  0  0
    1.2258   -7.8106    1.4291 C   0  0  0  0  0  0  0  0  0  0  0  0
    1.1688   -8.8053    0.4541 C   0  0  0  0  0  0  0  0  0  0  0  0
   -0.0247   -9.0518   -0.2230 C   0  0  0  0  0  0  0  0  0  0  0  0
   -1.1605   -8.3002    0.0695 C   0  0  0  0  0  0  0  0  0  0  0  0
   -0.5485    1.3803    0.9508 C   0  0  0  0  0  0  0  0  0  0  0  0
   -3.6740   -1.8946   -0.3135 H   0  0  0  0  0  0  0  0  0  0  0  0
    0.1438   -2.2560    0.9122 H   0  0  0  0  0  0  0  0  0  0  0  0
   -1.1116   -1.3788    1.7232 H   0  0  0  0  0  0  0  0  0  0  0  0
   -0.6452   -3.6246   -1.2990 H   0  0  0  0  0  0  0  0  0  0  0  0
   -2.4003   -3.7395   -1.3697 H   0  0  0  0  0  0  0  0  0  0  0  0
   -3.2649   -6.9762    1.1252 H   0  0  0  0  0  0  0  0  0  0  0  0
   -2.3150   -6.0190    2.3280 H   0  0  0  0  0  0  0  0  0  0  0  0
    0.1373   -6.2688    2.4771 H   0  0  0  0  0  0  0  0  0  0  0  0
    2.1572   -7.6175    1.9577 H   0  0  0  0  0  0  0  0  0  0  0  0
    2.0571   -9.3895    0.2206 H   0  0  0  0  0  0  0  0  0  0  0  0
   -0.0685   -9.8289   -0.9832 H   0  0  0  0  0  0  0  0  0  0  0  0
   -2.0909   -8.4858   -0.4647 H   0  0  0  0  0  0  0  0  0  0  0  0
   -1.6453    1.4206    1.0489 H   0  0  0  0  0  0  0  0  0  0  0  0
   -0.2591    2.3388    0.4846 H   0  0  0  0  0  0  0  0  0  0  0  0
   -0.1242    1.3996    1.9640 H   0  0  0  0  0  0  0  0  0  0  0  0
  1  2  1  6  0  0  0
  1  8  1  0  0  0  0
  1 20  1  0  0  0  0
  3  1  1  0  0  0  0
  4  3  2  0  0  0  0
  4  6  1  0  0  0  0
  5  4  2  0  0  0  0
  6  7  1  1  0  0  0
  6  8  1  0  0  0  0
  8 22  1  0  0  0  0
  8 23  1  0  0  0  0
  9  6  1  0  0  0  0
  9 10  1  0  0  0  0
 10 11  2  0  0  0  0
 12 10  1  0  0  0  0
 12 13  1  0  0  0  0
 13 27  1  0  0  0  0
 14 13  1  0  0  0  0
 14 15  2  0  0  0  0
 15 28  1  0  0  0  0
 16 15  1  0  0  0  0
 16 29  1  0  0  0  0
 17 16  2  0  0  0  0
 18 19  2  0  0  0  0
 18 17  1  0  0  0  0
 19 14  1  0  0  0  0
 20 33  1  0  0  0  0
 20 35  1  0  0  0  0
 21  7  1  0  0  0  0
 24  9  1  0  0  0  0
 25  9  1  0  0  0  0
 26 13  1  0  0  0  0
 30 17  1  0  0  0  0
 31 18  1  0  0  0  0
 32 19  1  0  0  0  0
 34 20  1  0  0  0  0
M  RAD  1   2   2
M  END
$$$$
