rmsd32.gzmat
 OpenBabel08211713403D

 35 36  0  0  1  0  0  0  0  0999 V2000
    0.0000    0.0000    0.0000 S   0  0  1  0  0  0  0  0  0  0  0  0
    1.4352    0.0000    0.0000 O   0  0  0  0  0  0  0  0  0  0  0  0
   -0.8091    0.0000   -1.4419 N   0  0  0  0  0  0  0  0  0  0  0  0
   -1.6221   -1.0723   -1.5952 C   0  0  0  0  0  0  0  0  0  0  0  0
   -2.3549   -1.3453   -2.5116 O   0  0  0  0  0  0  0  0  0  0  0  0
   -1.6304   -2.0492   -0.3154 C   0  0  2  0  0  0  0  0  0  0  0  0
   -2.9038   -1.9264    0.2659 O   0  0  0  0  0  0  0  0  0  0  0  0
   -0.6504   -1.5036    0.7226 C   0  0  0  0  0  0  0  0  0  0  0  0
   -1.3699   -3.4787   -0.7746 C   0  0  0  0  0  0  0  0  0  0  0  0
   -1.3146   -4.4009    0.4062 C   0  0  0  0  0  0  0  0  0  0  0  0
   -0.4144   -4.5021    1.1989 O   0  0  0  0  0  0  0  0  0  0  0  0
   -2.4432   -5.1486    0.4607 O   0  0  0  0  0  0  0  0  0  0  0  0
   -2.6164   -5.9803    1.6076 C   0  0  0  0  0  0  0  0  0  0  0  0
   -2.9658   -5.1589    2.8102 C   0  0  0  0  0  0  0  0  0  0  0  0
   -2.5952   -5.5982    4.0813 C   0  0  0  0  0  0  0  0  0  0  0  0
   -2.9198   -4.8347    5.2004 C   0  0  0  0  0  0  0  0  0  0  0  0
   -3.6088   -3.6322    5.0513 C   0  0  0  0  0  0  0  0  0  0  0  0
   -3.9793   -3.1952    3.7808 C   0  0  0  0  0  0  0  0  0  0  0  0
   -3.6603   -3.9583    2.6603 C   0  0  0  0  0  0  0  0  0  0  0  0
   -0.5490    1.3935    0.9308 C   0  0  0  0  0  0  0  0  0  0  0  0
   -3.6095   -2.0828   -0.4068 H   0  0  0  0  0  0  0  0  0  0  0  0
    0.1543   -2.2359    0.9648 H   0  0  0  0  0  0  0  0  0  0  0  0
   -1.1619   -1.3675    1.6973 H   0  0  0  0  0  0  0  0  0  0  0  0
   -0.4160   -3.5468   -1.3440 H   0  0  0  0  0  0  0  0  0  0  0  0
   -2.1617   -3.7874   -1.4994 H   0  0  0  0  0  0  0  0  0  0  0  0
   -1.7061   -6.5929    1.7560 H   0  0  0  0  0  0  0  0  0  0  0  0
   -3.4604   -6.6277    1.2871 H   0  0  0  0  0  0  0  0  0  0  0  0
   -2.0459   -6.5305    4.2009 H   0  0  0  0  0  0  0  0  0  0  0  0
   -2.6313   -5.1768    6.1921 H   0  0  0  0  0  0  0  0  0  0  0  0
   -3.8594   -3.0353    5.9254 H   0  0  0  0  0  0  0  0  0  0  0  0
   -4.5187   -2.2578    3.6616 H   0  0  0  0  0  0  0  0  0  0  0  0
   -3.9422   -3.6110    1.6646 H   0  0  0  0  0  0  0  0  0  0  0  0
   -1.5788    1.2912    1.3039 H   0  0  0  0  0  0  0  0  0  0  0  0
   -0.5506    2.3116    0.3140 H   0  0  0  0  0  0  0  0  0  0  0  0
    0.0971    1.6149    1.7931 H   0  0  0  0  0  0  0  0  0  0  0  0
  1  2  1  6  0  0  0
  1  8  1  0  0  0  0
  1 20  1  0  0  0  0
  3  1  1  0  0  0  0
  4  3  2  0  0  0  0
  4  6  1  0  0  0  0
  5  4  2  0  0  0  0
  6  7  1  1  0  0  0
  6  8  1  0  0  0  0
  8 22  1  0  0  0  0
  8 23  1  0  0  0  0
  9  6  1  0  0  0  0
  9 10  1  0  0  0  0
 10 12  1  0  0  0  0
 10 11  2  0  0  0  0
 12 13  1  0  0  0  0
 13 26  1  0  0  0  0
 13 14  1  0  0  0  0
 14 15  1  0  0  0  0
 15 28  1  0  0  0  0
 15 16  2  0  0  0  0
 16 29  1  0  0  0  0
 17 16  1  0  0  0  0
 17 30  1  0  0  0  0
 18 17  2  0  0  0  0
 19 14  2  0  0  0  0
 19 18  1  0  0  0  0
 20 33  1  0  0  0  0
 20 35  1  0  0  0  0
 21  7  1  0  0  0  0
 24  9  1  0  0  0  0
 25  9  1  0  0  0  0
 27 13  1  0  0  0  0
 31 18  1  0  0  0  0
 32 19  1  0  0  0  0
 34 20  1  0  0  0  0
M  RAD  1   2   2
M  END
$$$$
