35
rmsd233.gzmat
S          0.00000        0.00000        0.00000
O          1.43530        0.00000        0.00000
N         -0.80640        0.00000       -1.44350
C         -1.63430       -1.06170       -1.58990
O         -2.36610       -1.33370       -2.50740
C         -1.66980       -2.01980       -0.29510
O         -2.93120       -1.82720        0.29570
C         -0.65710       -1.49930        0.72360
C         -1.48260       -3.47000       -0.72500
C         -1.42160       -4.36310        0.47780
O         -0.51290       -4.45530        1.26230
O         -2.55620       -5.09920        0.56690
C         -2.74720       -5.84570        1.76960
C         -3.11990       -4.92410        2.88990
C         -3.87880       -3.78390        2.62250
C         -4.22410       -2.92070        3.65900
C         -3.81610       -3.19820        4.96260
C         -3.06100       -4.33910        5.22870
C         -2.70870       -5.20240        4.19340
C         -0.55040        1.38590        0.94080
H         -3.64950       -1.96080       -0.36820
H          0.14080       -2.24640        0.94250
H         -1.14330       -1.36290        1.71140
H         -0.55490       -3.58970       -1.32800
H         -2.31310       -3.76580       -1.41080
H         -1.83990       -6.44290        1.98290
H         -3.58500       -6.51830        1.48830
H         -4.18850       -3.56360        1.59960
H         -4.81400       -2.03100        3.44870
H         -4.08990       -2.52540        5.77230
H         -2.74550       -4.55740        6.24710
H         -2.10840       -6.08590        4.40330
H         -1.61150        1.31900        1.22710
H         -0.45830        2.32670        0.36760
H          0.03280        1.53870        1.86050
