
     RDKit          3D

 35 36  0  0  0  0  0  0  0  0999 V2000
   -0.0023   -0.0178    0.4214 S   0  0  1  0  0  0  0  0  0  0  0  0
    1.3857    0.3490    0.7205 O   0  0  0  0  0  0  0  0  0  0  0  0
   -0.4999    0.0450   -1.0872 N   0  0  0  0  0  0  0  0  0  0  0  0
   -1.2078   -1.0812   -1.4360 C   0  0  0  0  0  0  0  0  0  0  0  0
   -1.7221   -1.3008   -2.5111 O   0  0  0  0  0  0  0  0  0  0  0  0
   -1.4630   -2.0648   -0.2263 C   0  0  2  0  0  0  0  0  0  0  0  0
   -2.7158   -1.6778    0.3357 O   0  0  0  0  0  0  0  0  0  0  0  0
   -0.4140   -1.7454    0.8248 C   0  0  0  0  0  0  0  0  0  0  0  0
   -1.4936   -3.5277   -0.6915 C   0  0  0  0  0  0  0  0  0  0  0  0
   -2.0238   -4.3820    0.4331 C   0  0  0  0  0  0  0  0  0  0  0  0
   -3.1696   -4.7314    0.5605 O   0  0  0  0  0  0  0  0  0  0  0  0
   -1.0524   -4.6186    1.3442 O   0  0  0  0  0  0  0  0  0  0  0  0
   -1.4677   -5.0128    2.6723 C   0  0  0  0  0  0  0  0  0  0  0  0
   -1.6346   -3.7642    3.5003 C   0  0  0  0  0  0  0  0  0  0  0  0
   -2.8255   -3.0249    3.4316 C   0  0  0  0  0  0  0  0  0  0  0  0
   -2.9258   -1.7890    4.0738 C   0  0  0  0  0  0  0  0  0  0  0  0
   -1.8403   -1.2799    4.7941 C   0  0  0  0  0  0  0  0  0  0  0  0
   -0.6539   -2.0162    4.8776 C   0  0  0  0  0  0  0  0  0  0  0  0
   -0.5542   -3.2515    4.2327 C   0  0  0  0  0  0  0  0  0  0  0  0
   -1.1046    0.9907    1.4148 C   0  0  0  0  0  0  0  0  0  0  0  0
   -3.3913   -1.7838   -0.3514 H   0  0  0  0  0  0  0  0  0  0  0  0
    0.5282   -2.2886    0.6807 H   0  0  0  0  0  0  0  0  0  0  0  0
   -0.7554   -1.8423    1.8610 H   0  0  0  0  0  0  0  0  0  0  0  0
   -0.4854   -3.8453   -0.9928 H   0  0  0  0  0  0  0  0  0  0  0  0
   -2.1627   -3.5936   -1.5597 H   0  0  0  0  0  0  0  0  0  0  0  0
   -0.6604   -5.6489    3.0566 H   0  0  0  0  0  0  0  0  0  0  0  0
   -2.3978   -5.5910    2.6002 H   0  0  0  0  0  0  0  0  0  0  0  0
   -3.6606   -3.4084    2.8433 H   0  0  0  0  0  0  0  0  0  0  0  0
   -3.8546   -1.2180    4.0066 H   0  0  0  0  0  0  0  0  0  0  0  0
   -1.9212   -0.3134    5.2976 H   0  0  0  0  0  0  0  0  0  0  0  0
    0.1953   -1.6265    5.4438 H   0  0  0  0  0  0  0  0  0  0  0  0
    0.3790   -3.8189    4.2841 H   0  0  0  0  0  0  0  0  0  0  0  0
   -2.1167    0.5872    1.2844 H   0  0  0  0  0  0  0  0  0  0  0  0
   -1.0158    2.0111    1.0192 H   0  0  0  0  0  0  0  0  0  0  0  0
   -0.7704    0.9355    2.4591 H   0  0  0  0  0  0  0  0  0  0  0  0
  1  2  2  0
  1  3  2  0
  1  8  1  0
  1 20  1  1
  3  4  1  0
  4  5  2  0
  4  6  1  0
  6  7  1  1
  6  8  1  0
  6  9  1  0
  7 21  1  0
  8 22  1  0
  8 23  1  0
  9 10  1  0
  9 24  1  0
  9 25  1  0
 10 11  2  0
 10 12  1  0
 12 13  1  0
 13 14  1  0
 13 26  1  0
 13 27  1  0
 14 15  2  0
 14 19  1  0
 15 16  1  0
 15 28  1  0
 16 17  2  0
 16 29  1  0
 17 18  1  0
 17 30  1  0
 18 19  2  0
 18 31  1  0
 19 32  1  0
 20 33  1  0
 20 34  1  0
 20 35  1  0
M  END

