rmsd172.gzmat
 OpenBabel08211713423D

 21 20  0  0  1  0  0  0  0  0999 V2000
    0.0000    0.0000    0.0000 C   0  0  0  0  0  0  0  0  0  0  0  0
    1.2045    0.0000    0.0000 O   0  0  0  0  0  0  0  0  0  0  0  0
   -0.6860    0.0000   -1.1716 O   0  0  0  0  0  0  0  0  0  0  0  0
   -0.9487   -0.0060    1.1541 C   0  0  0  0  0  0  0  0  0  0  0  0
   -0.2848    0.5356    2.4256 C   0  0  0  0  0  0  0  0  0  0  0  0
    0.2366   -0.5697    3.3475 C   0  0  0  0  0  0  0  0  0  0  0  0
    1.4006   -1.3801    2.7430 C   0  0  1  0  0  0  0  0  0  0  0  0
    1.1260   -1.7426    1.7171 H   0  0  0  0  0  0  0  0  0  0  0  0
    2.6348   -0.4841    2.6373 C   0  0  0  0  0  0  0  0  0  0  0  0
    3.5731   -0.6542    3.3756 O   0  0  0  0  0  0  0  0  0  0  0  0
    1.6287   -2.5664    3.5907 N   0  0  0  0  0  0  0  0  0  0  0  0
   -0.1066   -0.0036   -1.9740 H   0  0  0  0  0  0  0  0  0  0  0  0
   -1.3284   -1.0415    1.3128 H   0  0  0  0  0  0  0  0  0  0  0  0
   -1.8562    0.5866    0.9022 H   0  0  0  0  0  0  0  0  0  0  0  0
   -1.0206    1.1489    2.9865 H   0  0  0  0  0  0  0  0  0  0  0  0
    0.5328    1.2382    2.1659 H   0  0  0  0  0  0  0  0  0  0  0  0
   -0.5830   -1.2749    3.6052 H   0  0  0  0  0  0  0  0  0  0  0  0
    0.5504   -0.1319    4.3162 H   0  0  0  0  0  0  0  0  0  0  0  0
    2.6357    0.3006    1.8723 H   0  0  0  0  0  0  0  0  0  0  0  0
    1.9464   -2.3032    4.5139 H   0  0  0  0  0  0  0  0  0  0  0  0
    2.3294   -3.1729    3.1892 H   0  0  0  0  0  0  0  0  0  0  0  0
  1  4  1  0  0  0  0
  2  1  2  0  0  0  0
  3  1  1  0  0  0  0
  4 13  1  0  0  0  0
  4  5  1  0  0  0  0
  5 15  1  0  0  0  0
  5  6  1  0  0  0  0
  6 17  1  0  0  0  0
  6 18  1  0  0  0  0
  7  8  1  6  0  0  0
  7  6  1  0  0  0  0
  7 11  1  0  0  0  0
  9  7  1  0  0  0  0
  9 10  2  0  0  0  0
 11 20  1  0  0  0  0
 12  3  1  0  0  0  0
 14  4  1  0  0  0  0
 16  5  1  0  0  0  0
 19  9  1  0  0  0  0
 21 11  1  0  0  0  0
M  END
$$$$
