21

C         -0.37470       -0.27120       -0.19350
O          0.79000       -0.47750       -0.43730
O         -1.34170       -0.40090       -1.12170
C         -0.93100        0.17520        1.14140
C          0.10980        0.13210        2.25600
C          0.48430       -1.28940        2.67460
C          1.73600       -1.35410        3.55720
H          1.57080       -0.73970        4.46660
C          1.96160       -2.76000        4.10870
O          1.12620       -3.62670        4.15160
N          2.97780       -0.88910        2.95320
H         -0.90390       -0.66960       -1.94780
H         -1.81200       -0.44670        1.37200
H         -1.32170        1.19700        0.99360
H         -0.26660        0.69140        3.12880
H          1.01110        0.65670        1.90150
H          0.67670       -1.90180        1.77770
H         -0.35290       -1.77280        3.20280
H          3.00530       -2.91730        4.48680
H          3.00990        0.12640        2.90140
H          3.05520       -1.23030        1.99390
