rmsd149.gzmat
 OpenBabel08211713423D

 21 20  0  0  1  0  0  0  0  0999 V2000
    0.0000    0.0000    0.0000 C   0  0  0  0  0  0  0  0  0  0  0  0
    1.2045    0.0000    0.0000 O   0  0  0  0  0  0  0  0  0  0  0  0
   -0.6828    0.0000   -1.1737 O   0  0  0  0  0  0  0  0  0  0  0  0
   -0.9566    0.0144    1.1481 C   0  0  0  0  0  0  0  0  0  0  0  0
   -0.2126    0.0736    2.4846 C   0  0  0  0  0  0  0  0  0  0  0  0
    0.3224   -1.2980    2.9228 C   0  0  0  0  0  0  0  0  0  0  0  0
    1.7882   -1.2072    3.3917 C   0  0  1  0  0  0  0  0  0  0  0  0
    1.9360   -0.2559    3.9793 H   0  0  0  0  0  0  0  0  0  0  0  0
    2.1366   -2.3585    4.3307 C   0  0  0  0  0  0  0  0  0  0  0  0
    1.3375   -2.7732    5.1312 O   0  0  0  0  0  0  0  0  0  0  0  0
    2.7738   -1.1922    2.2933 N   0  0  0  0  0  0  0  0  0  0  0  0
   -0.1030   -0.0014   -1.9753 H   0  0  0  0  0  0  0  0  0  0  0  0
   -1.6257   -0.8736    1.0987 H   0  0  0  0  0  0  0  0  0  0  0  0
   -1.6443    0.8850    1.0432 H   0  0  0  0  0  0  0  0  0  0  0  0
   -0.8890    0.4737    3.2666 H   0  0  0  0  0  0  0  0  0  0  0  0
    0.6139    0.8121    2.4140 H   0  0  0  0  0  0  0  0  0  0  0  0
    0.2382   -2.0386    2.1073 H   0  0  0  0  0  0  0  0  0  0  0  0
   -0.3059   -1.7019    3.7452 H   0  0  0  0  0  0  0  0  0  0  0  0
    3.1507   -2.7719    4.2631 H   0  0  0  0  0  0  0  0  0  0  0  0
    2.5487   -0.4714    1.6154 H   0  0  0  0  0  0  0  0  0  0  0  0
    2.7883   -2.0679    1.7895 H   0  0  0  0  0  0  0  0  0  0  0  0
  1  4  1  0  0  0  0
  2  1  2  0  0  0  0
  3  1  1  0  0  0  0
  4  5  1  0  0  0  0
  5  6  1  0  0  0  0
  5 15  1  0  0  0  0
  6  7  1  0  0  0  0
  6 18  1  0  0  0  0
  7  8  1  1  0  0  0
  7  9  1  0  0  0  0
  9 10  2  0  0  0  0
 11  7  1  0  0  0  0
 12  3  1  0  0  0  0
 13  4  1  0  0  0  0
 14  4  1  0  0  0  0
 16  5  1  0  0  0  0
 17  6  1  0  0  0  0
 19  9  1  0  0  0  0
 20 11  1  0  0  0  0
 21 11  1  0  0  0  0
M  END
$$$$
