rmsd210.gzmat
 OpenBabel08211713423D

 21 20  0  0  1  0  0  0  0  0999 V2000
    0.0000    0.0000    0.0000 C   0  0  0  0  0  0  0  0  0  0  0  0
    1.2046    0.0000    0.0000 O   0  0  0  0  0  0  0  0  0  0  0  0
   -0.6836    0.0000   -1.1731 O   0  0  0  0  0  0  0  0  0  0  0  0
   -0.9540    0.0171    1.1502 C   0  0  0  0  0  0  0  0  0  0  0  0
   -0.2015   -0.0191    2.4824 C   0  0  0  0  0  0  0  0  0  0  0  0
    0.2953   -1.4283    2.8371 C   0  0  0  0  0  0  0  0  0  0  0  0
    1.7524   -1.4017    3.3399 C   0  0  1  0  0  0  0  0  0  0  0  0
    1.9031   -0.5037    4.0057 H   0  0  0  0  0  0  0  0  0  0  0  0
    2.0604   -2.6321    4.1883 C   0  0  0  0  0  0  0  0  0  0  0  0
    1.2237   -3.1206    4.9044 O   0  0  0  0  0  0  0  0  0  0  0  0
    2.7616   -1.3117    2.2665 N   0  0  0  0  0  0  0  0  0  0  0  0
   -0.1040   -0.0057   -1.9747 H   0  0  0  0  0  0  0  0  0  0  0  0
   -1.6722   -0.8292    1.0686 H   0  0  0  0  0  0  0  0  0  0  0  0
   -1.5913    0.9286    1.0842 H   0  0  0  0  0  0  0  0  0  0  0  0
   -0.8596    0.3573    3.2910 H   0  0  0  0  0  0  0  0  0  0  0  0
    0.6471    0.6970    2.4446 H   0  0  0  0  0  0  0  0  0  0  0  0
    0.2131   -2.1106    1.9719 H   0  0  0  0  0  0  0  0  0  0  0  0
   -0.3589   -1.8724    3.6175 H   0  0  0  0  0  0  0  0  0  0  0  0
    3.0788   -3.0358    4.1363 H   0  0  0  0  0  0  0  0  0  0  0  0
    2.5399   -0.5587    1.6231 H   0  0  0  0  0  0  0  0  0  0  0  0
    2.8048   -2.1584    1.7169 H   0  0  0  0  0  0  0  0  0  0  0  0
  1  4  1  0  0  0  0
  2  1  2  0  0  0  0
  3  1  1  0  0  0  0
  4  5  1  0  0  0  0
  5  6  1  0  0  0  0
  5 15  1  0  0  0  0
  6  7  1  0  0  0  0
  6 18  1  0  0  0  0
  7  8  1  1  0  0  0
  7  9  1  0  0  0  0
  9 10  2  0  0  0  0
 11  7  1  0  0  0  0
 12  3  1  0  0  0  0
 13  4  1  0  0  0  0
 14  4  1  0  0  0  0
 16  5  1  0  0  0  0
 17  6  1  0  0  0  0
 19  9  1  0  0  0  0
 20 11  1  0  0  0  0
 21 11  1  0  0  0  0
M  END
$$$$
