21
rmsd172.gzmat
C          0.00000        0.00000        0.00000
O          1.20450        0.00000        0.00000
O         -0.68600        0.00000       -1.17160
C         -0.94870       -0.00600        1.15410
C         -0.28480        0.53560        2.42560
C          0.23660       -0.56970        3.34750
C          1.40060       -1.38010        2.74300
H          1.12600       -1.74260        1.71710
C          2.63480       -0.48410        2.63730
O          3.57310       -0.65420        3.37560
N          1.62870       -2.56640        3.59070
H         -0.10660       -0.00360       -1.97400
H         -1.32840       -1.04150        1.31280
H         -1.85620        0.58660        0.90220
H         -1.02060        1.14890        2.98650
H          0.53280        1.23820        2.16590
H         -0.58300       -1.27490        3.60520
H          0.55040       -0.13190        4.31620
H          2.63570        0.30060        1.87230
H          1.94640       -2.30320        4.51390
H          2.32940       -3.17290        3.18920
