21
rmsd149.gzmat
C          0.00000        0.00000        0.00000
O          1.20450        0.00000        0.00000
O         -0.68280        0.00000       -1.17370
C         -0.95660        0.01440        1.14810
C         -0.21260        0.07360        2.48460
C          0.32240       -1.29800        2.92280
C          1.78820       -1.20720        3.39170
H          1.93600       -0.25590        3.97930
C          2.13660       -2.35850        4.33070
O          1.33750       -2.77320        5.13120
N          2.77380       -1.19220        2.29330
H         -0.10300       -0.00140       -1.97530
H         -1.62570       -0.87360        1.09870
H         -1.64430        0.88500        1.04320
H         -0.88900        0.47370        3.26660
H          0.61390        0.81210        2.41400
H          0.23820       -2.03860        2.10730
H         -0.30590       -1.70190        3.74520
H          3.15070       -2.77190        4.26310
H          2.54870       -0.47140        1.61540
H          2.78830       -2.06790        1.78950
