rmsd238.gzmat
 OpenBabel08211713423D

 21 20  0  0  1  0  0  0  0  0999 V2000
    0.0000    0.0000    0.0000 C   0  0  0  0  0  0  0  0  0  0  0  0
    1.2044    0.0000    0.0000 O   0  0  0  0  0  0  0  0  0  0  0  0
   -0.6830    0.0000   -1.1735 O   0  0  0  0  0  0  0  0  0  0  0  0
   -0.9577    0.0156    1.1473 C   0  0  0  0  0  0  0  0  0  0  0  0
   -0.2145    0.0299    2.4852 C   0  0  0  0  0  0  0  0  0  0  0  0
    0.3058   -1.3590    2.8845 C   0  0  0  0  0  0  0  0  0  0  0  0
    1.7713   -1.2960    3.3581 C   0  0  1  0  0  0  0  0  0  0  0  0
    1.9261   -0.3679    3.9794 H   0  0  0  0  0  0  0  0  0  0  0  0
    2.1119   -2.4816    4.2561 C   0  0  0  0  0  0  0  0  0  0  0  0
    1.3024   -2.9358    5.0241 O   0  0  0  0  0  0  0  0  0  0  0  0
    2.7589   -1.2501    2.2622 N   0  0  0  0  0  0  0  0  0  0  0  0
   -0.1039   -0.0047   -1.9761 H   0  0  0  0  0  0  0  0  0  0  0  0
   -1.6495   -0.8533    1.0799 H   0  0  0  0  0  0  0  0  0  0  0  0
   -1.6218    0.9062    1.0586 H   0  0  0  0  0  0  0  0  0  0  0  0
   -0.8871    0.4154    3.2776 H   0  0  0  0  0  0  0  0  0  0  0  0
    0.6199    0.7615    2.4350 H   0  0  0  0  0  0  0  0  0  0  0  0
    0.2158   -2.0754    2.0484 H   0  0  0  0  0  0  0  0  0  0  0  0
   -0.3280   -1.7811    3.6934 H   0  0  0  0  0  0  0  0  0  0  0  0
    3.1316   -2.8809    4.1913 H   0  0  0  0  0  0  0  0  0  0  0  0
    2.5424   -0.5041    1.6093 H   0  0  0  0  0  0  0  0  0  0  0  0
    2.7652   -2.1068    1.7267 H   0  0  0  0  0  0  0  0  0  0  0  0
  1  4  1  0  0  0  0
  2  1  2  0  0  0  0
  3  1  1  0  0  0  0
  4  5  1  0  0  0  0
  5  6  1  0  0  0  0
  5 15  1  0  0  0  0
  6  7  1  0  0  0  0
  6 18  1  0  0  0  0
  7  8  1  1  0  0  0
  7  9  1  0  0  0  0
  9 10  2  0  0  0  0
 11  7  1  0  0  0  0
 12  3  1  0  0  0  0
 13  4  1  0  0  0  0
 14  4  1  0  0  0  0
 16  5  1  0  0  0  0
 17  6  1  0  0  0  0
 19  9  1  0  0  0  0
 20 11  1  0  0  0  0
 21 11  1  0  0  0  0
M  END
$$$$
