21

C         -0.05120        0.00420       -0.02500
O          1.14560        0.17110       -0.01920
O         -0.72320       -0.33510       -1.14070
C         -0.97940        0.16850        1.15560
C         -0.28810        0.42740        2.49600
C          0.18760       -0.82640        3.24120
C          1.35440       -1.64140        2.64020
H          1.12080       -1.87260        1.58680
C          2.63350       -0.80580        2.63950
O          3.56470       -1.04500        3.37230
N          1.48710       -2.89080        3.37350
H         -0.06780       -0.39660       -1.85700
H         -1.63650       -0.71670        1.19880
H         -1.64750        1.00720        0.89300
H         -1.01120        0.93960        3.15010
H          0.53930        1.13760        2.34200
H         -0.65200       -1.53190        3.35250
H          0.47910       -0.53780        4.26690
H          2.65790        0.05090        1.92510
H          1.88240       -2.67860        4.29290
H          2.20060       -3.46700        2.92470
