
     RDKit          3D

 21 20  0  0  0  0  0  0  0  0999 V2000
   -0.3747   -0.2712   -0.1935 C   0  0  0  0  0  0  0  0  0  0  0  0
    0.7900   -0.4775   -0.4373 O   0  0  0  0  0  0  0  0  0  0  0  0
   -1.3417   -0.4009   -1.1217 O   0  0  0  0  0  0  0  0  0  0  0  0
   -0.9310    0.1752    1.1414 C   0  0  0  0  0  0  0  0  0  0  0  0
    0.1098    0.1321    2.2560 C   0  0  0  0  0  0  0  0  0  0  0  0
    0.4843   -1.2894    2.6746 C   0  0  0  0  0  0  0  0  0  0  0  0
    1.7360   -1.3541    3.5572 C   0  0  1  0  0  0  0  0  0  0  0  0
    1.5708   -0.7397    4.4666 H   0  0  0  0  0  0  0  0  0  0  0  0
    1.9616   -2.7600    4.1087 C   0  0  0  0  0  0  0  0  0  0  0  0
    1.1262   -3.6267    4.1516 O   0  0  0  0  0  0  0  0  0  0  0  0
    2.9778   -0.8891    2.9532 N   0  0  0  0  0  0  0  0  0  0  0  0
   -0.9039   -0.6696   -1.9478 H   0  0  0  0  0  0  0  0  0  0  0  0
   -1.8120   -0.4467    1.3720 H   0  0  0  0  0  0  0  0  0  0  0  0
   -1.3217    1.1970    0.9936 H   0  0  0  0  0  0  0  0  0  0  0  0
   -0.2666    0.6914    3.1288 H   0  0  0  0  0  0  0  0  0  0  0  0
    1.0111    0.6567    1.9015 H   0  0  0  0  0  0  0  0  0  0  0  0
    0.6767   -1.9018    1.7777 H   0  0  0  0  0  0  0  0  0  0  0  0
   -0.3529   -1.7728    3.2028 H   0  0  0  0  0  0  0  0  0  0  0  0
    3.0053   -2.9173    4.4868 H   0  0  0  0  0  0  0  0  0  0  0  0
    3.0099    0.1264    2.9014 H   0  0  0  0  0  0  0  0  0  0  0  0
    3.0552   -1.2303    1.9939 H   0  0  0  0  0  0  0  0  0  0  0  0
  1  2  2  0
  1  3  1  0
  1  4  1  0
  3 12  1  0
  4  5  1  0
  4 13  1  0
  4 14  1  0
  5  6  1  0
  5 15  1  0
  5 16  1  0
  6  7  1  0
  6 17  1  0
  6 18  1  0
  7  8  1  1
  7  9  1  0
  7 11  1  0
  9 10  2  0
  9 19  1  0
 11 20  1  0
 11 21  1  0
M  END

