21
rmsd169.gzmat
C          0.00000        0.00000        0.00000
O          1.20450        0.00000        0.00000
O         -0.68660        0.00000       -1.17170
C         -0.95000        0.00140        1.15290
C         -0.21580       -0.15370        2.48810
C         -0.00820       -1.61480        2.89610
C          0.99130       -2.37470        2.00170
H          0.69690       -2.27380        0.92380
C          2.39090       -1.78730        2.18810
O          3.25570       -2.44340        2.71290
N          0.92560       -3.80850        2.34520
H         -0.10770        0.00250       -1.97410
H         -1.71180       -0.80060        1.02100
H         -1.53680        0.94770        1.13680
H         -0.79940        0.35680        3.28310
H          0.75500        0.38260        2.45550
H         -0.97620       -2.16080        2.87860
H          0.32660       -1.66310        3.95170
H          2.57500       -0.76930        1.82570
H          1.24090       -3.97540        3.29160
H          1.50910       -4.35800        1.72950
