29
rmsd128.gzmat
S          0.00000        0.00000        0.00000
N          1.76710        0.00000        0.00000
C          2.20020        0.00000        1.21150
N          1.22400        0.00380        2.26430
C         -0.10150        0.01260        1.81560
N         -1.08700        0.02690        2.64810
C         -2.43550        0.01760        2.19370
O         -2.74070       -0.08990        1.01830
N         -3.33860        0.18650        3.21570
C         -4.76260       -0.02930        2.93110
C         -5.14250       -1.47090        3.15420
C         -5.88220       -1.84150        4.27620
C         -6.20730       -3.18160        4.47990
C         -5.79160       -4.14840        3.56670
C         -5.05590       -3.77530        2.44240
C         -4.73400       -2.43710        2.23330
C          1.75940        0.00140        3.56590
C          3.10950       -0.00240        3.57540
S          3.81550       -0.00380        1.94850
H         -3.03620        0.12780        4.17760
H         -4.98090        0.27040        1.87260
H         -5.35260        0.66040        3.57840
H         -6.20660       -1.09150        4.99370
H         -6.78490       -3.47290        5.35440
H         -6.04090       -5.19480        3.73080
H         -4.73130       -4.52970        1.72800
H         -4.15690       -2.13950        1.35360
H          1.06200        0.00190        4.40360
H          3.75190       -0.00540        4.43880
