rmsd100.gzmat
 OpenBabel08211713393D

 29 31  0  0  0  0  0  0  0  0999 V2000
    0.0000    0.0000    0.0000 S   0  0  0  0  0  0  0  0  0  0  0  0
    1.7671    0.0000    0.0000 N   0  0  0  0  0  0  0  0  0  0  0  0
    2.2000    0.0000    1.2116 C   0  0  0  0  0  0  0  0  0  0  0  0
    1.2235    0.0042    2.2639 N   0  0  0  0  0  0  0  0  0  0  0  0
   -0.1020    0.0099    1.8153 C   0  0  0  0  0  0  0  0  0  0  0  0
   -1.0869    0.0195    2.6482 N   0  0  0  0  0  0  0  0  0  0  0  0
   -2.4356   -0.0024    2.1949 C   0  0  0  0  0  0  0  0  0  0  0  0
   -2.7394   -0.0999    1.0181 O   0  0  0  0  0  0  0  0  0  0  0  0
   -3.3404    0.1363    3.2200 N   0  0  0  0  0  0  0  0  0  0  0  0
   -4.7605   -0.1025    2.9356 C   0  0  0  0  0  0  0  0  0  0  0  0
   -5.1232   -1.5469    3.1685 C   0  0  0  0  0  0  0  0  0  0  0  0
   -5.9236   -1.9064    4.2515 C   0  0  0  0  0  0  0  0  0  0  0  0
   -6.2419   -3.2468    4.4630 C   0  0  0  0  0  0  0  0  0  0  0  0
   -5.7583   -4.2256    3.5971 C   0  0  0  0  0  0  0  0  0  0  0  0
   -4.9590   -3.8642    2.5128 C   0  0  0  0  0  0  0  0  0  0  0  0
   -4.6443   -2.5259    2.2954 C   0  0  0  0  0  0  0  0  0  0  0  0
    1.7584   -0.0031    3.5657 C   0  0  0  0  0  0  0  0  0  0  0  0
    3.1082   -0.0101    3.5760 C   0  0  0  0  0  0  0  0  0  0  0  0
    3.8151   -0.0076    1.9496 S   0  0  0  0  0  0  0  0  0  0  0  0
   -3.0354    0.0709    4.1808 H   0  0  0  0  0  0  0  0  0  0  0  0
   -4.9831    0.1855    1.8745 H   0  0  0  0  0  0  0  0  0  0  0  0
   -5.3605    0.5838    3.5777 H   0  0  0  0  0  0  0  0  0  0  0  0
   -6.3023   -1.1476    4.9325 H   0  0  0  0  0  0  0  0  0  0  0  0
   -6.8678   -3.5283    5.3060 H   0  0  0  0  0  0  0  0  0  0  0  0
   -6.0048   -5.2715    3.7662 H   0  0  0  0  0  0  0  0  0  0  0  0
   -4.5816   -4.6281    1.8356 H   0  0  0  0  0  0  0  0  0  0  0  0
   -4.0215   -2.2376    1.4442 H   0  0  0  0  0  0  0  0  0  0  0  0
    1.0604   -0.0044    4.4031 H   0  0  0  0  0  0  0  0  0  0  0  0
    3.7502   -0.0169    4.4396 H   0  0  0  0  0  0  0  0  0  0  0  0
  1  5  1  0  0  0  0
  2  1  1  0  0  0  0
  2  3  2  0  0  0  0
  3 19  1  0  0  0  0
  3  4  1  0  0  0  0
  4 17  1  0  0  0  0
  5  4  1  0  0  0  0
  5  6  2  0  0  0  0
  7  6  1  0  0  0  0
  7  9  1  0  0  0  0
  8  7  2  0  0  0  0
  9 20  1  0  0  0  0
 10 11  1  0  0  0  0
 10  9  1  0  0  0  0
 10 22  1  0  0  0  0
 11 12  2  0  0  0  0
 12 13  1  0  0  0  0
 12 23  1  0  0  0  0
 13 24  1  0  0  0  0
 14 25  1  0  0  0  0
 14 13  2  0  0  0  0
 15 14  1  0  0  0  0
 16 15  2  0  0  0  0
 16 11  1  0  0  0  0
 17 18  2  0  0  0  0
 17 28  1  0  0  0  0
 18 29  1  0  0  0  0
 19 18  1  0  0  0  0
 21 10  1  0  0  0  0
 26 15  1  0  0  0  0
 27 16  1  0  0  0  0
M  END
$$$$
