rmsd52.gzmat
 OpenBabel08211713393D

 29 31  0  0  0  0  0  0  0  0999 V2000
    0.0000    0.0000    0.0000 S   0  0  0  0  0  0  0  0  0  0  0  0
    1.7671    0.0000    0.0000 N   0  0  0  0  0  0  0  0  0  0  0  0
    2.2004    0.0000    1.2114 C   0  0  0  0  0  0  0  0  0  0  0  0
    1.2240   -0.0044    2.2640 N   0  0  0  0  0  0  0  0  0  0  0  0
   -0.1015   -0.0032    1.8154 C   0  0  0  0  0  0  0  0  0  0  0  0
   -1.0869    0.0008    2.6481 N   0  0  0  0  0  0  0  0  0  0  0  0
   -2.4351    0.0225    2.1931 C   0  0  0  0  0  0  0  0  0  0  0  0
   -2.7383    0.0645    1.0125 O   0  0  0  0  0  0  0  0  0  0  0  0
   -3.3421   -0.0538    3.2225 N   0  0  0  0  0  0  0  0  0  0  0  0
   -4.7596    0.1815    2.9221 C   0  0  0  0  0  0  0  0  0  0  0  0
   -5.0975    1.6469    3.0300 C   0  0  0  0  0  0  0  0  0  0  0  0
   -4.6859    2.5212    2.0226 C   0  0  0  0  0  0  0  0  0  0  0  0
   -4.9744    3.8794    2.1216 C   0  0  0  0  0  0  0  0  0  0  0  0
   -5.6789    4.3649    3.2228 C   0  0  0  0  0  0  0  0  0  0  0  0
   -6.0942    3.4903    4.2247 C   0  0  0  0  0  0  0  0  0  0  0  0
   -5.8026    2.1302    4.1311 C   0  0  0  0  0  0  0  0  0  0  0  0
    1.7591   -0.0027    3.5656 C   0  0  0  0  0  0  0  0  0  0  0  0
    3.1091    0.0039    3.5757 C   0  0  0  0  0  0  0  0  0  0  0  0
    3.8157    0.0066    1.9492 S   0  0  0  0  0  0  0  0  0  0  0  0
   -3.0378    0.0544    4.1793 H   0  0  0  0  0  0  0  0  0  0  0  0
   -5.3686   -0.4365    3.6224 H   0  0  0  0  0  0  0  0  0  0  0  0
   -4.9884   -0.1941    1.8905 H   0  0  0  0  0  0  0  0  0  0  0  0
   -4.1337    2.1362    1.1608 H   0  0  0  0  0  0  0  0  0  0  0  0
   -4.6492    4.5616    1.3385 H   0  0  0  0  0  0  0  0  0  0  0  0
   -5.9050    5.4264    3.2986 H   0  0  0  0  0  0  0  0  0  0  0  0
   -6.6463    3.8691    5.0821 H   0  0  0  0  0  0  0  0  0  0  0  0
   -6.1264    1.4529    4.9182 H   0  0  0  0  0  0  0  0  0  0  0  0
    1.0613   -0.0062    4.4026 H   0  0  0  0  0  0  0  0  0  0  0  0
    3.7513    0.0084    4.4392 H   0  0  0  0  0  0  0  0  0  0  0  0
  1  5  1  0  0  0  0
  2  1  1  0  0  0  0
  2  3  2  0  0  0  0
  3 19  1  0  0  0  0
  3  4  1  0  0  0  0
  4 17  1  0  0  0  0
  5  4  1  0  0  0  0
  5  6  2  0  0  0  0
  7  6  1  0  0  0  0
  7  9  1  0  0  0  0
  8  7  2  0  0  0  0
  9 20  1  0  0  0  0
 10 11  1  0  0  0  0
 10  9  1  0  0  0  0
 10 21  1  0  0  0  0
 11 16  2  0  0  0  0
 12 13  2  0  0  0  0
 12 11  1  0  0  0  0
 13 14  1  0  0  0  0
 14 25  1  0  0  0  0
 14 15  2  0  0  0  0
 15 26  1  0  0  0  0
 16 15  1  0  0  0  0
 16 27  1  0  0  0  0
 17 18  2  0  0  0  0
 17 28  1  0  0  0  0
 18 29  1  0  0  0  0
 19 18  1  0  0  0  0
 22 10  1  0  0  0  0
 23 12  1  0  0  0  0
 24 13  1  0  0  0  0
M  END
$$$$
