rmsd78.gzmat
 OpenBabel08211713393D

 29 31  0  0  0  0  0  0  0  0999 V2000
    0.0000    0.0000    0.0000 S   0  0  0  0  0  0  0  0  0  0  0  0
    1.7670    0.0000    0.0000 N   0  0  0  0  0  0  0  0  0  0  0  0
    2.2001    0.0000    1.2116 C   0  0  0  0  0  0  0  0  0  0  0  0
    1.2239   -0.0020    2.2640 N   0  0  0  0  0  0  0  0  0  0  0  0
   -0.1018   -0.0040    1.8153 C   0  0  0  0  0  0  0  0  0  0  0  0
   -1.0865   -0.0057    2.6484 N   0  0  0  0  0  0  0  0  0  0  0  0
   -2.4359    0.0044    2.1959 C   0  0  0  0  0  0  0  0  0  0  0  0
   -2.7425    0.0754    1.0178 O   0  0  0  0  0  0  0  0  0  0  0  0
   -3.3376   -0.1208    3.2249 N   0  0  0  0  0  0  0  0  0  0  0  0
   -4.7617    0.0847    2.9361 C   0  0  0  0  0  0  0  0  0  0  0  0
   -5.1445    1.5330    3.1052 C   0  0  0  0  0  0  0  0  0  0  0  0
   -4.7529    2.4633    2.1408 C   0  0  0  0  0  0  0  0  0  0  0  0
   -5.0895    3.8055    2.2935 C   0  0  0  0  0  0  0  0  0  0  0  0
   -5.8254    4.2184    3.4038 C   0  0  0  0  0  0  0  0  0  0  0  0
   -6.2188    3.2881    4.3640 C   0  0  0  0  0  0  0  0  0  0  0  0
   -5.8764    1.9448    4.2178 C   0  0  0  0  0  0  0  0  0  0  0  0
    1.7588    0.0063    3.5658 C   0  0  0  0  0  0  0  0  0  0  0  0
    3.1087    0.0104    3.5759 C   0  0  0  0  0  0  0  0  0  0  0  0
    3.8153    0.0050    1.9494 S   0  0  0  0  0  0  0  0  0  0  0  0
   -3.0326   -0.0337    4.1838 H   0  0  0  0  0  0  0  0  0  0  0  0
   -5.3502   -0.5807    3.6098 H   0  0  0  0  0  0  0  0  0  0  0  0
   -4.9821   -0.2545    1.8898 H   0  0  0  0  0  0  0  0  0  0  0  0
   -4.1783    2.1343    1.2705 H   0  0  0  0  0  0  0  0  0  0  0  0
   -4.7770    4.5322    1.5461 H   0  0  0  0  0  0  0  0  0  0  0  0
   -6.0921    5.2667    3.5205 H   0  0  0  0  0  0  0  0  0  0  0  0
   -6.7937    3.6104    5.2292 H   0  0  0  0  0  0  0  0  0  0  0  0
   -6.1850    1.2242    4.9716 H   0  0  0  0  0  0  0  0  0  0  0  0
    1.0608    0.0086    4.4029 H   0  0  0  0  0  0  0  0  0  0  0  0
    3.7508    0.0174    4.4396 H   0  0  0  0  0  0  0  0  0  0  0  0
  1  5  1  0  0  0  0
  2  1  1  0  0  0  0
  2  3  2  0  0  0  0
  3 19  1  0  0  0  0
  3  4  1  0  0  0  0
  4 17  1  0  0  0  0
  5  4  1  0  0  0  0
  5  6  2  0  0  0  0
  7  6  1  0  0  0  0
  7  9  1  0  0  0  0
  8  7  2  0  0  0  0
  9 20  1  0  0  0  0
 10 11  1  0  0  0  0
 10  9  1  0  0  0  0
 10 21  1  0  0  0  0
 11 16  2  0  0  0  0
 12 13  2  0  0  0  0
 12 11  1  0  0  0  0
 13 14  1  0  0  0  0
 14 25  1  0  0  0  0
 14 15  2  0  0  0  0
 15 26  1  0  0  0  0
 16 15  1  0  0  0  0
 16 27  1  0  0  0  0
 17 18  2  0  0  0  0
 17 28  1  0  0  0  0
 18 29  1  0  0  0  0
 19 18  1  0  0  0  0
 22 10  1  0  0  0  0
 23 12  1  0  0  0  0
 24 13  1  0  0  0  0
M  END
$$$$
