29
rmsd101.gzmat
S          0.00000        0.00000        0.00000
N          1.76690        0.00000        0.00000
C          2.20010        0.00000        1.21120
N          1.22420        0.00020        2.26420
C         -0.10140        0.00640        1.81550
N         -1.08870        0.01360        2.64610
C         -2.43550        0.03240        2.18470
O         -2.73450       -0.01050        1.00300
N         -3.34220        0.15980        3.20700
C         -4.77270        0.04950        2.90000
C         -5.25370       -1.37390        3.02370
C         -6.03430       -1.76220        4.11180
C         -6.47440       -3.08080        4.21460
C         -6.13380       -4.00920        3.23250
C         -5.35330       -3.61930        2.14440
C         -4.91390       -2.30240        2.03820
C          1.76150        0.01030        3.56520
C          3.11160        0.01200        3.57350
S          3.81620        0.00370        1.94620
H         -3.05230        0.05320        4.16750
H         -4.96030        0.43030        1.86120
H         -5.32610        0.73200        3.58720
H         -6.30290       -1.04100        4.88030
H         -7.08490       -3.38510        5.06200
H         -6.47780       -5.03820        3.31400
H         -5.08810       -4.34440        1.37690
H         -4.30110       -1.99120        1.18750
H          1.06560        0.01520        4.40370
H          3.75500        0.01690        4.43610
