26

S          0.21690        0.16220        0.00660
O          1.69950        0.40730       -0.19230
C         -0.55910       -0.04180       -1.68050
C         -0.83360        1.35710       -2.23780
H         -1.57700        1.28700       -3.05000
C         -1.45730        2.11180       -1.04860
C         -0.58130        1.85670        0.17830
C          0.45940        1.99490       -2.78310
C          0.35270        3.46510       -3.19390
C         -0.69940        3.76300       -4.26480
C         -0.70180        5.22370       -4.71270
H         -1.48430       -0.62070       -1.52770
H          0.15810       -0.64280       -2.25700
H         -1.56470        3.18960       -1.24370
H         -2.47190        1.72020       -0.86840
H          0.30090        2.51010        0.23750
H         -1.12500        1.89710        1.13290
H          0.77690        1.39870       -3.65710
H          1.25970        1.87150       -2.03740
H          1.34050        3.79110       -3.56380
H          0.15570        4.09350       -2.30610
H         -1.70330        3.49750       -3.88940
H         -0.52220        3.10630       -5.13620
H         -0.90510        5.89940       -3.86500
H         -1.46750        5.41370       -5.48130
H          0.27500        5.51280       -5.13470
