rmsd6.gzmat
 OpenBabel08211713413D

 26 26  0  0  1  0  0  0  0  0999 V2000
    0.0000    0.0000    0.0000 S   0  0  2  0  0  0  0  0  0  0  0  0
    1.4819    0.0000    0.0000 O   0  0  0  0  0  0  0  0  0  0  0  0
   -0.5474    0.0000   -1.7564 C   0  0  0  0  0  0  0  0  0  0  0  0
   -0.8472    1.4416   -2.1673 C   0  0  1  0  0  0  0  0  0  0  0  0
   -1.6504    1.4560   -2.9412 H   0  0  0  0  0  0  0  0  0  0  0  0
   -1.3518    2.1813   -0.9058 C   0  0  0  0  0  0  0  0  0  0  0  0
   -0.5246    1.7431    0.2938 C   0  0  0  0  0  0  0  0  0  0  0  0
    0.3939    2.1473   -2.7399 C   0  0  0  0  0  0  0  0  0  0  0  0
    0.7528    1.6288   -4.1371 C   0  0  0  0  0  0  0  0  0  0  0  0
    1.9074    2.4317   -4.7542 C   0  0  0  0  0  0  0  0  0  0  0  0
    3.2058    2.2764   -3.9628 C   0  0  0  0  0  0  0  0  0  0  0  0
   -1.4362   -0.6410   -1.8479 H   0  0  0  0  0  0  0  0  0  0  0  0
    0.2325   -0.4543   -2.3904 H   0  0  0  0  0  0  0  0  0  0  0  0
   -1.2956    3.2761   -1.0485 H   0  0  0  0  0  0  0  0  0  0  0  0
   -2.4253    1.9647   -0.7476 H   0  0  0  0  0  0  0  0  0  0  0  0
    0.3707    2.3771    0.4222 H   0  0  0  0  0  0  0  0  0  0  0  0
   -1.0845    1.8072    1.2367 H   0  0  0  0  0  0  0  0  0  0  0  0
    1.2582    2.0135   -2.0573 H   0  0  0  0  0  0  0  0  0  0  0  0
    0.2183    3.2382   -2.7852 H   0  0  0  0  0  0  0  0  0  0  0  0
   -0.1304    1.6837   -4.8008 H   0  0  0  0  0  0  0  0  0  0  0  0
    1.0278    0.5584   -4.0887 H   0  0  0  0  0  0  0  0  0  0  0  0
    1.6301    3.5009   -4.8188 H   0  0  0  0  0  0  0  0  0  0  0  0
    2.0654    2.0961   -5.7977 H   0  0  0  0  0  0  0  0  0  0  0  0
    3.1447    2.7727   -2.9873 H   0  0  0  0  0  0  0  0  0  0  0  0
    4.0555    2.7105   -4.5002 H   0  0  0  0  0  0  0  0  0  0  0  0
    3.4355    1.2221   -3.7696 H   0  0  0  0  0  0  0  0  0  0  0  0
  1  2  2  6  0  0  0
  1  7  1  0  0  0  0
  3  1  1  0  0  0  0
  4  5  1  6  0  0  0
  4  3  1  0  0  0  0
  4  6  1  0  0  0  0
  6 15  1  0  0  0  0
  6  7  1  0  0  0  0
  7 16  1  0  0  0  0
  7 17  1  0  0  0  0
  8  4  1  0  0  0  0
  8 18  1  0  0  0  0
  9 21  1  0  0  0  0
  9  8  1  0  0  0  0
 10  9  1  0  0  0  0
 10 11  1  0  0  0  0
 11 26  1  0  0  0  0
 11 24  1  0  0  0  0
 12  3  1  0  0  0  0
 13  3  1  0  0  0  0
 14  6  1  0  0  0  0
 19  8  1  0  0  0  0
 20  9  1  0  0  0  0
 22 10  1  0  0  0  0
 23 10  1  0  0  0  0
 25 11  1  0  0  0  0
M  END
$$$$
