26
rmsd3.gzmat
S          0.00000        0.00000        0.00000
O          1.48140        0.00000        0.00000
C         -0.54860        0.00000       -1.75600
C         -0.98330        1.41390       -2.14130
H         -1.84240        1.36210       -2.85180
C         -1.45110        2.12670       -0.84900
C         -0.52720        1.74090        0.29560
C          0.14910        2.21520       -2.80860
C          0.55590        1.67490       -4.18500
C         -0.55950        1.81830       -5.22810
C         -0.07220        1.37000       -6.60660
H         -1.37130       -0.72130       -1.86590
H          0.26950       -0.36830       -2.39870
H         -1.47060        3.22230       -0.99360
H         -2.49780        1.84660       -0.62410
H          0.36420        2.39170        0.33700
H         -1.01210        1.82260        1.27760
H          1.03940        2.22360       -2.14670
H         -0.15710        3.27410       -2.90810
H          0.86700        0.61640       -4.10560
H          1.45660        2.22060       -4.53190
H         -0.90450        2.86820       -5.27160
H         -1.44060        1.22050       -4.92980
H          0.77410        1.97690       -6.94800
H         -0.86580        1.45990       -7.35610
H          0.25510        0.32440       -6.59550
