rmsd14.gzmat
 OpenBabel08211713413D

 26 26  0  0  1  0  0  0  0  0999 V2000
    0.0000    0.0000    0.0000 S   0  0  2  0  0  0  0  0  0  0  0  0
    1.4830    0.0000    0.0000 O   0  0  0  0  0  0  0  0  0  0  0  0
   -0.5322    0.0000   -1.7581 C   0  0  0  0  0  0  0  0  0  0  0  0
   -1.0149    1.3959   -2.1508 C   0  0  1  0  0  0  0  0  0  0  0  0
   -1.9517    1.2893   -2.7572 H   0  0  0  0  0  0  0  0  0  0  0  0
   -1.3712    2.1924   -0.8734 C   0  0  0  0  0  0  0  0  0  0  0  0
   -0.5294    1.7338    0.3083 C   0  0  0  0  0  0  0  0  0  0  0  0
   -0.0020    2.1381   -3.0444 C   0  0  0  0  0  0  0  0  0  0  0  0
    1.3429    2.4278   -2.3721 C   0  0  0  0  0  0  0  0  0  0  0  0
    2.2832    3.1724   -3.3293 C   0  0  0  0  0  0  0  0  0  0  0  0
    3.6169    3.4655   -2.6416 C   0  0  0  0  0  0  0  0  0  0  0  0
   -1.3254   -0.7525   -1.8813 H   0  0  0  0  0  0  0  0  0  0  0  0
    0.3065   -0.3348   -2.3939 H   0  0  0  0  0  0  0  0  0  0  0  0
   -1.2362    3.2766   -1.0512 H   0  0  0  0  0  0  0  0  0  0  0  0
   -2.4488    2.0677   -0.6511 H   0  0  0  0  0  0  0  0  0  0  0  0
    0.3647    2.3688    0.4448 H   0  0  0  0  0  0  0  0  0  0  0  0
   -1.0840    1.7871    1.2568 H   0  0  0  0  0  0  0  0  0  0  0  0
   -0.4528    3.0899   -3.3866 H   0  0  0  0  0  0  0  0  0  0  0  0
    0.1678    1.5425   -3.9635 H   0  0  0  0  0  0  0  0  0  0  0  0
    1.8239    1.4863   -2.0341 H   0  0  0  0  0  0  0  0  0  0  0  0
    1.1974    3.0249   -1.4539 H   0  0  0  0  0  0  0  0  0  0  0  0
    1.8156    4.1156   -3.6681 H   0  0  0  0  0  0  0  0  0  0  0  0
    2.4512    2.5688   -4.2409 H   0  0  0  0  0  0  0  0  0  0  0  0
    3.4815    4.1004   -1.7589 H   0  0  0  0  0  0  0  0  0  0  0  0
    4.3114    3.9751   -3.3175 H   0  0  0  0  0  0  0  0  0  0  0  0
    4.1006    2.5408   -2.3026 H   0  0  0  0  0  0  0  0  0  0  0  0
  1  2  2  6  0  0  0
  1  7  1  0  0  0  0
  3  1  1  0  0  0  0
  4  5  1  6  0  0  0
  4  3  1  0  0  0  0
  4  6  1  0  0  0  0
  6 15  1  0  0  0  0
  6  7  1  0  0  0  0
  7 16  1  0  0  0  0
  7 17  1  0  0  0  0
  8  9  1  0  0  0  0
  8  4  1  0  0  0  0
  9 20  1  0  0  0  0
  9 21  1  0  0  0  0
 10 11  1  0  0  0  0
 10  9  1  0  0  0  0
 11 26  1  0  0  0  0
 11 24  1  0  0  0  0
 12  3  1  0  0  0  0
 13  3  1  0  0  0  0
 14  6  1  0  0  0  0
 18  8  1  0  0  0  0
 19  8  1  0  0  0  0
 22 10  1  0  0  0  0
 23 10  1  0  0  0  0
 25 11  1  0  0  0  0
M  END
$$$$
