26

S          0.22170        0.09270       -0.07770
O          1.69060        0.31810       -0.37840
C         -0.67550        0.00770       -1.70810
C         -0.90810        1.44550       -2.18230
H         -1.69630        1.45310       -2.95660
C         -1.42440        2.17030       -0.92470
C         -0.51910        1.79020        0.25090
C          0.35970        2.09360       -2.76350
C          0.78730        1.52380       -4.11570
C          2.04370        2.19070       -4.67830
C          2.47940        1.62000       -6.02660
H         -1.62180       -0.52410       -1.51690
H         -0.03900       -0.60920       -2.35630
H         -1.45250        3.26230       -1.06770
H         -2.45690        1.84570       -0.71600
H          0.38420        2.41060        0.33690
H         -1.03460        1.76850        1.22160
H          1.18840        1.97430       -2.04800
H          0.17600        3.17710       -2.87380
H         -0.04100        1.62740       -4.84180
H          0.97420        0.43930       -4.02230
H          2.86300        2.08360       -3.94570
H          1.86520        3.27710       -4.77470
H          2.69910        0.54200       -5.95000
H          3.38600        2.11830       -6.40490
H          1.68960        1.74170       -6.78680
