26
rmsd6.gzmat
S          0.00000        0.00000        0.00000
O          1.48190        0.00000        0.00000
C         -0.54740        0.00000       -1.75640
C         -0.84720        1.44160       -2.16730
H         -1.65040        1.45600       -2.94120
C         -1.35180        2.18130       -0.90580
C         -0.52460        1.74310        0.29380
C          0.39390        2.14730       -2.73990
C          0.75280        1.62880       -4.13710
C          1.90740        2.43170       -4.75420
C          3.20580        2.27640       -3.96280
H         -1.43620       -0.64100       -1.84790
H          0.23250       -0.45430       -2.39040
H         -1.29560        3.27610       -1.04850
H         -2.42530        1.96470       -0.74760
H          0.37070        2.37710        0.42220
H         -1.08450        1.80720        1.23670
H          1.25820        2.01350       -2.05730
H          0.21830        3.23820       -2.78520
H         -0.13040        1.68370       -4.80080
H          1.02780        0.55840       -4.08870
H          1.63010        3.50090       -4.81880
H          2.06540        2.09610       -5.79770
H          3.14470        2.77270       -2.98730
H          4.05550        2.71050       -4.50020
H          3.43550        1.22210       -3.76960
