
     RDKit          3D

 26 26  0  0  0  0  0  0  0  0999 V2000
    0.2799   -0.0311   -0.4984 S   0  0  0  0  0  0  0  0  0  0  0  0
    1.6666    0.3108   -1.0072 O   0  0  0  0  0  0  0  0  0  0  0  0
   -0.8889    0.1419   -1.9297 C   0  0  0  0  0  0  0  0  0  0  0  0
   -1.1420    1.6383   -2.1283 C   0  0  1  0  0  0  0  0  0  0  0  0
   -2.0351    1.7672   -2.7629 H   0  0  0  0  0  0  0  0  0  0  0  0
   -1.4494    2.1503   -0.7077 C   0  0  0  0  0  0  0  0  0  0  0  0
   -0.4191    1.5447    0.2568 C   0  0  0  0  0  0  0  0  0  0  0  0
    0.0386    2.3967   -2.7648 C   0  0  0  0  0  0  0  0  0  0  0  0
    0.5716    1.8168   -4.0771 C   0  0  0  0  0  0  0  0  0  0  0  0
   -0.4696    1.6395   -5.1840 C   0  0  0  0  0  0  0  0  0  0  0  0
    0.1364    1.1550   -6.5004 C   0  0  0  0  0  0  0  0  0  0  0  0
   -1.8111   -0.3911   -1.6446 H   0  0  0  0  0  0  0  0  0  0  0  0
   -0.4185   -0.3823   -2.7715 H   0  0  0  0  0  0  0  0  0  0  0  0
   -1.4337    3.2509   -0.6631 H   0  0  0  0  0  0  0  0  0  0  0  0
   -2.4620    1.8298   -0.4142 H   0  0  0  0  0  0  0  0  0  0  0  0
    0.4886    2.1507    0.3849 H   0  0  0  0  0  0  0  0  0  0  0  0
   -0.8299    1.3045    1.2479 H   0  0  0  0  0  0  0  0  0  0  0  0
    0.8744    2.4284   -2.0511 H   0  0  0  0  0  0  0  0  0  0  0  0
   -0.2912    3.4382   -2.9281 H   0  0  0  0  0  0  0  0  0  0  0  0
    1.0699    0.8547   -3.8675 H   0  0  0  0  0  0  0  0  0  0  0  0
    1.3732    2.4813   -4.4443 H   0  0  0  0  0  0  0  0  0  0  0  0
   -0.9957    2.5984   -5.3464 H   0  0  0  0  0  0  0  0  0  0  0  0
   -1.2464    0.9244   -4.8599 H   0  0  0  0  0  0  0  0  0  0  0  0
    0.8851    1.8695   -6.8809 H   0  0  0  0  0  0  0  0  0  0  0  0
   -0.6303    1.0262   -7.2808 H   0  0  0  0  0  0  0  0  0  0  0  0
    0.6467    0.1864   -6.3687 H   0  0  0  0  0  0  0  0  0  0  0  0
  1  2  2  0
  1  3  1  6
  1  7  1  0
  3  4  1  0
  3 12  1  0
  3 13  1  0
  4  5  1  6
  4  6  1  0
  4  8  1  0
  6  7  1  0
  6 14  1  0
  6 15  1  0
  7 16  1  0
  7 17  1  0
  8  9  1  0
  8 18  1  0
  8 19  1  0
  9 10  1  0
  9 20  1  0
  9 21  1  0
 10 11  1  0
 10 22  1  0
 10 23  1  0
 11 24  1  0
 11 25  1  0
 11 26  1  0
M  END

