rmsd9.gzmat
 OpenBabel08211713413D

 26 26  0  0  1  0  0  0  0  0999 V2000
    0.0000    0.0000    0.0000 S   0  0  2  0  0  0  0  0  0  0  0  0
    1.4818    0.0000    0.0000 O   0  0  0  0  0  0  0  0  0  0  0  0
   -0.5505    0.0000   -1.7544 C   0  0  0  0  0  0  0  0  0  0  0  0
   -0.8533    1.4402   -2.1689 C   0  0  1  0  0  0  0  0  0  0  0  0
   -1.6701    1.4501   -2.9291 H   0  0  0  0  0  0  0  0  0  0  0  0
   -1.3396    2.1914   -0.9070 C   0  0  0  0  0  0  0  0  0  0  0  0
   -0.5219    1.7428    0.2951 C   0  0  0  0  0  0  0  0  0  0  0  0
    0.3774    2.1383   -2.7741 C   0  0  0  0  0  0  0  0  0  0  0  0
    0.7061    1.5851   -4.1663 C   0  0  0  0  0  0  0  0  0  0  0  0
    1.9783    2.2213   -4.7439 C   0  0  0  0  0  0  0  0  0  0  0  0
    1.7373    3.6526   -5.2226 C   0  0  0  0  0  0  0  0  0  0  0  0
   -1.4391   -0.6421   -1.8444 H   0  0  0  0  0  0  0  0  0  0  0  0
    0.2295   -0.4560   -2.3876 H   0  0  0  0  0  0  0  0  0  0  0  0
   -1.2636    3.2845   -1.0532 H   0  0  0  0  0  0  0  0  0  0  0  0
   -2.4169    1.9938   -0.7479 H   0  0  0  0  0  0  0  0  0  0  0  0
    0.3753    2.3714    0.4349 H   0  0  0  0  0  0  0  0  0  0  0  0
   -1.0887    1.8019    1.2341 H   0  0  0  0  0  0  0  0  0  0  0  0
    1.2536    2.0235   -2.1049 H   0  0  0  0  0  0  0  0  0  0  0  0
    0.1956    3.2277   -2.8418 H   0  0  0  0  0  0  0  0  0  0  0  0
   -0.1452    1.7496   -4.8520 H   0  0  0  0  0  0  0  0  0  0  0  0
    0.8424    0.4878   -4.1105 H   0  0  0  0  0  0  0  0  0  0  0  0
    2.3463    1.6041   -5.5866 H   0  0  0  0  0  0  0  0  0  0  0  0
    2.7858    2.2050   -3.9860 H   0  0  0  0  0  0  0  0  0  0  0  0
    0.9210    3.6983   -5.9515 H   0  0  0  0  0  0  0  0  0  0  0  0
    2.6316    4.0655   -5.7023 H   0  0  0  0  0  0  0  0  0  0  0  0
    1.4743    4.3140   -4.3899 H   0  0  0  0  0  0  0  0  0  0  0  0
  1  2  2  6  0  0  0
  1  7  1  0  0  0  0
  3  1  1  0  0  0  0
  4  5  1  6  0  0  0
  4  3  1  0  0  0  0
  4  6  1  0  0  0  0
  6 15  1  0  0  0  0
  6  7  1  0  0  0  0
  7 16  1  0  0  0  0
  7 17  1  0  0  0  0
  8  4  1  0  0  0  0
  8 18  1  0  0  0  0
  9 21  1  0  0  0  0
  9  8  1  0  0  0  0
 10  9  1  0  0  0  0
 10 23  1  0  0  0  0
 11 10  1  0  0  0  0
 11 26  1  0  0  0  0
 12  3  1  0  0  0  0
 13  3  1  0  0  0  0
 14  6  1  0  0  0  0
 19  8  1  0  0  0  0
 20  9  1  0  0  0  0
 22 10  1  0  0  0  0
 24 11  1  0  0  0  0
 25 11  1  0  0  0  0
M  END
$$$$
