
     RDKit          3D

 26 26  0  0  0  0  0  0  0  0999 V2000
    0.2217    0.0927   -0.0777 S   0  0  0  0  0  0  0  0  0  0  0  0
    1.6906    0.3181   -0.3784 O   0  0  0  0  0  0  0  0  0  0  0  0
   -0.6755    0.0077   -1.7081 C   0  0  0  0  0  0  0  0  0  0  0  0
   -0.9081    1.4455   -2.1823 C   0  0  1  0  0  0  0  0  0  0  0  0
   -1.6963    1.4531   -2.9566 H   0  0  0  0  0  0  0  0  0  0  0  0
   -1.4244    2.1703   -0.9247 C   0  0  0  0  0  0  0  0  0  0  0  0
   -0.5191    1.7902    0.2509 C   0  0  0  0  0  0  0  0  0  0  0  0
    0.3597    2.0936   -2.7635 C   0  0  0  0  0  0  0  0  0  0  0  0
    0.7873    1.5238   -4.1157 C   0  0  0  0  0  0  0  0  0  0  0  0
    2.0437    2.1907   -4.6783 C   0  0  0  0  0  0  0  0  0  0  0  0
    2.4794    1.6200   -6.0266 C   0  0  0  0  0  0  0  0  0  0  0  0
   -1.6218   -0.5241   -1.5169 H   0  0  0  0  0  0  0  0  0  0  0  0
   -0.0390   -0.6092   -2.3563 H   0  0  0  0  0  0  0  0  0  0  0  0
   -1.4525    3.2623   -1.0677 H   0  0  0  0  0  0  0  0  0  0  0  0
   -2.4569    1.8457   -0.7160 H   0  0  0  0  0  0  0  0  0  0  0  0
    0.3842    2.4106    0.3369 H   0  0  0  0  0  0  0  0  0  0  0  0
   -1.0346    1.7685    1.2216 H   0  0  0  0  0  0  0  0  0  0  0  0
    1.1884    1.9743   -2.0480 H   0  0  0  0  0  0  0  0  0  0  0  0
    0.1760    3.1771   -2.8738 H   0  0  0  0  0  0  0  0  0  0  0  0
   -0.0410    1.6274   -4.8418 H   0  0  0  0  0  0  0  0  0  0  0  0
    0.9742    0.4393   -4.0223 H   0  0  0  0  0  0  0  0  0  0  0  0
    2.8630    2.0836   -3.9457 H   0  0  0  0  0  0  0  0  0  0  0  0
    1.8652    3.2771   -4.7747 H   0  0  0  0  0  0  0  0  0  0  0  0
    2.6991    0.5420   -5.9500 H   0  0  0  0  0  0  0  0  0  0  0  0
    3.3860    2.1183   -6.4049 H   0  0  0  0  0  0  0  0  0  0  0  0
    1.6896    1.7417   -6.7868 H   0  0  0  0  0  0  0  0  0  0  0  0
  1  2  2  0
  1  3  1  6
  1  7  1  0
  3  4  1  0
  3 12  1  0
  3 13  1  0
  4  5  1  6
  4  6  1  0
  4  8  1  0
  6  7  1  0
  6 14  1  0
  6 15  1  0
  7 16  1  0
  7 17  1  0
  8  9  1  0
  8 18  1  0
  8 19  1  0
  9 10  1  0
  9 20  1  0
  9 21  1  0
 10 11  1  0
 10 22  1  0
 10 23  1  0
 11 24  1  0
 11 25  1  0
 11 26  1  0
M  END

