
     RDKit          3D

 26 26  0  0  0  0  0  0  0  0999 V2000
    0.1399   -0.0338   -0.1005 S   0  0  0  0  0  0  0  0  0  0  0  0
    1.6426    0.0609   -0.2727 O   0  0  0  0  0  0  0  0  0  0  0  0
   -0.6637    0.0015   -1.7868 C   0  0  0  0  0  0  0  0  0  0  0  0
   -1.0493    1.4360   -2.1777 C   0  0  1  0  0  0  0  0  0  0  0  0
   -1.9509    1.3755   -2.8103 H   0  0  0  0  0  0  0  0  0  0  0  0
   -1.4451    2.1300   -0.8543 C   0  0  0  0  0  0  0  0  0  0  0  0
   -0.4886    1.6978    0.2585 C   0  0  0  0  0  0  0  0  0  0  0  0
    0.0088    2.1768   -3.0148 C   0  0  0  0  0  0  0  0  0  0  0  0
    1.3255    2.5435   -2.3288 C   0  0  0  0  0  0  0  0  0  0  0  0
    2.3631    3.1049   -3.3024 C   0  0  0  0  0  0  0  0  0  0  0  0
    3.6665    3.5092   -2.6156 C   0  0  0  0  0  0  0  0  0  0  0  0
   -1.5531   -0.6414   -1.6923 H   0  0  0  0  0  0  0  0  0  0  0  0
    0.0588   -0.4872   -2.4559 H   0  0  0  0  0  0  0  0  0  0  0  0
   -1.4559    3.2267   -0.9633 H   0  0  0  0  0  0  0  0  0  0  0  0
   -2.4709    1.8288   -0.5861 H   0  0  0  0  0  0  0  0  0  0  0  0
    0.4452    2.2739    0.2976 H   0  0  0  0  0  0  0  0  0  0  0  0
   -0.9499    1.6941    1.2563 H   0  0  0  0  0  0  0  0  0  0  0  0
   -0.4590    3.0959   -3.4113 H   0  0  0  0  0  0  0  0  0  0  0  0
    0.2280    1.5508   -3.8986 H   0  0  0  0  0  0  0  0  0  0  0  0
    1.7427    1.6667   -1.8060 H   0  0  0  0  0  0  0  0  0  0  0  0
    1.1348    3.2995   -1.5452 H   0  0  0  0  0  0  0  0  0  0  0  0
    1.9381    3.9731   -3.8394 H   0  0  0  0  0  0  0  0  0  0  0  0
    2.5743    2.3466   -4.0783 H   0  0  0  0  0  0  0  0  0  0  0  0
    3.4920    4.2961   -1.8626 H   0  0  0  0  0  0  0  0  0  0  0  0
    4.4046    3.8953   -3.3365 H   0  0  0  0  0  0  0  0  0  0  0  0
    4.1198    2.6511   -2.0934 H   0  0  0  0  0  0  0  0  0  0  0  0
  1  2  2  0
  1  3  1  6
  1  7  1  0
  3  4  1  0
  3 12  1  0
  3 13  1  0
  4  5  1  6
  4  6  1  0
  4  8  1  0
  6  7  1  0
  6 14  1  0
  6 15  1  0
  7 16  1  0
  7 17  1  0
  8  9  1  0
  8 18  1  0
  8 19  1  0
  9 10  1  0
  9 20  1  0
  9 21  1  0
 10 11  1  0
 10 22  1  0
 10 23  1  0
 11 24  1  0
 11 25  1  0
 11 26  1  0
M  END

