26

S          0.13990       -0.03380       -0.10050
O          1.64260        0.06090       -0.27270
C         -0.66370        0.00150       -1.78680
C         -1.04930        1.43600       -2.17770
H         -1.95090        1.37550       -2.81030
C         -1.44510        2.13000       -0.85430
C         -0.48860        1.69780        0.25850
C          0.00880        2.17680       -3.01480
C          1.32550        2.54350       -2.32880
C          2.36310        3.10490       -3.30240
C          3.66650        3.50920       -2.61560
H         -1.55310       -0.64140       -1.69230
H          0.05880       -0.48720       -2.45590
H         -1.45590        3.22670       -0.96330
H         -2.47090        1.82880       -0.58610
H          0.44520        2.27390        0.29760
H         -0.94990        1.69410        1.25630
H         -0.45900        3.09590       -3.41130
H          0.22800        1.55080       -3.89860
H          1.74270        1.66670       -1.80600
H          1.13480        3.29950       -1.54520
H          1.93810        3.97310       -3.83940
H          2.57430        2.34660       -4.07830
H          3.49200        4.29610       -1.86260
H          4.40460        3.89530       -3.33650
H          4.11980        2.65110       -2.09340
