26
rmsd5.gzmat
S          0.00000        0.00000        0.00000
O          1.48190        0.00000        0.00000
C         -0.54530        0.00000       -1.75710
C         -0.80070        1.44940       -2.17740
H         -1.58850        1.47970       -2.96670
C         -1.30990        2.20160       -0.92680
C         -0.52180        1.74350        0.29210
C          0.48110        2.08020       -2.74730
C          0.22630        3.45960       -3.36530
C          1.48100        3.99060       -4.07460
C          2.60860        4.30620       -3.09210
H         -1.45440       -0.61270       -1.84320
H          0.21780       -0.48740       -2.38580
H         -1.21940        3.29500       -1.06730
H         -2.39240        2.01540       -0.79250
H          0.37450        2.36970        0.45160
H         -1.10790        1.80450        1.21920
H          0.91540        1.40870       -3.51300
H          1.25530        2.15620       -1.95750
H         -0.09490        4.17750       -2.58790
H         -0.60930        3.40030       -4.08750
H          1.21940        4.89980       -4.64890
H          1.83080        3.25320       -4.82200
H          2.27360        4.98330       -2.29970
H          3.45580        4.77970       -3.60000
H          2.98550        3.39730       -2.60710
