
     RDKit          3D

 26 26  0  0  0  0  0  0  0  0999 V2000
    0.2614    0.1976   -0.0202 S   0  0  0  0  0  0  0  0  0  0  0  0
    1.7332    0.4721   -0.2588 O   0  0  0  0  0  0  0  0  0  0  0  0
   -0.5565   -0.0058   -1.6866 C   0  0  0  0  0  0  0  0  0  0  0  0
   -0.8487    1.3947   -2.2306 C   0  0  1  0  0  0  0  0  0  0  0  0
   -1.6038    1.3324   -3.0348 H   0  0  0  0  0  0  0  0  0  0  0  0
   -1.4586    2.1351   -1.0245 C   0  0  0  0  0  0  0  0  0  0  0  0
   -0.5621    1.8759    0.1873 C   0  0  0  0  0  0  0  0  0  0  0  0
    0.4259    2.0455   -2.7950 C   0  0  0  0  0  0  0  0  0  0  0  0
    0.2500    3.4825   -3.2844 C   0  0  0  0  0  0  0  0  0  0  0  0
    1.4962    4.0554   -3.9703 C   0  0  0  0  0  0  0  0  0  0  0  0
    2.7120    4.1802   -3.0509 C   0  0  0  0  0  0  0  0  0  0  0  0
   -1.4759   -0.5878   -1.5117 H   0  0  0  0  0  0  0  0  0  0  0  0
    0.1475   -0.6025   -2.2835 H   0  0  0  0  0  0  0  0  0  0  0  0
   -1.5767    3.2134   -1.2094 H   0  0  0  0  0  0  0  0  0  0  0  0
   -2.4673    1.7344   -0.8319 H   0  0  0  0  0  0  0  0  0  0  0  0
    0.3100    2.5428    0.2462 H   0  0  0  0  0  0  0  0  0  0  0  0
   -1.0942    1.8930    1.1490 H   0  0  0  0  0  0  0  0  0  0  0  0
    0.7724    1.4219   -3.6386 H   0  0  0  0  0  0  0  0  0  0  0  0
    1.2246    1.9813   -2.0408 H   0  0  0  0  0  0  0  0  0  0  0  0
   -0.0171    4.1394   -2.4370 H   0  0  0  0  0  0  0  0  0  0  0  0
   -0.6042    3.5276   -3.9845 H   0  0  0  0  0  0  0  0  0  0  0  0
    1.2486    5.0486   -4.3834 H   0  0  0  0  0  0  0  0  0  0  0  0
    1.7536    3.4222   -4.8389 H   0  0  0  0  0  0  0  0  0  0  0  0
    2.4801    4.8039   -2.1708 H   0  0  0  0  0  0  0  0  0  0  0  0
    3.5618    4.6466   -3.5740 H   0  0  0  0  0  0  0  0  0  0  0  0
    3.0502    3.2008   -2.6785 H   0  0  0  0  0  0  0  0  0  0  0  0
  1  2  2  0
  1  3  1  6
  1  7  1  0
  3  4  1  0
  3 12  1  0
  3 13  1  0
  4  5  1  6
  4  6  1  0
  4  8  1  0
  6  7  1  0
  6 14  1  0
  6 15  1  0
  7 16  1  0
  7 17  1  0
  8  9  1  0
  8 18  1  0
  8 19  1  0
  9 10  1  0
  9 20  1  0
  9 21  1  0
 10 11  1  0
 10 22  1  0
 10 23  1  0
 11 24  1  0
 11 25  1  0
 11 26  1  0
M  END

