26
rmsd11.gzmat
S          0.00000        0.00000        0.00000
O          1.48210        0.00000        0.00000
C         -0.54820        0.00000       -1.75670
C         -0.79940        1.45000       -2.17860
H         -1.59300        1.48050       -2.96340
C         -1.30230        2.20460       -0.92780
C         -0.51910        1.74440        0.29320
C          0.48160        2.06600       -2.76710
C          0.30500        3.49860       -3.28480
C         -0.72980        3.63640       -4.41020
C         -0.32360        2.87090       -5.66910
H         -1.46100       -0.60800       -1.83850
H          0.21000       -0.49100       -2.38860
H         -1.20970        3.29740       -1.07070
H         -2.38520        2.01880       -0.79320
H          0.37790        2.36830        0.45820
H         -1.10990        1.80310        1.21780
H          0.84900        1.42250       -3.59140
H          1.29030        2.05230       -2.00700
H          1.28740        3.86790       -3.64340
H          0.02760        4.16700       -2.44720
H         -0.85700        4.70960       -4.65550
H         -1.72140        3.29270       -4.06140
H          0.66810        3.17740       -6.02020
H         -1.03330        3.04490       -6.48550
H         -0.28870        1.79130       -5.48740
