rmsd233.gzmat
 OpenBabel08211713393D

 49 51  0  0  0  0  0  0  0  0999 V2000
    0.0000    0.0000    0.0000 C   0  0  0  0  0  0  0  0  0  0  0  0
    1.5428    0.0000    0.0000 C   0  0  0  0  0  0  0  0  0  0  0  0
    2.0974    0.0000    1.4305 C   0  0  0  0  0  0  0  0  0  0  0  0
    3.4415    0.6862    1.4545 C   0  0  0  0  0  0  0  0  0  0  0  0
    4.4599    0.0343    1.4744 O   0  0  0  0  0  0  0  0  0  0  0  0
    3.4986    2.1697    1.4490 C   0  0  0  0  0  0  0  0  0  0  0  0
    2.3466    2.9587    1.4238 C   0  0  0  0  0  0  0  0  0  0  0  0
    2.4426    4.3470    1.4198 C   0  0  0  0  0  0  0  0  0  0  0  0
    3.7164    4.9140    1.4431 C   0  0  0  0  0  0  0  0  0  0  0  0
    4.8865    4.1560    1.4711 C   0  0  0  0  0  0  0  0  0  0  0  0
    4.7626    2.7703    1.4725 C   0  0  0  0  0  0  0  0  0  0  0  0
    3.8204    6.2341    1.4373 F   0  0  0  0  0  0  0  0  0  0  0  0
   -0.4767    1.3563    0.3644 N   0  0  0  0  0  0  0  0  0  0  0  0
   -0.5652    2.2567   -0.8005 C   0  0  0  0  0  0  0  0  0  0  0  0
   -1.7661    2.0159   -1.7322 C   0  0  0  0  0  0  0  0  0  0  0  0
   -3.1027    1.8104   -0.9938 C   0  0  0  0  0  0  0  0  0  0  0  0
   -3.8344    3.0890   -0.6508 C   0  0  0  0  0  0  0  0  0  0  0  0
   -5.2223    3.1384   -0.8238 C   0  0  0  0  0  0  0  0  0  0  0  0
   -5.9372    4.2864   -0.4950 C   0  0  0  0  0  0  0  0  0  0  0  0
   -5.2307    5.3747    0.0144 C   0  0  0  0  0  0  0  0  0  0  0  0
   -3.8503    5.3583    0.1987 C   0  0  0  0  0  0  0  0  0  0  0  0
   -3.1582    4.1990   -0.1436 C   0  0  0  0  0  0  0  0  0  0  0  0
   -5.9002    6.4718    0.3365 F   0  0  0  0  0  0  0  0  0  0  0  0
   -2.9572    0.9121    0.2506 C   0  0  0  0  0  0  0  0  0  0  0  0
   -1.7531    1.3355    1.1029 C   0  0  0  0  0  0  0  0  0  0  0  0
   -3.9798    1.1497   -1.9027 O   0  0  0  0  0  0  0  0  0  0  0  0
   -0.3775   -0.3330   -0.9888 H   0  0  0  0  0  0  0  0  0  0  0  0
   -0.3698   -0.7426    0.7384 H   0  0  0  0  0  0  0  0  0  0  0  0
    1.9164    0.8794   -0.5618 H   0  0  0  0  0  0  0  0  0  0  0  0
    1.9160   -0.8855   -0.5488 H   0  0  0  0  0  0  0  0  0  0  0  0
    2.1989   -1.0392    1.8044 H   0  0  0  0  0  0  0  0  0  0  0  0
    1.3918    0.4999    2.1251 H   0  0  0  0  0  0  0  0  0  0  0  0
    1.3528    2.4900    1.3984 H   0  0  0  0  0  0  0  0  0  0  0  0
    1.5483    4.9659    1.4008 H   0  0  0  0  0  0  0  0  0  0  0  0
    5.8662    4.6291    1.4918 H   0  0  0  0  0  0  0  0  0  0  0  0
    5.6573    2.1379    1.4922 H   0  0  0  0  0  0  0  0  0  0  0  0
    0.3789    2.1835   -1.3861 H   0  0  0  0  0  0  0  0  0  0  0  0
   -0.5886    3.2986   -0.4019 H   0  0  0  0  0  0  0  0  0  0  0  0
   -1.8682    2.8615   -2.4410 H   0  0  0  0  0  0  0  0  0  0  0  0
   -1.5684    1.1321   -2.3689 H   0  0  0  0  0  0  0  0  0  0  0  0
   -5.7535    2.2705   -1.2265 H   0  0  0  0  0  0  0  0  0  0  0  0
   -7.0157    4.3278   -0.6350 H   0  0  0  0  0  0  0  0  0  0  0  0
   -3.3230    6.2230    0.5955 H   0  0  0  0  0  0  0  0  0  0  0  0
   -2.0757    4.1735   -0.0084 H   0  0  0  0  0  0  0  0  0  0  0  0
   -3.8870    0.9518    0.8497 H   0  0  0  0  0  0  0  0  0  0  0  0
   -2.8546   -0.1429   -0.0605 H   0  0  0  0  0  0  0  0  0  0  0  0
   -1.9182    2.3585    1.5150 H   0  0  0  0  0  0  0  0  0  0  0  0
   -1.6478    0.6659    1.9837 H   0  0  0  0  0  0  0  0  0  0  0  0
   -3.6198    0.2921   -2.1905 H   0  0  0  0  0  0  0  0  0  0  0  0
  1  2  1  0  0  0  0
  1 13  1  0  0  0  0
  1 28  1  0  0  0  0
  2  3  1  0  0  0  0
  3  4  1  0  0  0  0
  3 31  1  0  0  0  0
  3 32  1  0  0  0  0
  4  5  2  0  0  0  0
  6  4  1  0  0  0  0
  6 11  2  0  0  0  0
  7  6  1  0  0  0  0
  8  7  2  0  0  0  0
  8  9  1  0  0  0  0
  9 10  2  0  0  0  0
 10 11  1  0  0  0  0
 10 35  1  0  0  0  0
 11 36  1  0  0  0  0
 12  9  1  0  0  0  0
 13 25  1  0  0  0  0
 14 38  1  0  0  0  0
 14 13  1  0  0  0  0
 15 16  1  0  0  0  0
 15 14  1  0  0  0  0
 16 17  1  0  0  0  0
 16 24  1  0  0  0  0
 17 22  1  0  0  0  0
 18 17  2  0  0  0  0
 18 19  1  0  0  0  0
 19 20  2  0  0  0  0
 20 21  1  0  0  0  0
 20 23  1  0  0  0  0
 21 43  1  0  0  0  0
 22 44  1  0  0  0  0
 22 21  2  0  0  0  0
 24 45  1  0  0  0  0
 24 25  1  0  0  0  0
 25 47  1  0  0  0  0
 25 48  1  0  0  0  0
 26 16  1  0  0  0  0
 27  1  1  0  0  0  0
 29  2  1  0  0  0  0
 30  2  1  0  0  0  0
 33  7  1  0  0  0  0
 34  8  1  0  0  0  0
 37 14  1  0  0  0  0
 39 15  1  0  0  0  0
 40 15  1  0  0  0  0
 41 18  1  0  0  0  0
 42 19  1  0  0  0  0
 46 24  1  0  0  0  0
 49 26  1  0  0  0  0
M  END
$$$$
