rmsd217.gzmat
 OpenBabel08211713393D

 49 51  0  0  0  0  0  0  0  0999 V2000
    0.0000    0.0000    0.0000 C   0  0  0  0  0  0  0  0  0  0  0  0
    1.5433    0.0000    0.0000 C   0  0  0  0  0  0  0  0  0  0  0  0
    2.0981    0.0000    1.4295 C   0  0  0  0  0  0  0  0  0  0  0  0
    3.4194   -0.7259    1.4896 C   0  0  0  0  0  0  0  0  0  0  0  0
    4.4376   -0.1268    1.7465 O   0  0  0  0  0  0  0  0  0  0  0  0
    3.4533   -2.1862    1.2212 C   0  0  0  0  0  0  0  0  0  0  0  0
    4.6908   -2.7633    0.9166 C   0  0  0  0  0  0  0  0  0  0  0  0
    4.7864   -4.1249    0.6456 C   0  0  0  0  0  0  0  0  0  0  0  0
    3.6175   -4.8832    0.7006 C   0  0  0  0  0  0  0  0  0  0  0  0
    2.3718   -4.3402    1.0151 C   0  0  0  0  0  0  0  0  0  0  0  0
    2.3025   -2.9750    1.2761 C   0  0  0  0  0  0  0  0  0  0  0  0
    3.6926   -6.1796    0.4427 F   0  0  0  0  0  0  0  0  0  0  0  0
   -0.4766   -1.3345    0.4365 N   0  0  0  0  0  0  0  0  0  0  0  0
   -1.7495   -1.2757    1.1772 C   0  0  0  0  0  0  0  0  0  0  0  0
   -2.9806   -0.9693    0.3122 C   0  0  0  0  0  0  0  0  0  0  0  0
   -3.0842   -1.8825   -0.9257 C   0  0  0  0  0  0  0  0  0  0  0  0
   -3.7756   -3.1938   -0.6228 C   0  0  0  0  0  0  0  0  0  0  0  0
   -3.1899   -4.1247    0.2367 C   0  0  0  0  0  0  0  0  0  0  0  0
   -3.8228   -5.3325    0.5189 C   0  0  0  0  0  0  0  0  0  0  0  0
   -5.0529   -5.5824   -0.0844 C   0  0  0  0  0  0  0  0  0  0  0  0
   -5.6662   -4.6775   -0.9482 C   0  0  0  0  0  0  0  0  0  0  0  0
   -5.0129   -3.4764   -1.2114 C   0  0  0  0  0  0  0  0  0  0  0  0
   -5.6642   -6.7294    0.1734 F   0  0  0  0  0  0  0  0  0  0  0  0
   -1.7338   -2.0758   -1.6424 C   0  0  0  0  0  0  0  0  0  0  0  0
   -0.5603   -2.2997   -0.6761 C   0  0  0  0  0  0  0  0  0  0  0  0
   -3.9551   -1.2321   -1.8482 O   0  0  0  0  0  0  0  0  0  0  0  0
   -0.3684    0.7816    0.6979 H   0  0  0  0  0  0  0  0  0  0  0  0
   -0.3764    0.2812   -1.0053 H   0  0  0  0  0  0  0  0  0  0  0  0
    1.9133    0.8856   -0.5502 H   0  0  0  0  0  0  0  0  0  0  0  0
    1.9155   -0.8793   -0.5630 H   0  0  0  0  0  0  0  0  0  0  0  0
    1.3768   -0.4754    2.1279 H   0  0  0  0  0  0  0  0  0  0  0  0
    2.2233    1.0399    1.7949 H   0  0  0  0  0  0  0  0  0  0  0  0
    5.5869   -2.1341    0.8962 H   0  0  0  0  0  0  0  0  0  0  0  0
    5.7448   -4.5789    0.4027 H   0  0  0  0  0  0  0  0  0  0  0  0
    1.4793   -4.9606    1.0576 H   0  0  0  0  0  0  0  0  0  0  0  0
    1.3318   -2.5214    1.5160 H   0  0  0  0  0  0  0  0  0  0  0  0
   -1.6579   -0.5212    1.9894 H   0  0  0  0  0  0  0  0  0  0  0  0
   -1.8760   -2.2556    1.6940 H   0  0  0  0  0  0  0  0  0  0  0  0
   -3.9039   -1.0638    0.9160 H   0  0  0  0  0  0  0  0  0  0  0  0
   -2.9536    0.0867   -0.0155 H   0  0  0  0  0  0  0  0  0  0  0  0
   -2.2245   -3.9162    0.6993 H   0  0  0  0  0  0  0  0  0  0  0  0
   -3.3654   -6.0556    1.1907 H   0  0  0  0  0  0  0  0  0  0  0  0
   -6.6273   -4.8985   -1.4085 H   0  0  0  0  0  0  0  0  0  0  0  0
   -5.4777   -2.7524   -1.8892 H   0  0  0  0  0  0  0  0  0  0  0  0
   -1.8111   -2.9278   -2.3463 H   0  0  0  0  0  0  0  0  0  0  0  0
   -1.5309   -1.1950   -2.2802 H   0  0  0  0  0  0  0  0  0  0  0  0
   -0.6213   -3.3179   -0.2267 H   0  0  0  0  0  0  0  0  0  0  0  0
    0.3989   -2.2804   -1.2407 H   0  0  0  0  0  0  0  0  0  0  0  0
   -3.6064   -0.3661   -2.1229 H   0  0  0  0  0  0  0  0  0  0  0  0
  1 13  1  0  0  0  0
  1 27  1  0  0  0  0
  2  1  1  0  0  0  0
  2  3  1  0  0  0  0
  3  4  1  0  0  0  0
  3 32  1  0  0  0  0
  3 31  1  0  0  0  0
  4  5  2  0  0  0  0
  6 11  1  0  0  0  0
  6  4  1  0  0  0  0
  7  6  2  0  0  0  0
  8  9  2  0  0  0  0
  8  7  1  0  0  0  0
  9 10  1  0  0  0  0
 10 35  1  0  0  0  0
 10 11  2  0  0  0  0
 11 36  1  0  0  0  0
 12  9  1  0  0  0  0
 13 14  1  0  0  0  0
 14 38  1  0  0  0  0
 14 37  1  0  0  0  0
 15 39  1  0  0  0  0
 15 14  1  0  0  0  0
 16 17  1  0  0  0  0
 16 15  1  0  0  0  0
 17 18  2  0  0  0  0
 18 19  1  0  0  0  0
 18 41  1  0  0  0  0
 19 42  1  0  0  0  0
 20 23  1  0  0  0  0
 20 19  2  0  0  0  0
 21 20  1  0  0  0  0
 22 21  2  0  0  0  0
 22 17  1  0  0  0  0
 24 16  1  0  0  0  0
 24 25  1  0  0  0  0
 25 47  1  0  0  0  0
 25 13  1  0  0  0  0
 26 16  1  0  0  0  0
 28  1  1  0  0  0  0
 29  2  1  0  0  0  0
 30  2  1  0  0  0  0
 33  7  1  0  0  0  0
 34  8  1  0  0  0  0
 40 15  1  0  0  0  0
 43 21  1  0  0  0  0
 44 22  1  0  0  0  0
 45 24  1  0  0  0  0
 46 24  1  0  0  0  0
 48 25  1  0  0  0  0
 49 26  1  0  0  0  0
M  END
$$$$
