rmsd163.gzmat
 OpenBabel08211713393D

 49 51  0  0  0  0  0  0  0  0999 V2000
    0.0000    0.0000    0.0000 C   0  0  0  0  0  0  0  0  0  0  0  0
    1.5423    0.0000    0.0000 C   0  0  0  0  0  0  0  0  0  0  0  0
    2.0960    0.0000    1.4296 C   0  0  0  0  0  0  0  0  0  0  0  0
    3.4416    0.6806    1.4735 C   0  0  0  0  0  0  0  0  0  0  0  0
    4.4435    0.0468    1.7097 O   0  0  0  0  0  0  0  0  0  0  0  0
    3.5177    2.1409    1.2155 C   0  0  0  0  0  0  0  0  0  0  0  0
    2.3876    2.9600    1.2637 C   0  0  0  0  0  0  0  0  0  0  0  0
    2.4993    4.3267    1.0259 C   0  0  0  0  0  0  0  0  0  0  0  0
    3.7641    4.8391    0.7377 C   0  0  0  0  0  0  0  0  0  0  0  0
    4.9115    4.0486    0.6826 C   0  0  0  0  0  0  0  0  0  0  0  0
    4.7740    2.6865    0.9315 C   0  0  0  0  0  0  0  0  0  0  0  0
    3.8808    6.1373    0.5061 F   0  0  0  0  0  0  0  0  0  0  0  0
   -0.4889    1.3391    0.4114 N   0  0  0  0  0  0  0  0  0  0  0  0
   -0.5304    2.2971   -0.7106 C   0  0  0  0  0  0  0  0  0  0  0  0
   -1.6173    2.0108   -1.7577 C   0  0  0  0  0  0  0  0  0  0  0  0
   -3.0095    1.7855   -1.1354 C   0  0  0  0  0  0  0  0  0  0  0  0
   -3.7618    3.0873   -0.9690 C   0  0  0  0  0  0  0  0  0  0  0  0
   -4.8663    3.3551   -1.7839 C   0  0  0  0  0  0  0  0  0  0  0  0
   -5.5658    4.5522   -1.6585 C   0  0  0  0  0  0  0  0  0  0  0  0
   -5.1316    5.4690   -0.7036 C   0  0  0  0  0  0  0  0  0  0  0  0
   -4.0347    5.2343    0.1225 C   0  0  0  0  0  0  0  0  0  0  0  0
   -3.3526    4.0289   -0.0228 C   0  0  0  0  0  0  0  0  0  0  0  0
   -5.7885    6.6126   -0.5761 F   0  0  0  0  0  0  0  0  0  0  0  0
   -2.9791    0.9402    0.1535 C   0  0  0  0  0  0  0  0  0  0  0  0
   -1.8022    1.2811    1.0800 C   0  0  0  0  0  0  0  0  0  0  0  0
   -3.7795    1.0542   -2.0870 O   0  0  0  0  0  0  0  0  0  0  0  0
   -0.3751   -0.3019   -1.0001 H   0  0  0  0  0  0  0  0  0  0  0  0
   -0.3674   -0.7681    0.7138 H   0  0  0  0  0  0  0  0  0  0  0  0
    1.9177    0.8771   -0.5640 H   0  0  0  0  0  0  0  0  0  0  0  0
    1.9124   -0.8867   -0.5489 H   0  0  0  0  0  0  0  0  0  0  0  0
    2.1854   -1.0380    1.8102 H   0  0  0  0  0  0  0  0  0  0  0  0
    1.3909    0.5101    2.1201 H   0  0  0  0  0  0  0  0  0  0  0  0
    1.4004    2.5307    1.4808 H   0  0  0  0  0  0  0  0  0  0  0  0
    1.6237    4.9710    1.0669 H   0  0  0  0  0  0  0  0  0  0  0  0
    5.8853    4.4788    0.4571 H   0  0  0  0  0  0  0  0  0  0  0  0
    5.6517    2.0315    0.9094 H   0  0  0  0  0  0  0  0  0  0  0  0
    0.4684    2.3177   -1.2011 H   0  0  0  0  0  0  0  0  0  0  0  0
   -0.6738    3.3127   -0.2756 H   0  0  0  0  0  0  0  0  0  0  0  0
   -1.6704    2.8450   -2.4847 H   0  0  0  0  0  0  0  0  0  0  0  0
   -1.3372    1.1270   -2.3610 H   0  0  0  0  0  0  0  0  0  0  0  0
   -5.1889    2.6219   -2.5305 H   0  0  0  0  0  0  0  0  0  0  0  0
   -6.4253    4.7600   -2.2927 H   0  0  0  0  0  0  0  0  0  0  0  0
   -3.7163    5.9681    0.8593 H   0  0  0  0  0  0  0  0  0  0  0  0
   -2.4894    3.8306    0.6131 H   0  0  0  0  0  0  0  0  0  0  0  0
   -3.9372    1.0669    0.6949 H   0  0  0  0  0  0  0  0  0  0  0  0
   -2.9412   -0.1321   -0.1163 H   0  0  0  0  0  0  0  0  0  0  0  0
   -1.9677    2.2702    1.5678 H   0  0  0  0  0  0  0  0  0  0  0  0
   -1.7493    0.5456    1.9130 H   0  0  0  0  0  0  0  0  0  0  0  0
   -3.3824    0.1864   -2.2790 H   0  0  0  0  0  0  0  0  0  0  0  0
  1  2  1  0  0  0  0
  1 13  1  0  0  0  0
  1 28  1  0  0  0  0
  2  3  1  0  0  0  0
  3  4  1  0  0  0  0
  3 31  1  0  0  0  0
  3 32  1  0  0  0  0
  4  5  2  0  0  0  0
  6  7  1  0  0  0  0
  6  4  1  0  0  0  0
  7 33  1  0  0  0  0
  8 34  1  0  0  0  0
  8  7  2  0  0  0  0
  9  8  1  0  0  0  0
 10  9  2  0  0  0  0
 10 11  1  0  0  0  0
 11  6  2  0  0  0  0
 12  9  1  0  0  0  0
 13 25  1  0  0  0  0
 14 38  1  0  0  0  0
 14 13  1  0  0  0  0
 15 16  1  0  0  0  0
 15 14  1  0  0  0  0
 16 17  1  0  0  0  0
 16 24  1  0  0  0  0
 17 22  2  0  0  0  0
 18 19  2  0  0  0  0
 18 17  1  0  0  0  0
 19 20  1  0  0  0  0
 20 23  1  0  0  0  0
 20 21  2  0  0  0  0
 21 43  1  0  0  0  0
 22 21  1  0  0  0  0
 22 44  1  0  0  0  0
 24 45  1  0  0  0  0
 24 25  1  0  0  0  0
 25 47  1  0  0  0  0
 25 48  1  0  0  0  0
 26 16  1  0  0  0  0
 27  1  1  0  0  0  0
 29  2  1  0  0  0  0
 30  2  1  0  0  0  0
 35 10  1  0  0  0  0
 36 11  1  0  0  0  0
 37 14  1  0  0  0  0
 39 15  1  0  0  0  0
 40 15  1  0  0  0  0
 41 18  1  0  0  0  0
 42 19  1  0  0  0  0
 46 24  1  0  0  0  0
 49 26  1  0  0  0  0
M  END
$$$$
