49
rmsd233.gzmat
C          0.00000        0.00000        0.00000
C          1.54280        0.00000        0.00000
C          2.09740        0.00000        1.43050
C          3.44150        0.68620        1.45450
O          4.45990        0.03430        1.47440
C          3.49860        2.16970        1.44900
C          2.34660        2.95870        1.42380
C          2.44260        4.34700        1.41980
C          3.71640        4.91400        1.44310
C          4.88650        4.15600        1.47110
C          4.76260        2.77030        1.47250
F          3.82040        6.23410        1.43730
N         -0.47670        1.35630        0.36440
C         -0.56520        2.25670       -0.80050
C         -1.76610        2.01590       -1.73220
C         -3.10270        1.81040       -0.99380
C         -3.83440        3.08900       -0.65080
C         -5.22230        3.13840       -0.82380
C         -5.93720        4.28640       -0.49500
C         -5.23070        5.37470        0.01440
C         -3.85030        5.35830        0.19870
C         -3.15820        4.19900       -0.14360
F         -5.90020        6.47180        0.33650
C         -2.95720        0.91210        0.25060
C         -1.75310        1.33550        1.10290
O         -3.97980        1.14970       -1.90270
H         -0.37750       -0.33300       -0.98880
H         -0.36980       -0.74260        0.73840
H          1.91640        0.87940       -0.56180
H          1.91600       -0.88550       -0.54880
H          2.19890       -1.03920        1.80440
H          1.39180        0.49990        2.12510
H          1.35280        2.49000        1.39840
H          1.54830        4.96590        1.40080
H          5.86620        4.62910        1.49180
H          5.65730        2.13790        1.49220
H          0.37890        2.18350       -1.38610
H         -0.58860        3.29860       -0.40190
H         -1.86820        2.86150       -2.44100
H         -1.56840        1.13210       -2.36890
H         -5.75350        2.27050       -1.22650
H         -7.01570        4.32780       -0.63500
H         -3.32300        6.22300        0.59550
H         -2.07570        4.17350       -0.00840
H         -3.88700        0.95180        0.84970
H         -2.85460       -0.14290       -0.06050
H         -1.91820        2.35850        1.51500
H         -1.64780        0.66590        1.98370
H         -3.61980        0.29210       -2.19050
