rmsd11.gzmat
 OpenBabel08211713393D

 49 51  0  0  0  0  0  0  0  0999 V2000
    0.0000    0.0000    0.0000 C   0  0  0  0  0  0  0  0  0  0  0  0
    1.5420    0.0000    0.0000 C   0  0  0  0  0  0  0  0  0  0  0  0
    2.0760    0.0000    1.4367 C   0  0  0  0  0  0  0  0  0  0  0  0
    3.5676   -0.2152    1.4226 C   0  0  0  0  0  0  0  0  0  0  0  0
    4.3223    0.7296    1.4325 O   0  0  0  0  0  0  0  0  0  0  0  0
    4.1018   -1.6004    1.4093 C   0  0  0  0  0  0  0  0  0  0  0  0
    3.2878   -2.7091    1.1674 C   0  0  0  0  0  0  0  0  0  0  0  0
    3.8301   -3.9911    1.1655 C   0  0  0  0  0  0  0  0  0  0  0  0
    5.1954   -4.1261    1.4183 C   0  0  0  0  0  0  0  0  0  0  0  0
    6.0352   -3.0394    1.6607 C   0  0  0  0  0  0  0  0  0  0  0  0
    5.4703   -1.7679    1.6490 C   0  0  0  0  0  0  0  0  0  0  0  0
    5.7174   -5.3425    1.4287 F   0  0  0  0  0  0  0  0  0  0  0  0
   -0.4764   -1.3369    0.4326 N   0  0  0  0  0  0  0  0  0  0  0  0
   -1.6998   -1.2606    1.2531 C   0  0  0  0  0  0  0  0  0  0  0  0
   -2.9487   -0.8178    0.4770 C   0  0  0  0  0  0  0  0  0  0  0  0
   -3.1861   -1.6697   -0.7860 C   0  0  0  0  0  0  0  0  0  0  0  0
   -3.9791   -2.9196   -0.4738 C   0  0  0  0  0  0  0  0  0  0  0  0
   -5.3164   -3.0054   -0.8746 C   0  0  0  0  0  0  0  0  0  0  0  0
   -6.0716   -4.1388   -0.5861 C   0  0  0  0  0  0  0  0  0  0  0  0
   -5.4570   -5.1756    0.1131 C   0  0  0  0  0  0  0  0  0  0  0  0
   -4.1280   -5.1222    0.5272 C   0  0  0  0  0  0  0  0  0  0  0  0
   -3.3937   -3.9790    0.2217 C   0  0  0  0  0  0  0  0  0  0  0  0
   -6.1662   -6.2583    0.3966 F   0  0  0  0  0  0  0  0  0  0  0  0
   -1.8963   -1.9518   -1.5824 C   0  0  0  0  0  0  0  0  0  0  0  0
   -0.6742   -2.2597   -0.7007 C   0  0  0  0  0  0  0  0  0  0  0  0
   -4.0417   -0.9192   -1.6452 O   0  0  0  0  0  0  0  0  0  0  0  0
   -0.3676    0.7818    0.6987 H   0  0  0  0  0  0  0  0  0  0  0  0
   -0.3756    0.2854   -1.0046 H   0  0  0  0  0  0  0  0  0  0  0  0
    1.9147    0.8903   -0.5428 H   0  0  0  0  0  0  0  0  0  0  0  0
    1.9198   -0.8795   -0.5564 H   0  0  0  0  0  0  0  0  0  0  0  0
    1.5576   -0.7748    2.0388 H   0  0  0  0  0  0  0  0  0  0  0  0
    1.8444    0.9668    1.9296 H   0  0  0  0  0  0  0  0  0  0  0  0
    2.2166   -2.5805    0.9767 H   0  0  0  0  0  0  0  0  0  0  0  0
    3.2031   -4.8593    0.9743 H   0  0  0  0  0  0  0  0  0  0  0  0
    7.0980   -3.1761    1.8521 H   0  0  0  0  0  0  0  0  0  0  0  0
    6.0964   -0.8864    1.8268 H   0  0  0  0  0  0  0  0  0  0  0  0
   -1.5139   -0.5728    2.1072 H   0  0  0  0  0  0  0  0  0  0  0  0
   -1.8635   -2.2648    1.7074 H   0  0  0  0  0  0  0  0  0  0  0  0
   -3.8421   -0.8679    1.1293 H   0  0  0  0  0  0  0  0  0  0  0  0
   -2.8579    0.2467    0.1916 H   0  0  0  0  0  0  0  0  0  0  0  0
   -5.7794   -2.1783   -1.4225 H   0  0  0  0  0  0  0  0  0  0  0  0
   -7.1115   -4.2069   -0.9000 H   0  0  0  0  0  0  0  0  0  0  0  0
   -3.6731   -5.9454    1.0731 H   0  0  0  0  0  0  0  0  0  0  0  0
   -2.3511   -3.9218    0.5355 H   0  0  0  0  0  0  0  0  0  0  0  0
   -2.0779   -2.7902   -2.2832 H   0  0  0  0  0  0  0  0  0  0  0  0
   -1.6757   -1.0822   -2.2310 H   0  0  0  0  0  0  0  0  0  0  0  0
   -0.7518   -3.2879   -0.2778 H   0  0  0  0  0  0  0  0  0  0  0  0
    0.2471   -2.2606   -1.3251 H   0  0  0  0  0  0  0  0  0  0  0  0
   -3.6444   -0.0653   -1.8908 H   0  0  0  0  0  0  0  0  0  0  0  0
  1 13  1  0  0  0  0
  1 27  1  0  0  0  0
  2  1  1  0  0  0  0
  2  3  1  0  0  0  0
  3 32  1  0  0  0  0
  3 31  1  0  0  0  0
  4  5  2  0  0  0  0
  4  3  1  0  0  0  0
  6  4  1  0  0  0  0
  6 11  2  0  0  0  0
  7  6  1  0  0  0  0
  8  7  2  0  0  0  0
  8  9  1  0  0  0  0
  9 12  1  0  0  0  0
  9 10  2  0  0  0  0
 10 35  1  0  0  0  0
 11 10  1  0  0  0  0
 11 36  1  0  0  0  0
 13 14  1  0  0  0  0
 14 38  1  0  0  0  0
 14 37  1  0  0  0  0
 15 39  1  0  0  0  0
 15 14  1  0  0  0  0
 16 17  1  0  0  0  0
 16 15  1  0  0  0  0
 17 22  2  0  0  0  0
 18 19  2  0  0  0  0
 18 17  1  0  0  0  0
 19 20  1  0  0  0  0
 20 23  1  0  0  0  0
 20 21  2  0  0  0  0
 21 43  1  0  0  0  0
 22 21  1  0  0  0  0
 22 44  1  0  0  0  0
 24 16  1  0  0  0  0
 24 25  1  0  0  0  0
 25 47  1  0  0  0  0
 25 13  1  0  0  0  0
 26 16  1  0  0  0  0
 28  1  1  0  0  0  0
 29  2  1  0  0  0  0
 30  2  1  0  0  0  0
 33  7  1  0  0  0  0
 34  8  1  0  0  0  0
 40 15  1  0  0  0  0
 41 18  1  0  0  0  0
 42 19  1  0  0  0  0
 45 24  1  0  0  0  0
 46 24  1  0  0  0  0
 48 25  1  0  0  0  0
 49 26  1  0  0  0  0
M  END
$$$$
