49
rmsd11.gzmat
C          0.00000        0.00000        0.00000
C          1.54200        0.00000        0.00000
C          2.07600        0.00000        1.43670
C          3.56760       -0.21520        1.42260
O          4.32230        0.72960        1.43250
C          4.10180       -1.60040        1.40930
C          3.28780       -2.70910        1.16740
C          3.83010       -3.99110        1.16550
C          5.19540       -4.12610        1.41830
C          6.03520       -3.03940        1.66070
C          5.47030       -1.76790        1.64900
F          5.71740       -5.34250        1.42870
N         -0.47640       -1.33690        0.43260
C         -1.69980       -1.26060        1.25310
C         -2.94870       -0.81780        0.47700
C         -3.18610       -1.66970       -0.78600
C         -3.97910       -2.91960       -0.47380
C         -5.31640       -3.00540       -0.87460
C         -6.07160       -4.13880       -0.58610
C         -5.45700       -5.17560        0.11310
C         -4.12800       -5.12220        0.52720
C         -3.39370       -3.97900        0.22170
F         -6.16620       -6.25830        0.39660
C         -1.89630       -1.95180       -1.58240
C         -0.67420       -2.25970       -0.70070
O         -4.04170       -0.91920       -1.64520
H         -0.36760        0.78180        0.69870
H         -0.37560        0.28540       -1.00460
H          1.91470        0.89030       -0.54280
H          1.91980       -0.87950       -0.55640
H          1.55760       -0.77480        2.03880
H          1.84440        0.96680        1.92960
H          2.21660       -2.58050        0.97670
H          3.20310       -4.85930        0.97430
H          7.09800       -3.17610        1.85210
H          6.09640       -0.88640        1.82680
H         -1.51390       -0.57280        2.10720
H         -1.86350       -2.26480        1.70740
H         -3.84210       -0.86790        1.12930
H         -2.85790        0.24670        0.19160
H         -5.77940       -2.17830       -1.42250
H         -7.11150       -4.20690       -0.90000
H         -3.67310       -5.94540        1.07310
H         -2.35110       -3.92180        0.53550
H         -2.07790       -2.79020       -2.28320
H         -1.67570       -1.08220       -2.23100
H         -0.75180       -3.28790       -0.27780
H          0.24710       -2.26060       -1.32510
H         -3.64440       -0.06530       -1.89080
