rmsd239.gzmat
 OpenBabel08211713393D

 49 51  0  0  0  0  0  0  0  0999 V2000
    0.0000    0.0000    0.0000 C   0  0  0  0  0  0  0  0  0  0  0  0
    1.5421    0.0000    0.0000 C   0  0  0  0  0  0  0  0  0  0  0  0
    2.0908    0.0000    1.4303 C   0  0  0  0  0  0  0  0  0  0  0  0
    3.4570    0.6306    1.5003 C   0  0  0  0  0  0  0  0  0  0  0  0
    4.3967    0.0250    1.9586 O   0  0  0  0  0  0  0  0  0  0  0  0
    3.6315    2.0145    0.9873 C   0  0  0  0  0  0  0  0  0  0  0  0
    2.5892    2.9428    1.0155 C   0  0  0  0  0  0  0  0  0  0  0  0
    2.7837    4.2290    0.5199 C   0  0  0  0  0  0  0  0  0  0  0  0
    4.0399    4.5480    0.0039 C   0  0  0  0  0  0  0  0  0  0  0  0
    5.1022    3.6452   -0.0287 C   0  0  0  0  0  0  0  0  0  0  0  0
    4.8846    2.3676    0.4786 C   0  0  0  0  0  0  0  0  0  0  0  0
    4.2328    5.7656   -0.4788 F   0  0  0  0  0  0  0  0  0  0  0  0
   -0.4924    1.2837    0.5579 N   0  0  0  0  0  0  0  0  0  0  0  0
   -0.5219    2.3685   -0.4413 C   0  0  0  0  0  0  0  0  0  0  0  0
   -1.6524    2.2795   -1.4824 C   0  0  0  0  0  0  0  0  0  0  0  0
   -3.0303    1.9375   -0.8850 C   0  0  0  0  0  0  0  0  0  0  0  0
   -3.8252    3.1235   -0.3856 C   0  0  0  0  0  0  0  0  0  0  0  0
   -3.2127    4.2221    0.2162 C   0  0  0  0  0  0  0  0  0  0  0  0
   -3.9750    5.2870    0.6925 C   0  0  0  0  0  0  0  0  0  0  0  0
   -5.3576    5.2229    0.5395 C   0  0  0  0  0  0  0  0  0  0  0  0
   -6.0016    4.1434   -0.0631 C   0  0  0  0  0  0  0  0  0  0  0  0
   -5.2181    3.0888   -0.5209 C   0  0  0  0  0  0  0  0  0  0  0  0
   -6.0926    6.2305    0.9869 F   0  0  0  0  0  0  0  0  0  0  0  0
   -2.9474    0.8454    0.2008 C   0  0  0  0  0  0  0  0  0  0  0  0
   -1.8163    1.1439    1.1950 C   0  0  0  0  0  0  0  0  0  0  0  0
   -3.8303    1.4294   -1.9504 O   0  0  0  0  0  0  0  0  0  0  0  0
   -0.3748   -0.1920   -1.0268 H   0  0  0  0  0  0  0  0  0  0  0  0
   -0.3643   -0.8406    0.6295 H   0  0  0  0  0  0  0  0  0  0  0  0
    1.9159    0.8758   -0.5661 H   0  0  0  0  0  0  0  0  0  0  0  0
    1.9107   -0.8873   -0.5486 H   0  0  0  0  0  0  0  0  0  0  0  0
    2.1296   -1.0339    1.8310 H   0  0  0  0  0  0  0  0  0  0  0  0
    1.3984    0.5496    2.1076 H   0  0  0  0  0  0  0  0  0  0  0  0
    1.6107    2.6601    1.4216 H   0  0  0  0  0  0  0  0  0  0  0  0
    1.9795    4.9609    0.5381 H   0  0  0  0  0  0  0  0  0  0  0  0
    6.0730    3.9266   -0.4321 H   0  0  0  0  0  0  0  0  0  0  0  0
    5.6954    1.6324    0.4863 H   0  0  0  0  0  0  0  0  0  0  0  0
    0.4607    2.4047   -0.9634 H   0  0  0  0  0  0  0  0  0  0  0  0
   -0.5975    3.3254    0.1275 H   0  0  0  0  0  0  0  0  0  0  0  0
   -1.7232    3.2318   -2.0440 H   0  0  0  0  0  0  0  0  0  0  0  0
   -1.3919    1.5189   -2.2437 H   0  0  0  0  0  0  0  0  0  0  0  0
   -2.1283    4.2637    0.3209 H   0  0  0  0  0  0  0  0  0  0  0  0
   -3.4988    6.1431    1.1654 H   0  0  0  0  0  0  0  0  0  0  0  0
   -7.0837    4.1235   -0.1773 H   0  0  0  0  0  0  0  0  0  0  0  0
   -5.6953    2.2283   -0.9998 H   0  0  0  0  0  0  0  0  0  0  0  0
   -3.9158    0.7685    0.7302 H   0  0  0  0  0  0  0  0  0  0  0  0
   -2.7941   -0.1414   -0.2714 H   0  0  0  0  0  0  0  0  0  0  0  0
   -2.0285    2.0918    1.7423 H   0  0  0  0  0  0  0  0  0  0  0  0
   -1.7598    0.3496    1.9699 H   0  0  0  0  0  0  0  0  0  0  0  0
   -3.4292    0.6405   -2.3563 H   0  0  0  0  0  0  0  0  0  0  0  0
  1  2  1  0  0  0  0
  1 13  1  0  0  0  0
  1 28  1  0  0  0  0
  2  3  1  0  0  0  0
  3  4  1  0  0  0  0
  3 31  1  0  0  0  0
  3 32  1  0  0  0  0
  4  5  2  0  0  0  0
  6  7  1  0  0  0  0
  6  4  1  0  0  0  0
  7 33  1  0  0  0  0
  8 34  1  0  0  0  0
  8  7  2  0  0  0  0
  9  8  1  0  0  0  0
 10  9  2  0  0  0  0
 10 11  1  0  0  0  0
 11 36  1  0  0  0  0
 11  6  2  0  0  0  0
 12  9  1  0  0  0  0
 13 25  1  0  0  0  0
 14 38  1  0  0  0  0
 14 13  1  0  0  0  0
 15 16  1  0  0  0  0
 15 14  1  0  0  0  0
 16 17  1  0  0  0  0
 16 24  1  0  0  0  0
 17 18  1  0  0  0  0
 18 41  1  0  0  0  0
 18 19  2  0  0  0  0
 19 42  1  0  0  0  0
 20 19  1  0  0  0  0
 20 23  1  0  0  0  0
 21 20  2  0  0  0  0
 22 17  2  0  0  0  0
 22 21  1  0  0  0  0
 24 45  1  0  0  0  0
 24 25  1  0  0  0  0
 25 47  1  0  0  0  0
 25 48  1  0  0  0  0
 26 16  1  0  0  0  0
 27  1  1  0  0  0  0
 29  2  1  0  0  0  0
 30  2  1  0  0  0  0
 35 10  1  0  0  0  0
 37 14  1  0  0  0  0
 39 15  1  0  0  0  0
 40 15  1  0  0  0  0
 43 21  1  0  0  0  0
 44 22  1  0  0  0  0
 46 24  1  0  0  0  0
 49 26  1  0  0  0  0
M  END
$$$$
