49
rmsd18.gzmat
C          0.00000        0.00000        0.00000
C          1.54240        0.00000        0.00000
C          2.08920        0.00000        1.43040
C          3.53020        0.43330        1.47670
O          4.37470       -0.27070        1.97860
C          3.90050        1.74650        0.88640
C          2.99970        2.81280        0.85670
C          3.37090        4.02690        0.28690
C          4.65570        4.13280       -0.24700
C          5.58120        3.09020       -0.21900
C          5.18950        1.88910        0.36510
F          5.01370        5.27850       -0.80560
N         -0.49490        1.23240        0.66080
C         -0.51840        2.39820       -0.24150
C         -1.64040        2.39710       -1.29410
C         -3.02340        2.00230       -0.74010
C         -3.81520        3.16740       -0.18920
C         -5.14470        3.34160       -0.58820
C         -5.90370        4.39410       -0.08420
C         -5.30200        5.25840        0.82840
C         -3.98260        5.11050        1.24960
C         -3.24380        4.05230        0.72660
F         -6.01490        6.26220        1.31790
C         -2.95920        0.84570        0.27700
C         -1.81750        1.03700        1.28510
O         -3.79580        1.55140       -1.85040
H         -0.37370       -0.10890       -1.03930
H         -0.36250       -0.88930        0.56000
H          1.91780        0.87550       -0.56430
H          1.90870       -0.88920       -0.54770
H          1.98170       -1.00620        1.88530
H          1.47620        0.67430        2.07250
H          1.99640        2.69650        1.27890
H          2.67910        4.86600        0.26130
H          6.57980        3.20840       -0.63620
H          5.88940        1.04910        0.42100
H          0.46780        2.47780       -0.75180
H         -0.59800        3.30470        0.40340
H         -1.71100        3.39620       -1.76810
H         -1.37300        1.70850       -2.11860
H         -5.59570        2.64860       -1.30600
H         -6.93650        4.53310       -0.39800
H         -3.53650        5.79810        1.96450
H         -2.20880        3.92380        1.04530
H         -3.92850        0.76210        0.80540
H         -2.83650       -0.11310       -0.25870
H         -2.01840        1.92270        1.93110
H         -1.76310        0.16760        1.97620
H         -3.38920        0.77820       -2.27990
