rmsd194.gzmat
 OpenBabel08211713393D

 49 51  0  0  0  0  0  0  0  0999 V2000
    0.0000    0.0000    0.0000 C   0  0  0  0  0  0  0  0  0  0  0  0
    1.5422    0.0000    0.0000 C   0  0  0  0  0  0  0  0  0  0  0  0
    2.0915    0.0000    1.4303 C   0  0  0  0  0  0  0  0  0  0  0  0
    3.4869   -0.5656    1.4729 C   0  0  0  0  0  0  0  0  0  0  0  0
    4.4157    0.0931    1.8762 O   0  0  0  0  0  0  0  0  0  0  0  0
    3.7000   -1.9547    0.9885 C   0  0  0  0  0  0  0  0  0  0  0  0
    2.7007   -2.9246    1.0876 C   0  0  0  0  0  0  0  0  0  0  0  0
    2.9272   -4.2147    0.6170 C   0  0  0  0  0  0  0  0  0  0  0  0
    4.1696   -4.4940    0.0477 C   0  0  0  0  0  0  0  0  0  0  0  0
    5.1897   -3.5486   -0.0567 C   0  0  0  0  0  0  0  0  0  0  0  0
    4.9428   -2.2688    0.4313 C   0  0  0  0  0  0  0  0  0  0  0  0
    4.3910   -5.7150   -0.4133 F   0  0  0  0  0  0  0  0  0  0  0  0
   -0.4928   -1.2700    0.5874 N   0  0  0  0  0  0  0  0  0  0  0  0
   -1.8349   -1.1254    1.1836 C   0  0  0  0  0  0  0  0  0  0  0  0
   -2.9570   -0.9168    0.1565 C   0  0  0  0  0  0  0  0  0  0  0  0
   -2.9700   -2.0308   -0.9090 C   0  0  0  0  0  0  0  0  0  0  0  0
   -3.7341   -3.2424   -0.4231 C   0  0  0  0  0  0  0  0  0  0  0  0
   -5.0578   -3.4252   -0.8367 C   0  0  0  0  0  0  0  0  0  0  0  0
   -5.7937   -4.5212   -0.3951 C   0  0  0  0  0  0  0  0  0  0  0  0
   -5.1749   -5.4201    0.4714 C   0  0  0  0  0  0  0  0  0  0  0  0
   -3.8608   -5.2650    0.9062 C   0  0  0  0  0  0  0  0  0  0  0  0
   -3.1452   -4.1627    0.4452 C   0  0  0  0  0  0  0  0  0  0  0  0
   -5.8655   -6.4661    0.9011 F   0  0  0  0  0  0  0  0  0  0  0  0
   -1.5653   -2.3549   -1.4525 C   0  0  0  0  0  0  0  0  0  0  0  0
   -0.4721   -2.3903   -0.3713 C   0  0  0  0  0  0  0  0  0  0  0  0
   -3.7391   -1.5564   -2.0120 O   0  0  0  0  0  0  0  0  0  0  0  0
   -0.3639    0.8535    0.6124 H   0  0  0  0  0  0  0  0  0  0  0  0
   -0.3750    0.1701   -1.0306 H   0  0  0  0  0  0  0  0  0  0  0  0
    1.9108    0.8872   -0.5488 H   0  0  0  0  0  0  0  0  0  0  0  0
    1.9159   -0.8782   -0.5629 H   0  0  0  0  0  0  0  0  0  0  0  0
    1.4258   -0.5946    2.0964 H   0  0  0  0  0  0  0  0  0  0  0  0
    2.0824    1.0263    1.8496 H   0  0  0  0  0  0  0  0  0  0  0  0
    1.7312   -2.6729    1.5305 H   0  0  0  0  0  0  0  0  0  0  0  0
    2.1572   -4.9794    0.6948 H   0  0  0  0  0  0  0  0  0  0  0  0
    6.1516   -3.7991   -0.5002 H   0  0  0  0  0  0  0  0  0  0  0  0
    5.7222   -1.5017    0.3851 H   0  0  0  0  0  0  0  0  0  0  0  0
   -1.8152   -0.2824    1.9086 H   0  0  0  0  0  0  0  0  0  0  0  0
   -2.0338   -2.0404    1.7883 H   0  0  0  0  0  0  0  0  0  0  0  0
   -3.9399   -0.8768    0.6637 H   0  0  0  0  0  0  0  0  0  0  0  0
   -2.8447    0.0660   -0.3359 H   0  0  0  0  0  0  0  0  0  0  0  0
   -5.5236   -2.7051   -1.5173 H   0  0  0  0  0  0  0  0  0  0  0  0
   -6.8215   -4.6664   -0.7211 H   0  0  0  0  0  0  0  0  0  0  0  0
   -3.4021   -5.9816    1.5841 H   0  0  0  0  0  0  0  0  0  0  0  0
   -2.1137   -4.0289    0.7743 H   0  0  0  0  0  0  0  0  0  0  0  0
   -1.5963   -3.3251   -1.9870 H   0  0  0  0  0  0  0  0  0  0  0  0
   -1.2972   -1.6103   -2.2261 H   0  0  0  0  0  0  0  0  0  0  0  0
   -0.5527   -3.3286    0.2267 H   0  0  0  0  0  0  0  0  0  0  0  0
    0.5285   -2.4317   -0.8574 H   0  0  0  0  0  0  0  0  0  0  0  0
   -3.3471   -0.7575   -2.4059 H   0  0  0  0  0  0  0  0  0  0  0  0
  1 13  1  0  0  0  0
  1 27  1  0  0  0  0
  2  1  1  0  0  0  0
  2  3  1  0  0  0  0
  3  4  1  0  0  0  0
  3 32  1  0  0  0  0
  3 31  1  0  0  0  0
  4  5  2  0  0  0  0
  6  7  1  0  0  0  0
  6  4  1  0  0  0  0
  7 33  1  0  0  0  0
  8 34  1  0  0  0  0
  8  7  2  0  0  0  0
  9  8  1  0  0  0  0
 10  9  2  0  0  0  0
 10 11  1  0  0  0  0
 11  6  2  0  0  0  0
 12  9  1  0  0  0  0
 13 14  1  0  0  0  0
 14 38  1  0  0  0  0
 14 37  1  0  0  0  0
 15 39  1  0  0  0  0
 15 14  1  0  0  0  0
 16 17  1  0  0  0  0
 16 15  1  0  0  0  0
 17 22  1  0  0  0  0
 18 17  2  0  0  0  0
 18 19  1  0  0  0  0
 19 20  2  0  0  0  0
 20 23  1  0  0  0  0
 20 21  1  0  0  0  0
 21 43  1  0  0  0  0
 22 44  1  0  0  0  0
 22 21  2  0  0  0  0
 24 16  1  0  0  0  0
 24 25  1  0  0  0  0
 25 47  1  0  0  0  0
 25 13  1  0  0  0  0
 26 16  1  0  0  0  0
 28  1  1  0  0  0  0
 29  2  1  0  0  0  0
 30  2  1  0  0  0  0
 35 10  1  0  0  0  0
 36 11  1  0  0  0  0
 40 15  1  0  0  0  0
 41 18  1  0  0  0  0
 42 19  1  0  0  0  0
 45 24  1  0  0  0  0
 46 24  1  0  0  0  0
 48 25  1  0  0  0  0
 49 26  1  0  0  0  0
M  END
$$$$
