rmsd4.gzmat
 OpenBabel08211713383D

 35 37  0  0  0  0  0  0  0  0999 V2000
    0.0000    0.0000    0.0000 O   0  0  0  0  0  0  0  0  0  0  0  0
    1.1967    0.0000    0.0000 C   0  0  0  0  0  0  0  0  0  0  0  0
    1.9358    0.0000    1.2863 N   0  0  0  0  0  0  0  0  0  0  0  0
    3.3147   -0.1800    0.9595 N   0  0  0  0  0  0  0  0  0  0  0  0
    3.9385    0.2234    1.6496 H   0  0  0  0  0  0  0  0  0  0  0  0
    3.4615    0.0207   -0.4109 C   0  0  0  0  0  0  0  0  0  0  0  0
    2.2195    0.0557   -1.0299 C   0  0  0  0  0  0  0  0  0  0  0  0
    2.0236    0.1566   -2.4625 C   0  0  0  0  0  0  0  0  0  0  0  0
    2.9842    0.2135   -3.2058 O   0  0  0  0  0  0  0  0  0  0  0  0
    0.6459    0.2371   -3.0047 C   0  0  0  0  0  0  0  0  0  0  0  0
   -0.3207   -0.7118   -2.6752 C   0  0  0  0  0  0  0  0  0  0  0  0
   -1.6027   -0.6018   -3.2113 C   0  0  0  0  0  0  0  0  0  0  0  0
   -1.9132    0.4538   -4.0671 C   0  0  0  0  0  0  0  0  0  0  0  0
   -0.9406    1.3949   -4.4034 C   0  0  0  0  0  0  0  0  0  0  0  0
    0.3443    1.2834   -3.8779 C   0  0  0  0  0  0  0  0  0  0  0  0
    4.7919    0.0924   -1.0267 C   0  0  0  0  0  0  0  0  0  0  0  0
    1.4496   -0.7954    2.3681 C   0  0  0  0  0  0  0  0  0  0  0  0
    2.2173   -1.7792    3.0009 C   0  0  0  0  0  0  0  0  0  0  0  0
    1.6834   -2.4630    4.0906 C   0  0  0  0  0  0  0  0  0  0  0  0
    0.3958   -2.1790    4.5393 C   0  0  0  0  0  0  0  0  0  0  0  0
   -0.3655   -1.1999    3.9004 C   0  0  0  0  0  0  0  0  0  0  0  0
    0.1521   -0.5000    2.8170 C   0  0  0  0  0  0  0  0  0  0  0  0
   -0.0826   -1.5300   -1.9956 H   0  0  0  0  0  0  0  0  0  0  0  0
   -2.3625   -1.3361   -2.9523 H   0  0  0  0  0  0  0  0  0  0  0  0
   -2.9183    0.5442   -4.4735 H   0  0  0  0  0  0  0  0  0  0  0  0
   -1.1837    2.2140   -5.0758 H   0  0  0  0  0  0  0  0  0  0  0  0
    1.1149    2.0058   -4.1472 H   0  0  0  0  0  0  0  0  0  0  0  0
    5.6297    0.1068   -0.3202 H   0  0  0  0  0  0  0  0  0  0  0  0
    4.8730    0.9822   -1.6882 H   0  0  0  0  0  0  0  0  0  0  0  0
    4.9445   -0.7593   -1.7249 H   0  0  0  0  0  0  0  0  0  0  0  0
    3.2128   -2.0277    2.6428 H   0  0  0  0  0  0  0  0  0  0  0  0
    2.2776   -3.2279    4.5891 H   0  0  0  0  0  0  0  0  0  0  0  0
   -0.0188   -2.7218    5.3856 H   0  0  0  0  0  0  0  0  0  0  0  0
   -1.3737   -0.9801    4.2516 H   0  0  0  0  0  0  0  0  0  0  0  0
   -0.4442    0.2645    2.3128 H   0  0  0  0  0  0  0  0  0  0  0  0
  1  2  2  0  0  0  0
  2  3  1  0  0  0  0
  3 17  1  0  0  0  0
  4  3  1  0  0  0  0
  4  5  1  0  0  0  0
  6  4  1  0  0  0  0
  7  6  2  0  0  0  0
  7  2  1  0  0  0  0
  8  7  1  0  0  0  0
  9  8  2  0  0  0  0
 10 11  1  0  0  0  0
 10  8  1  0  0  0  0
 11 23  1  0  0  0  0
 12 24  1  0  0  0  0
 12 11  2  0  0  0  0
 13 12  1  0  0  0  0
 14 13  2  0  0  0  0
 14 15  1  0  0  0  0
 15 10  2  0  0  0  0
 16  6  1  0  0  0  0
 16 28  1  0  0  0  0
 17 22  2  0  0  0  0
 17 18  1  0  0  0  0
 18 19  2  0  0  0  0
 19 20  1  0  0  0  0
 19 32  1  0  0  0  0
 20 33  1  0  0  0  0
 21 34  1  0  0  0  0
 21 20  2  0  0  0  0
 22 21  1  0  0  0  0
 25 13  1  0  0  0  0
 26 14  1  0  0  0  0
 27 15  1  0  0  0  0
 29 16  1  0  0  0  0
 30 16  1  0  0  0  0
 31 18  1  0  0  0  0
 35 22  1  0  0  0  0
M  END
$$$$
