35
rmsd16.gzmat
O          0.00000        0.00000        0.00000
C          1.19680        0.00000        0.00000
N          1.93340        0.00000        1.28560
N          3.31470        0.15140        0.95930
H          3.93120       -0.25710        1.65250
C          3.46090       -0.05680       -0.41030
C          2.21940       -0.08210       -1.03040
C          2.01460       -0.11530       -2.46630
O          2.96290       -0.00260       -3.21980
C          0.64930       -0.28100       -3.02120
C         -0.23310       -1.23430       -2.51460
C         -1.49180       -1.38560       -3.09410
C         -1.86520       -0.58490       -4.17230
C         -0.97960        0.36500       -4.68010
C          0.28170        0.51400       -4.10910
C          4.80170       -0.15510       -1.00280
C          1.46970        0.79750        2.37530
C          0.16410        0.54030        2.82250
C         -0.32020        1.22690        3.92990
C          0.48090        2.15640        4.59360
C          1.77180        2.41150        4.13810
C          2.27320        1.74090        3.02530
H          0.05370       -1.85630       -1.66680
H         -2.18410       -2.12560       -2.69900
H         -2.84990       -0.70240       -4.62020
H         -1.27150        0.98690       -5.52290
H          0.98740        1.24210       -4.51100
H          5.61320        0.20440       -0.35610
H          4.84830        0.42530       -1.95470
H          5.03590       -1.19370       -1.30270
H         -0.46380       -0.18510        2.30030
H         -1.33410        1.03480        4.28060
H          0.09640        2.68330        5.46380
H          2.39560        3.14310        4.64990
H          3.27310        1.96920        2.66540
