35

O         -0.15880       -0.14690        0.15970
C          1.05800       -0.17930        0.12110
N          1.86750       -0.46550        1.25520
N          3.19490       -0.49970        0.86910
H          3.87890       -0.21050        1.56490
C          3.29180       -0.10690       -0.43090
C          2.02300        0.02660       -0.97030
C          1.81240        0.45430       -2.37110
O          2.75030        0.95980       -2.98210
C          0.49840        0.27260       -3.06290
C         -0.43980       -0.70480       -2.69860
C         -1.60710       -0.86870       -3.44690
C         -1.85620       -0.05090       -4.55180
C         -0.92440        0.92600       -4.92200
C          0.24980        1.07730       -4.18910
C          4.63390        0.12060       -1.03310
C          1.47680       -1.01840        2.48970
C          2.36760       -1.82710        3.21550
C          1.98570       -2.34410        4.45480
C          0.71730       -2.07790        4.97380
C         -0.16970       -1.28520        4.23860
C          0.19750       -0.74730        3.00580
H         -0.26710       -1.33670       -1.83060
H         -2.32910       -1.63660       -3.15990
H         -2.77680       -0.17520       -5.12770
H         -1.11500        1.56530       -5.78750
H          1.00190        1.81530       -4.47200
H          5.43290       -0.22000       -0.35720
H          4.76780        1.18650       -1.26830
H          4.71460       -0.40630       -1.99390
H          3.34580       -2.07610        2.80230
H          2.68660       -2.97220        5.00990
H          0.42020       -2.48780        5.94140
H         -1.16670       -1.07320        4.63200
H         -0.49070       -0.13600        2.42680
