35
rmsd15.gzmat
O          0.00000        0.00000        0.00000
C          1.19680        0.00000        0.00000
N          1.93110        0.00000        1.28990
N          3.31460        0.14270        0.96630
H          3.92790       -0.25660        1.66760
C          3.46270       -0.07680       -0.39980
C          2.22240       -0.08590       -1.02480
C          2.03270       -0.11620       -2.46140
O          2.99560       -0.15980       -3.20290
C          0.65930       -0.05900       -3.01770
C         -0.33180       -0.94220       -2.59300
C         -1.60710       -0.86320       -3.15020
C         -1.88670        0.09650       -4.12140
C         -0.88920        0.97100       -4.55170
C          0.38910        0.88970       -4.00500
C          4.79470       -0.18790       -1.00710
C          1.45700        0.82670        2.35470
C          0.16790        0.53560        2.82790
C         -0.34180        1.26270        3.89710
C          0.41930        2.26640        4.49690
C          1.69710        2.54920        4.02010
C          2.22330        1.83740        2.94450
H         -0.11590       -1.68380       -1.82370
H         -2.38510       -1.54690       -2.81880
H         -2.88630        0.16340       -4.54590
H         -1.10710        1.71360       -5.31540
H          1.18040        1.55770       -4.34590
H          5.63130       -0.16940       -0.29970
H          4.95390        0.62820       -1.74630
H          4.87460       -1.11040       -1.61980
H         -0.42890       -0.24490        2.35070
H         -1.34410        1.04580        4.26580
H          0.01130        2.83060        5.33240
H          2.28950        3.33640        4.48500
H          3.21040        2.08500        2.56280
