35
rmsd10.gzmat
O          0.00000        0.00000        0.00000
C          1.19690        0.00000        0.00000
N          1.93180        0.00000        1.28800
N          3.31440       -0.14960        0.96380
H          3.92940        0.25200        1.66210
C          3.46190        0.06810       -0.40330
C          2.22110        0.08550       -1.02660
C          2.03120        0.12450       -2.46330
O          2.99610        0.15220       -3.20340
C          0.65950        0.09990       -3.02550
C          0.38660       -0.80870       -4.04950
C         -0.88760       -0.85660       -4.60910
C         -1.88090        0.00940       -4.15250
C         -1.60010        0.92760       -3.14250
C         -0.32750        0.97560       -2.57590
C          4.79460        0.17170       -1.01020
C          1.45910       -0.80940        2.36540
C          2.24370       -1.78210        2.99400
C          1.72510       -2.47090        4.08800
C          0.43680       -2.20400        4.54530
C         -0.34480       -1.24340        3.90360
C          0.15680       -0.53860        2.81560
H          1.17340       -1.47260       -4.40850
H         -1.10610       -1.56790       -5.40150
H         -2.87810       -0.03210       -4.58590
H         -2.37610        1.60230       -2.78720
H         -0.11130        1.68940       -1.78110
H          5.63190        0.03890       -0.31520
H          4.91950        1.14410       -1.52930
H          4.90700       -0.57590       -1.82800
H          3.23980       -2.02000        2.62930
H          2.33250       -3.22770        4.58260
H          0.03820       -2.74710        5.39910
H         -1.35700       -1.04280        4.25440
H         -0.45640        0.20970        2.30850
