35
rmsd3.gzmat
O          0.00000        0.00000        0.00000
C          1.19640        0.00000        0.00000
N          1.93520        0.00000        1.28630
N          3.31550       -0.16880        0.96030
H          3.93460        0.23440        1.65510
C          3.46130        0.04750       -0.40840
C          2.22050        0.06690       -1.02890
C          2.01260        0.16340       -2.46040
O          2.95350        0.34500       -3.20770
C          0.63190        0.05590       -2.99190
C         -0.17830       -1.02860       -2.65770
C         -1.46790       -1.10990       -3.17910
C         -1.94350       -0.10790       -4.02370
C         -1.12860        0.97230       -4.36040
C          0.16600        1.05150       -3.85130
C          4.79090        0.14690       -1.02270
C          1.45310       -0.79650        2.36910
C          2.21150       -1.79820        2.98390
C          1.68370       -2.47450        4.08110
C          0.41110       -2.16550        4.55570
C         -0.34410       -1.17380        3.92920
C          0.16770       -0.48230        2.83750
H          0.18910       -1.80370       -1.98610
H         -2.10520       -1.95170       -2.91720
H         -2.95460       -0.16920       -4.42070
H         -1.50370        1.75190       -5.01960
H          0.81570        1.88390       -4.12130
H          5.63120        0.11850       -0.31970
H          4.87310        1.07410       -1.63010
H          4.93910       -0.66610       -1.76590
H          3.19490       -2.06510        2.60570
H          2.27040       -3.25370        4.56600
H          0.00540       -2.69980        5.41200
H         -1.34330       -0.93690        4.29500
H         -0.42290        0.29100        2.34060
