
     RDKit          3D

 35 37  0  0  0  0  0  0  0  0999 V2000
   -0.1398    0.5414    0.0064 O   0  0  0  0  0  0  0  0  0  0  0  0
    1.0709    0.4119    0.0193 C   0  0  0  0  0  0  0  0  0  0  0  0
    1.8541    0.4973    1.2032 N   0  0  0  0  0  0  0  0  0  0  0  0
    3.1938    0.4217    0.8688 N   0  0  0  0  0  0  0  0  0  0  0  0
    3.8069   -0.0202    1.5507 H   0  0  0  0  0  0  0  0  0  0  0  0
    3.3097    0.1700   -0.4646 C   0  0  0  0  0  0  0  0  0  0  0  0
    2.0553    0.1855   -1.0510 C   0  0  0  0  0  0  0  0  0  0  0  0
    1.8826    0.1151   -2.5180 C   0  0  0  0  0  0  0  0  0  0  0  0
    2.8523    0.3424   -3.2364 O   0  0  0  0  0  0  0  0  0  0  0  0
    0.5728   -0.2482   -3.1437 C   0  0  0  0  0  0  0  0  0  0  0  0
   -0.4263   -0.9822   -2.4869 C   0  0  0  0  0  0  0  0  0  0  0  0
   -1.5885   -1.3499   -3.1680 C   0  0  0  0  0  0  0  0  0  0  0  0
   -1.7716   -0.9766   -4.5015 C   0  0  0  0  0  0  0  0  0  0  0  0
   -0.7791   -0.2447   -5.1642 C   0  0  0  0  0  0  0  0  0  0  0  0
    0.3890    0.1060   -4.4924 C   0  0  0  0  0  0  0  0  0  0  0  0
    4.6565   -0.0565   -1.0571 C   0  0  0  0  0  0  0  0  0  0  0  0
    1.4710    0.9732    2.4721 C   0  0  0  0  0  0  0  0  0  0  0  0
    0.1461    0.8079    2.9123 C   0  0  0  0  0  0  0  0  0  0  0  0
   -0.2146    1.2628    4.1798 C   0  0  0  0  0  0  0  0  0  0  0  0
    0.7220    1.8690    5.0231 C   0  0  0  0  0  0  0  0  0  0  0  0
    2.0354    2.0321    4.5789 C   0  0  0  0  0  0  0  0  0  0  0  0
    2.4132    1.5963    3.3075 C   0  0  0  0  0  0  0  0  0  0  0  0
   -0.3056   -1.2653   -1.4440 H   0  0  0  0  0  0  0  0  0  0  0  0
   -2.3583   -1.9266   -2.6500 H   0  0  0  0  0  0  0  0  0  0  0  0
   -2.6879   -1.2569   -5.0272 H   0  0  0  0  0  0  0  0  0  0  0  0
   -0.9180    0.0471   -6.2079 H   0  0  0  0  0  0  0  0  0  0  0  0
    1.1864    0.6566   -4.9936 H   0  0  0  0  0  0  0  0  0  0  0  0
    5.4035   -0.2719   -0.2774 H   0  0  0  0  0  0  0  0  0  0  0  0
    4.9699    0.8361   -1.6190 H   0  0  0  0  0  0  0  0  0  0  0  0
    4.6260   -0.8766   -1.7861 H   0  0  0  0  0  0  0  0  0  0  0  0
   -0.5808    0.3450    2.2493 H   0  0  0  0  0  0  0  0  0  0  0  0
   -1.2470    1.1346    4.5136 H   0  0  0  0  0  0  0  0  0  0  0  0
    0.4285    2.2157    6.0162 H   0  0  0  0  0  0  0  0  0  0  0  0
    2.7767    2.5160    5.2193 H   0  0  0  0  0  0  0  0  0  0  0  0
    3.4316    1.7668    2.9564 H   0  0  0  0  0  0  0  0  0  0  0  0
  1  2  2  0
  2  3  1  0
  2  7  1  0
  3  4  1  0
  3 17  1  0
  4  5  1  0
  4  6  1  0
  6  7  2  0
  6 16  1  0
  7  8  1  0
  8  9  2  0
  8 10  1  0
 10 11  2  0
 10 15  1  0
 11 12  1  0
 11 23  1  0
 12 13  2  0
 12 24  1  0
 13 14  1  0
 13 25  1  0
 14 15  2  0
 14 26  1  0
 15 27  1  0
 16 28  1  0
 16 29  1  0
 16 30  1  0
 17 18  2  0
 17 22  1  0
 18 19  1  0
 18 31  1  0
 19 20  2  0
 19 32  1  0
 20 21  1  0
 20 33  1  0
 21 22  2  0
 21 34  1  0
 22 35  1  0
M  END

