35
rmsd24.gzmat
O          0.00000        0.00000        0.00000
C          1.19680        0.00000        0.00000
N          1.93860        0.00000        1.28290
N          3.31920        0.15770        0.95130
H          3.93960       -0.25560        1.63870
C          3.45890       -0.04510       -0.41990
C          2.21460       -0.07970       -1.03360
C          2.01010       -0.13250       -2.46870
O          2.95970       -0.02760       -3.22130
C          0.64330       -0.31760       -3.01280
C          0.24290        0.47600       -4.08920
C         -1.02660        0.30730       -4.63760
C         -1.88700       -0.65840       -4.11630
C         -1.48010       -1.45730       -3.04870
C         -0.21240       -1.28920       -2.49490
C          4.78690       -0.11270       -1.04210
C          1.47260        0.78250        2.38210
C          0.14390        0.56790        2.78280
C         -0.35340        1.25230        3.88530
C          0.46180        2.12810        4.60260
C          1.78030        2.33140        4.20350
C          2.29150        1.67120        3.08840
H          0.92730        1.21970       -4.49830
H         -1.34460        0.92650       -5.47300
H         -2.87920       -0.78960       -4.54340
H         -2.15330       -2.20770       -2.64070
H          0.10350       -1.91100       -1.65710
H          5.62950       -0.12630       -0.34110
H          4.92910        0.74760       -1.73460
H          4.87060       -0.99630       -1.70880
H         -0.49520       -0.12370        2.22870
H         -1.38960        1.10100        4.18830
H          0.06710        2.65190        5.47020
H          2.41940        3.01450        4.76210
H          3.31180        1.86740        2.77100
