35
rmsd4.gzmat
O          0.00000        0.00000        0.00000
C          1.19670        0.00000        0.00000
N          1.93580        0.00000        1.28630
N          3.31470       -0.18000        0.95950
H          3.93850        0.22340        1.64960
C          3.46150        0.02070       -0.41090
C          2.21950        0.05570       -1.02990
C          2.02360        0.15660       -2.46250
O          2.98420        0.21350       -3.20580
C          0.64590        0.23710       -3.00470
C         -0.32070       -0.71180       -2.67520
C         -1.60270       -0.60180       -3.21130
C         -1.91320        0.45380       -4.06710
C         -0.94060        1.39490       -4.40340
C          0.34430        1.28340       -3.87790
C          4.79190        0.09240       -1.02670
C          1.44960       -0.79540        2.36810
C          2.21730       -1.77920        3.00090
C          1.68340       -2.46300        4.09060
C          0.39580       -2.17900        4.53930
C         -0.36550       -1.19990        3.90040
C          0.15210       -0.50000        2.81700
H         -0.08260       -1.53000       -1.99560
H         -2.36250       -1.33610       -2.95230
H         -2.91830        0.54420       -4.47350
H         -1.18370        2.21400       -5.07580
H          1.11490        2.00580       -4.14720
H          5.62970        0.10680       -0.32020
H          4.87300        0.98220       -1.68820
H          4.94450       -0.75930       -1.72490
H          3.21280       -2.02770        2.64280
H          2.27760       -3.22790        4.58910
H         -0.01880       -2.72180        5.38560
H         -1.37370       -0.98010        4.25160
H         -0.44420        0.26450        2.31280
