35

O         -0.14010       -0.73670       -0.01070
C          1.06170       -0.54240        0.01200
N          1.83240       -0.54680        1.20720
N          3.17060       -0.41070        0.88600
H          3.75010        0.08590        1.55970
C          3.29080       -0.19720       -0.45360
C          2.04700       -0.29920       -1.05370
C          1.89030       -0.28700       -2.52410
O          2.87990       -0.48610       -3.22340
C          0.57140       -0.01480       -3.17660
C          0.42360       -0.42390       -4.51400
C         -0.75260       -0.15840       -5.21030
C         -1.79030        0.54230       -4.58430
C         -1.64400        0.97000       -3.26260
C         -0.47300        0.68750       -2.55650
C          4.63140        0.08120       -1.03780
C          1.45820       -1.00060        2.48680
C          2.42120       -1.54370        3.35380
C          2.05010       -1.95730        4.63450
C          0.72390       -1.85130        5.05750
C         -0.23240       -1.32510        4.18320
C          0.12050       -0.89330        2.90550
H          1.25500       -0.94850       -4.98710
H         -0.86280       -0.49260       -6.24480
H         -2.71330        0.75590       -5.12940
H         -2.44950        1.52270       -2.77350
H         -0.38050        1.01200       -1.52290
H          5.35530        0.36300       -0.25740
H          4.56710        0.87310       -1.79520
H          4.99970       -0.81180       -1.56460
H          3.45200       -1.67000        3.02080
H          2.80770       -2.37870        5.29960
H          0.43610       -2.18060        6.05810
H         -1.27480       -1.24240        4.50020
H         -0.62130       -0.49270        2.21870
