rmsd5.gzmat
 OpenBabel08211713383D

 35 37  0  0  0  0  0  0  0  0999 V2000
    0.0000    0.0000    0.0000 O   0  0  0  0  0  0  0  0  0  0  0  0
    1.1966    0.0000    0.0000 C   0  0  0  0  0  0  0  0  0  0  0  0
    1.9325    0.0000    1.2891 N   0  0  0  0  0  0  0  0  0  0  0  0
    3.3135   -0.1674    0.9656 N   0  0  0  0  0  0  0  0  0  0  0  0
    3.9319    0.2353    1.6611 H   0  0  0  0  0  0  0  0  0  0  0  0
    3.4627    0.0407   -0.4030 C   0  0  0  0  0  0  0  0  0  0  0  0
    2.2221    0.0609   -1.0267 C   0  0  0  0  0  0  0  0  0  0  0  0
    2.0322    0.1560   -2.4606 C   0  0  0  0  0  0  0  0  0  0  0  0
    2.9939    0.2943   -3.1922 O   0  0  0  0  0  0  0  0  0  0  0  0
    0.6627    0.1137   -3.0272 C   0  0  0  0  0  0  0  0  0  0  0  0
   -0.2466   -0.8761   -2.6576 C   0  0  0  0  0  0  0  0  0  0  0  0
   -1.5188   -0.8905   -3.2273 C   0  0  0  0  0  0  0  0  0  0  0  0
   -1.8772    0.0816   -4.1598 C   0  0  0  0  0  0  0  0  0  0  0  0
   -0.9624    1.0647   -4.5347 C   0  0  0  0  0  0  0  0  0  0  0  0
    0.3123    1.0783   -3.9737 C   0  0  0  0  0  0  0  0  0  0  0  0
    4.7942    0.1308   -1.0142 C   0  0  0  0  0  0  0  0  0  0  0  0
    1.4491   -0.8104    2.3617 C   0  0  0  0  0  0  0  0  0  0  0  0
    2.2022   -1.8289    2.9552 C   0  0  0  0  0  0  0  0  0  0  0  0
    1.6717   -2.5232    4.0399 C   0  0  0  0  0  0  0  0  0  0  0  0
    0.4019   -2.2149    4.5221 C   0  0  0  0  0  0  0  0  0  0  0  0
   -0.3470   -1.2050    3.9177 C   0  0  0  0  0  0  0  0  0  0  0  0
    0.1675   -0.4959    2.8387 C   0  0  0  0  0  0  0  0  0  0  0  0
    0.0290   -1.6315   -1.9219 H   0  0  0  0  0  0  0  0  0  0  0  0
   -2.2332   -1.6570   -2.9352 H   0  0  0  0  0  0  0  0  0  0  0  0
   -2.8738    0.0733   -4.5967 H   0  0  0  0  0  0  0  0  0  0  0  0
   -1.2408    1.8194   -5.2660 H   0  0  0  0  0  0  0  0  0  0  0  0
    1.0384    1.8342   -4.2735 H   0  0  0  0  0  0  0  0  0  0  0  0
    5.6303    0.1636   -0.3067 H   0  0  0  0  0  0  0  0  0  0  0  0
    4.8616    1.0196   -1.6792 H   0  0  0  0  0  0  0  0  0  0  0  0
    4.9633   -0.7218   -1.7066 H   0  0  0  0  0  0  0  0  0  0  0  0
    3.1831   -2.0948    2.5705 H   0  0  0  0  0  0  0  0  0  0  0  0
    2.2542   -3.3162    4.5075 H   0  0  0  0  0  0  0  0  0  0  0  0
   -0.0082   -2.7645    5.3663 H   0  0  0  0  0  0  0  0  0  0  0  0
   -1.3430   -0.9685    4.2919 H   0  0  0  0  0  0  0  0  0  0  0  0
   -0.4189    0.2902    2.3575 H   0  0  0  0  0  0  0  0  0  0  0  0
  1  2  2  0  0  0  0
  2  3  1  0  0  0  0
  3 17  1  0  0  0  0
  4  3  1  0  0  0  0
  4  5  1  0  0  0  0
  6  4  1  0  0  0  0
  7  6  2  0  0  0  0
  7  2  1  0  0  0  0
  8  7  1  0  0  0  0
  9  8  2  0  0  0  0
 10 11  1  0  0  0  0
 10  8  1  0  0  0  0
 11 23  1  0  0  0  0
 12 24  1  0  0  0  0
 12 11  2  0  0  0  0
 13 12  1  0  0  0  0
 14 13  2  0  0  0  0
 14 15  1  0  0  0  0
 15 10  2  0  0  0  0
 16  6  1  0  0  0  0
 16 28  1  0  0  0  0
 17 22  2  0  0  0  0
 17 18  1  0  0  0  0
 18 19  2  0  0  0  0
 19 32  1  0  0  0  0
 19 20  1  0  0  0  0
 20 33  1  0  0  0  0
 21 34  1  0  0  0  0
 21 20  2  0  0  0  0
 22 21  1  0  0  0  0
 25 13  1  0  0  0  0
 26 14  1  0  0  0  0
 27 15  1  0  0  0  0
 29 16  1  0  0  0  0
 30 16  1  0  0  0  0
 31 18  1  0  0  0  0
 35 22  1  0  0  0  0
M  END
$$$$
