35
rmsd17.gzmat
O          0.00000        0.00000        0.00000
C          1.19710        0.00000        0.00000
N          1.93760        0.00000        1.28150
N          3.31300        0.20390        0.95700
H          3.94410       -0.19200        1.64560
C          3.46180        0.00310       -0.41360
C          2.21970       -0.05590       -1.03100
C          2.02760       -0.18640       -2.46210
O          2.98870       -0.18900       -3.20700
C          0.66060       -0.37970       -3.00460
C          0.43740       -1.48470       -3.82820
C         -0.82870       -1.69910       -4.36670
C         -1.86130       -0.80180       -4.09530
C         -1.63130        0.30720       -3.28320
C         -0.36820        0.51980       -2.73220
C          4.79520       -0.04970       -1.02540
C          1.45290        0.72710        2.40820
C          0.15800        0.40770        2.84680
C         -0.33770        1.01460        3.99490
C          0.44160        1.92590        4.70820
C          1.72030        2.24690        4.25940
C          2.23150        1.65890        3.10510
H          1.25480       -2.17090       -4.04950
H         -1.01100       -2.56330       -5.00060
H         -2.84930       -0.96920       -4.51950
H         -2.43880        1.00480       -3.07030
H         -0.19350        1.37990       -2.08560
H          5.63240        0.03270       -0.32270
H          4.90520        0.75560       -1.78530
H          4.92360       -0.98230       -1.61410
H         -0.45370       -0.30420        2.28640
H         -1.34390        0.77390        4.33900
H          0.04980        2.38810        5.61120
H          2.32630        2.96520        4.81020
H          3.21790        1.94210        2.74860
