rmsd73.gzmat
 OpenBabel08211713373D

 40 43  0  0  0  0  0  0  0  0999 V2000
    0.0000    0.0000    0.0000 C   0  0  0  0  0  0  0  0  0  0  0  0
    1.3917    0.0000    0.0000 C   0  0  0  0  0  0  0  0  0  0  0  0
    2.0906    0.0000    1.2066 C   0  0  0  0  0  0  0  0  0  0  0  0
    1.3993    0.0050    2.4176 C   0  0  0  0  0  0  0  0  0  0  0  0
    0.0072    0.0059    2.4266 C   0  0  0  0  0  0  0  0  0  0  0  0
   -0.6937   -0.0013    1.2155 C   0  0  0  0  0  0  0  0  0  0  0  0
   -2.1479   -0.0154    1.2181 C   0  0  0  0  0  0  0  0  0  0  0  0
   -2.9493   -0.0130    0.1463 N   0  0  0  0  0  0  0  0  0  0  0  0
   -4.2517   -0.0420    0.5929 O   0  0  0  0  0  0  0  0  0  0  0  0
   -4.1832   -0.0680    1.9890 C   0  0  0  0  0  0  0  0  0  0  0  0
   -2.9145   -0.0418    2.4058 N   0  0  0  0  0  0  0  0  0  0  0  0
   -5.3456   -0.2692    2.6968 N   0  0  0  0  0  0  0  0  0  0  0  0
   -6.5928    0.1035    2.0099 C   0  0  0  0  0  0  0  0  0  0  0  0
   -5.2773    0.0729    4.1258 C   0  0  0  0  0  0  0  0  0  0  0  0
   -5.3738    1.5314    4.3955 C   0  0  0  0  0  0  0  0  0  0  0  0
   -6.3593    2.3872    4.1996 N   0  0  0  0  0  0  0  0  0  0  0  0
   -5.8666    3.6365    4.6547 C   0  0  0  0  0  0  0  0  0  0  0  0
   -4.6153    3.4835    5.1071 N   0  0  0  0  0  0  0  0  0  0  0  0
   -4.2733    2.1691    4.9512 O   0  0  0  0  0  0  0  0  0  0  0  0
   -6.6448    4.8628    4.6275 C   0  0  0  0  0  0  0  0  0  0  0  0
   -6.0554    6.0680    5.0267 C   0  0  0  0  0  0  0  0  0  0  0  0
   -6.8049    7.2407    5.0132 C   0  0  0  0  0  0  0  0  0  0  0  0
   -8.1367    7.2141    4.6015 C   0  0  0  0  0  0  0  0  0  0  0  0
   -8.7225    6.0142    4.1993 C   0  0  0  0  0  0  0  0  0  0  0  0
   -7.9801    4.8367    4.2106 C   0  0  0  0  0  0  0  0  0  0  0  0
   -0.5512   -0.0007   -0.9432 H   0  0  0  0  0  0  0  0  0  0  0  0
    1.9336   -0.0005   -0.9438 H   0  0  0  0  0  0  0  0  0  0  0  0
    3.1792   -0.0033    1.2030 H   0  0  0  0  0  0  0  0  0  0  0  0
    1.9469    0.0086    3.3581 H   0  0  0  0  0  0  0  0  0  0  0  0
   -0.5426    0.0120    3.3718 H   0  0  0  0  0  0  0  0  0  0  0  0
   -6.6053   -0.3237    0.9903 H   0  0  0  0  0  0  0  0  0  0  0  0
   -6.7473    1.1967    1.9387 H   0  0  0  0  0  0  0  0  0  0  0  0
   -7.4496   -0.3246    2.5624 H   0  0  0  0  0  0  0  0  0  0  0  0
   -4.3191   -0.3440    4.5512 H   0  0  0  0  0  0  0  0  0  0  0  0
   -6.1148   -0.4676    4.6448 H   0  0  0  0  0  0  0  0  0  0  0  0
   -5.0111    6.0849    5.3476 H   0  0  0  0  0  0  0  0  0  0  0  0
   -6.3498    8.1793    5.3253 H   0  0  0  0  0  0  0  0  0  0  0  0
   -8.7201    8.1337    4.5932 H   0  0  0  0  0  0  0  0  0  0  0  0
   -9.7618    5.9975    3.8767 H   0  0  0  0  0  0  0  0  0  0  0  0
   -8.4330    3.8929    3.8977 H   0  0  0  0  0  0  0  0  0  0  0  0
  1  6  1  0  0  0  0
  2  1  2  0  0  0  0
  2  3  1  0  0  0  0
  3  4  2  0  0  0  0
  4  5  1  0  0  0  0
  4 29  1  0  0  0  0
  5 30  1  0  0  0  0
  6  7  1  0  0  0  0
  6  5  2  0  0  0  0
  7 11  2  0  0  0  0
  8  9  1  0  0  0  0
  8  7  2  0  0  0  0
  9 10  1  0  0  0  0
 10 11  2  0  0  0  0
 10 12  1  0  0  0  0
 12 14  1  0  0  0  0
 13 33  1  0  0  0  0
 13 12  1  0  0  0  0
 14 15  1  0  0  0  0
 14 34  1  0  0  0  0
 14 35  1  0  0  0  0
 15 19  1  0  0  0  0
 16 15  2  0  0  0  0
 16 17  2  0  0  0  0
 17 18  2  0  0  0  0
 19 18  1  0  0  0  0
 20 17  1  0  0  0  0
 20 21  2  0  0  0  0
 21 36  1  0  0  0  0
 22 21  1  0  0  0  0
 22 37  1  0  0  0  0
 23 22  2  0  0  0  0
 24 25  2  0  0  0  0
 24 23  1  0  0  0  0
 25 20  1  0  0  0  0
 26  1  1  0  0  0  0
 27  2  1  0  0  0  0
 28  3  1  0  0  0  0
 31 13  1  0  0  0  0
 32 13  1  0  0  0  0
 38 23  1  0  0  0  0
 39 24  1  0  0  0  0
 40 25  1  0  0  0  0
M  END
$$$$
