rmsd161.gzmat
 OpenBabel08211713373D

 40 43  0  0  0  0  0  0  0  0999 V2000
    0.0000    0.0000    0.0000 C   0  0  0  0  0  0  0  0  0  0  0  0
    1.3919    0.0000    0.0000 C   0  0  0  0  0  0  0  0  0  0  0  0
    2.0907    0.0000    1.2064 C   0  0  0  0  0  0  0  0  0  0  0  0
    1.3993   -0.0061    2.4176 C   0  0  0  0  0  0  0  0  0  0  0  0
    0.0073   -0.0124    2.4266 C   0  0  0  0  0  0  0  0  0  0  0  0
   -0.6933   -0.0039    1.2153 C   0  0  0  0  0  0  0  0  0  0  0  0
   -2.1477    0.0065    1.2146 C   0  0  0  0  0  0  0  0  0  0  0  0
   -2.9568   -0.1926    2.2616 N   0  0  0  0  0  0  0  0  0  0  0  0
   -4.2568   -0.0880    1.8167 O   0  0  0  0  0  0  0  0  0  0  0  0
   -4.1781    0.1913    0.4502 C   0  0  0  0  0  0  0  0  0  0  0  0
   -2.9066    0.2454    0.0457 N   0  0  0  0  0  0  0  0  0  0  0  0
   -5.3379    0.5118   -0.2230 N   0  0  0  0  0  0  0  0  0  0  0  0
   -6.5720   -0.0810    0.3214 C   0  0  0  0  0  0  0  0  0  0  0  0
   -5.2167    0.4887   -1.6883 C   0  0  0  0  0  0  0  0  0  0  0  0
   -5.1068   -0.8707   -2.2800 C   0  0  0  0  0  0  0  0  0  0  0  0
   -5.5733   -2.0430   -1.8955 N   0  0  0  0  0  0  0  0  0  0  0  0
   -5.1594   -2.9572   -2.8988 C   0  0  0  0  0  0  0  0  0  0  0  0
   -4.4702   -2.3063   -3.8422 N   0  0  0  0  0  0  0  0  0  0  0  0
   -4.4116   -0.9873   -3.4771 O   0  0  0  0  0  0  0  0  0  0  0  0
   -5.4835   -4.3734   -2.8704 C   0  0  0  0  0  0  0  0  0  0  0  0
   -5.5408   -5.0907   -4.0705 C   0  0  0  0  0  0  0  0  0  0  0  0
   -5.8641   -6.4439   -4.0491 C   0  0  0  0  0  0  0  0  0  0  0  0
   -6.1210   -7.0821   -2.8360 C   0  0  0  0  0  0  0  0  0  0  0  0
   -6.0551   -6.3680   -1.6404 C   0  0  0  0  0  0  0  0  0  0  0  0
   -5.7392   -5.0118   -1.6532 C   0  0  0  0  0  0  0  0  0  0  0  0
   -0.5552    0.0023   -0.9422 H   0  0  0  0  0  0  0  0  0  0  0  0
    1.9328   -0.0005   -0.9444 H   0  0  0  0  0  0  0  0  0  0  0  0
    3.1792    0.0033    1.2028 H   0  0  0  0  0  0  0  0  0  0  0  0
    1.9483   -0.0059    3.3571 H   0  0  0  0  0  0  0  0  0  0  0  0
   -0.5390   -0.0266    3.3719 H   0  0  0  0  0  0  0  0  0  0  0  0
   -6.6509    0.1469    1.4003 H   0  0  0  0  0  0  0  0  0  0  0  0
   -6.6279   -1.1797    0.1863 H   0  0  0  0  0  0  0  0  0  0  0  0
   -7.4454    0.3729   -0.1790 H   0  0  0  0  0  0  0  0  0  0  0  0
   -4.3159    1.1068   -1.9771 H   0  0  0  0  0  0  0  0  0  0  0  0
   -6.1105    1.0168   -2.1167 H   0  0  0  0  0  0  0  0  0  0  0  0
   -5.3301   -4.5896   -5.0169 H   0  0  0  0  0  0  0  0  0  0  0  0
   -5.9139   -7.0033   -4.9814 H   0  0  0  0  0  0  0  0  0  0  0  0
   -6.3723   -8.1418   -2.8237 H   0  0  0  0  0  0  0  0  0  0  0  0
   -6.2495   -6.8703   -0.6944 H   0  0  0  0  0  0  0  0  0  0  0  0
   -5.6901   -4.4451   -0.7209 H   0  0  0  0  0  0  0  0  0  0  0  0
  1  2  2  0  0  0  0
  1  6  1  0  0  0  0
  2  3  1  0  0  0  0
  3  4  2  0  0  0  0
  4  5  1  0  0  0  0
  4 29  1  0  0  0  0
  5 30  1  0  0  0  0
  6  5  2  0  0  0  0
  7  6  1  0  0  0  0
  7  8  2  0  0  0  0
  9  8  1  0  0  0  0
 10  9  1  0  0  0  0
 11 10  2  0  0  0  0
 11  7  2  0  0  0  0
 12 13  1  0  0  0  0
 12 10  1  0  0  0  0
 13 31  1  0  0  0  0
 14 12  1  0  0  0  0
 15 16  2  0  0  0  0
 15 14  1  0  0  0  0
 17 20  1  0  0  0  0
 17 16  2  0  0  0  0
 18 19  1  0  0  0  0
 18 17  2  0  0  0  0
 19 15  1  0  0  0  0
 20 25  2  0  0  0  0
 21 22  2  0  0  0  0
 21 20  1  0  0  0  0
 22 23  1  0  0  0  0
 23 38  1  0  0  0  0
 23 24  2  0  0  0  0
 24 39  1  0  0  0  0
 25 24  1  0  0  0  0
 25 40  1  0  0  0  0
 26  1  1  0  0  0  0
 27  2  1  0  0  0  0
 28  3  1  0  0  0  0
 32 13  1  0  0  0  0
 33 13  1  0  0  0  0
 34 14  1  0  0  0  0
 35 14  1  0  0  0  0
 36 21  1  0  0  0  0
 37 22  1  0  0  0  0
M  END
$$$$
