40

C         -0.60830        0.71990       -0.00560
C          0.74920        1.02800       -0.07390
C          1.50410        1.14810        1.09870
C          0.89480        0.95860        2.34220
C         -0.46420        0.64950        2.41690
C         -1.22320        0.52840        1.24330
C         -2.65390        0.20470        1.33430
N         -3.42410        0.10060        0.27470
O         -4.68730       -0.20840        0.82080
C         -4.52260       -0.25890        2.14860
N         -3.29770       -0.00790        2.53200
N         -5.58160       -0.57660        2.93270
C         -6.93190       -0.56510        2.38650
C         -5.40040       -0.39740        4.35500
C         -5.54320        1.03860        4.77090
N         -5.86360        2.05710        4.03740
C         -5.83040        3.10730        4.93810
N         -5.51160        2.73810        6.15850
O         -5.32050        1.36110        6.04910
C         -6.12190        4.49580        4.56280
C         -6.11820        5.51560        5.52980
C         -6.39440        6.82930        5.15630
C         -6.67530        7.13710        3.82010
C         -6.67850        6.12480        2.85640
C         -6.40320        4.80700        3.22360
H         -1.20680        0.62410       -0.91290
H          1.22340        1.17600       -1.04700
H          2.56820        1.39000        1.04150
H          1.48120        1.05260        3.25930
H         -0.95640        0.49970        3.37870
H         -6.91050       -0.93010        1.35260
H         -7.36670        0.44850        2.40140
H         -7.56400       -1.23880        2.98330
H         -4.39780       -0.74570        4.64270
H         -6.13660       -1.01170        4.89770
H         -5.89730        5.26460        6.56860
H         -6.39080        7.61960        5.91050
H         -6.89080        8.16850        3.53070
H         -6.89490        6.36290        1.81250
H         -6.39800        4.00650        2.48270
