rmsd128.gzmat
 OpenBabel08211713373D

 40 43  0  0  0  0  0  0  0  0999 V2000
    0.0000    0.0000    0.0000 C   0  0  0  0  0  0  0  0  0  0  0  0
    1.3921    0.0000    0.0000 C   0  0  0  0  0  0  0  0  0  0  0  0
    2.0914    0.0000    1.2064 C   0  0  0  0  0  0  0  0  0  0  0  0
    1.4005    0.0019    2.4177 C   0  0  0  0  0  0  0  0  0  0  0  0
    0.0087    0.0080    2.4269 C   0  0  0  0  0  0  0  0  0  0  0  0
   -0.6927    0.0081    1.2153 C   0  0  0  0  0  0  0  0  0  0  0  0
   -2.1472    0.0242    1.2237 C   0  0  0  0  0  0  0  0  0  0  0  0
   -2.9345    0.2566    2.2807 N   0  0  0  0  0  0  0  0  0  0  0  0
   -4.2419    0.1830    1.8562 O   0  0  0  0  0  0  0  0  0  0  0  0
   -4.1918   -0.0945    0.4870 C   0  0  0  0  0  0  0  0  0  0  0  0
   -2.9288   -0.2059    0.0676 N   0  0  0  0  0  0  0  0  0  0  0  0
   -5.3694   -0.0661   -0.2282 N   0  0  0  0  0  0  0  0  0  0  0  0
   -6.5972   -0.2238    0.5708 C   0  0  0  0  0  0  0  0  0  0  0  0
   -5.3385   -0.8049   -1.4986 C   0  0  0  0  0  0  0  0  0  0  0  0
   -5.3467   -2.2841   -1.3476 C   0  0  0  0  0  0  0  0  0  0  0  0
   -5.9097   -3.0739   -0.4537 N   0  0  0  0  0  0  0  0  0  0  0  0
   -5.5727   -4.3932   -0.8538 C   0  0  0  0  0  0  0  0  0  0  0  0
   -4.8307   -4.3476   -1.9658 N   0  0  0  0  0  0  0  0  0  0  0  0
   -4.6635   -3.0295   -2.3000 O   0  0  0  0  0  0  0  0  0  0  0  0
   -6.0147   -5.5765   -0.1354 C   0  0  0  0  0  0  0  0  0  0  0  0
   -6.4266   -5.4714    1.1974 C   0  0  0  0  0  0  0  0  0  0  0  0
   -6.8559   -6.6076    1.8777 C   0  0  0  0  0  0  0  0  0  0  0  0
   -6.8768   -7.8428    1.2314 C   0  0  0  0  0  0  0  0  0  0  0  0
   -6.4661   -7.9469   -0.0972 C   0  0  0  0  0  0  0  0  0  0  0  0
   -6.0319   -6.8165   -0.7835 C   0  0  0  0  0  0  0  0  0  0  0  0
   -0.5559   -0.0090   -0.9411 H   0  0  0  0  0  0  0  0  0  0  0  0
    1.9340   -0.0011   -0.9438 H   0  0  0  0  0  0  0  0  0  0  0  0
    3.1800   -0.0023    1.2028 H   0  0  0  0  0  0  0  0  0  0  0  0
    1.9485   -0.0001    3.3581 H   0  0  0  0  0  0  0  0  0  0  0  0
   -0.5371    0.0149    3.3730 H   0  0  0  0  0  0  0  0  0  0  0  0
   -6.5966    0.5087    1.3994 H   0  0  0  0  0  0  0  0  0  0  0  0
   -6.7203   -1.2397    0.9956 H   0  0  0  0  0  0  0  0  0  0  0  0
   -7.4745   -0.0082   -0.0639 H   0  0  0  0  0  0  0  0  0  0  0  0
   -4.4238   -0.4801   -2.0755 H   0  0  0  0  0  0  0  0  0  0  0  0
   -6.2253   -0.4806   -2.1075 H   0  0  0  0  0  0  0  0  0  0  0  0
   -6.4107   -4.5001    1.6969 H   0  0  0  0  0  0  0  0  0  0  0  0
   -7.1748   -6.5306    2.9156 H   0  0  0  0  0  0  0  0  0  0  0  0
   -7.2127   -8.7298    1.7662 H   0  0  0  0  0  0  0  0  0  0  0  0
   -6.4838   -8.9131   -0.5985 H   0  0  0  0  0  0  0  0  0  0  0  0
   -5.7045   -6.8942   -1.8221 H   0  0  0  0  0  0  0  0  0  0  0  0
  1  2  2  0  0  0  0
  1  6  1  0  0  0  0
  2  3  1  0  0  0  0
  3  4  2  0  0  0  0
  4  5  1  0  0  0  0
  4 29  1  0  0  0  0
  5 30  1  0  0  0  0
  6  7  1  0  0  0  0
  6  5  2  0  0  0  0
  7  8  2  0  0  0  0
  9  8  1  0  0  0  0
 10  9  1  0  0  0  0
 11 10  2  0  0  0  0
 11  7  2  0  0  0  0
 12 10  1  0  0  0  0
 12 13  1  0  0  0  0
 13 32  1  0  0  0  0
 13 31  1  0  0  0  0
 14 15  1  0  0  0  0
 14 12  1  0  0  0  0
 15 16  2  0  0  0  0
 17 16  2  0  0  0  0
 17 20  1  0  0  0  0
 18 17  2  0  0  0  0
 19 18  1  0  0  0  0
 19 15  1  0  0  0  0
 20 21  1  0  0  0  0
 21 36  1  0  0  0  0
 21 22  2  0  0  0  0
 22 37  1  0  0  0  0
 23 38  1  0  0  0  0
 23 22  1  0  0  0  0
 24 23  2  0  0  0  0
 25 20  2  0  0  0  0
 25 24  1  0  0  0  0
 26  1  1  0  0  0  0
 27  2  1  0  0  0  0
 28  3  1  0  0  0  0
 33 13  1  0  0  0  0
 34 14  1  0  0  0  0
 35 14  1  0  0  0  0
 39 24  1  0  0  0  0
 40 25  1  0  0  0  0
M  END
$$$$
