40
rmsd161.gzmat
C          0.00000        0.00000        0.00000
C          1.39190        0.00000        0.00000
C          2.09070        0.00000        1.20640
C          1.39930       -0.00610        2.41760
C          0.00730       -0.01240        2.42660
C         -0.69330       -0.00390        1.21530
C         -2.14770        0.00650        1.21460
N         -2.95680       -0.19260        2.26160
O         -4.25680       -0.08800        1.81670
C         -4.17810        0.19130        0.45020
N         -2.90660        0.24540        0.04570
N         -5.33790        0.51180       -0.22300
C         -6.57200       -0.08100        0.32140
C         -5.21670        0.48870       -1.68830
C         -5.10680       -0.87070       -2.28000
N         -5.57330       -2.04300       -1.89550
C         -5.15940       -2.95720       -2.89880
N         -4.47020       -2.30630       -3.84220
O         -4.41160       -0.98730       -3.47710
C         -5.48350       -4.37340       -2.87040
C         -5.54080       -5.09070       -4.07050
C         -5.86410       -6.44390       -4.04910
C         -6.12100       -7.08210       -2.83600
C         -6.05510       -6.36800       -1.64040
C         -5.73920       -5.01180       -1.65320
H         -0.55520        0.00230       -0.94220
H          1.93280       -0.00050       -0.94440
H          3.17920        0.00330        1.20280
H          1.94830       -0.00590        3.35710
H         -0.53900       -0.02660        3.37190
H         -6.65090        0.14690        1.40030
H         -6.62790       -1.17970        0.18630
H         -7.44540        0.37290       -0.17900
H         -4.31590        1.10680       -1.97710
H         -6.11050        1.01680       -2.11670
H         -5.33010       -4.58960       -5.01690
H         -5.91390       -7.00330       -4.98140
H         -6.37230       -8.14180       -2.82370
H         -6.24950       -6.87030       -0.69440
H         -5.69010       -4.44510       -0.72090
