
     RDKit          3D

 40 43  0  0  0  0  0  0  0  0999 V2000
   -0.6083    0.7199   -0.0056 C   0  0  0  0  0  0  0  0  0  0  0  0
    0.7492    1.0280   -0.0739 C   0  0  0  0  0  0  0  0  0  0  0  0
    1.5041    1.1481    1.0987 C   0  0  0  0  0  0  0  0  0  0  0  0
    0.8948    0.9586    2.3422 C   0  0  0  0  0  0  0  0  0  0  0  0
   -0.4642    0.6495    2.4169 C   0  0  0  0  0  0  0  0  0  0  0  0
   -1.2232    0.5284    1.2433 C   0  0  0  0  0  0  0  0  0  0  0  0
   -2.6539    0.2047    1.3343 C   0  0  0  0  0  0  0  0  0  0  0  0
   -3.4241    0.1006    0.2747 N   0  0  0  0  0  0  0  0  0  0  0  0
   -4.6873   -0.2084    0.8208 O   0  0  0  0  0  0  0  0  0  0  0  0
   -4.5226   -0.2589    2.1486 C   0  0  0  0  0  0  0  0  0  0  0  0
   -3.2977   -0.0079    2.5320 N   0  0  0  0  0  0  0  0  0  0  0  0
   -5.5816   -0.5766    2.9327 N   0  0  0  0  0  0  0  0  0  0  0  0
   -6.9319   -0.5651    2.3865 C   0  0  0  0  0  0  0  0  0  0  0  0
   -5.4004   -0.3974    4.3550 C   0  0  0  0  0  0  0  0  0  0  0  0
   -5.5432    1.0386    4.7709 C   0  0  0  0  0  0  0  0  0  0  0  0
   -5.8636    2.0571    4.0374 N   0  0  0  0  0  0  0  0  0  0  0  0
   -5.8304    3.1073    4.9381 C   0  0  0  0  0  0  0  0  0  0  0  0
   -5.5116    2.7381    6.1585 N   0  0  0  0  0  0  0  0  0  0  0  0
   -5.3205    1.3611    6.0491 O   0  0  0  0  0  0  0  0  0  0  0  0
   -6.1219    4.4958    4.5628 C   0  0  0  0  0  0  0  0  0  0  0  0
   -6.1182    5.5156    5.5298 C   0  0  0  0  0  0  0  0  0  0  0  0
   -6.3944    6.8293    5.1563 C   0  0  0  0  0  0  0  0  0  0  0  0
   -6.6753    7.1371    3.8201 C   0  0  0  0  0  0  0  0  0  0  0  0
   -6.6785    6.1248    2.8564 C   0  0  0  0  0  0  0  0  0  0  0  0
   -6.4032    4.8070    3.2236 C   0  0  0  0  0  0  0  0  0  0  0  0
   -1.2068    0.6241   -0.9129 H   0  0  0  0  0  0  0  0  0  0  0  0
    1.2234    1.1760   -1.0470 H   0  0  0  0  0  0  0  0  0  0  0  0
    2.5682    1.3900    1.0415 H   0  0  0  0  0  0  0  0  0  0  0  0
    1.4812    1.0526    3.2593 H   0  0  0  0  0  0  0  0  0  0  0  0
   -0.9564    0.4997    3.3787 H   0  0  0  0  0  0  0  0  0  0  0  0
   -6.9105   -0.9301    1.3526 H   0  0  0  0  0  0  0  0  0  0  0  0
   -7.3667    0.4485    2.4014 H   0  0  0  0  0  0  0  0  0  0  0  0
   -7.5640   -1.2388    2.9833 H   0  0  0  0  0  0  0  0  0  0  0  0
   -4.3978   -0.7457    4.6427 H   0  0  0  0  0  0  0  0  0  0  0  0
   -6.1366   -1.0117    4.8977 H   0  0  0  0  0  0  0  0  0  0  0  0
   -5.8973    5.2646    6.5686 H   0  0  0  0  0  0  0  0  0  0  0  0
   -6.3908    7.6196    5.9105 H   0  0  0  0  0  0  0  0  0  0  0  0
   -6.8908    8.1685    3.5307 H   0  0  0  0  0  0  0  0  0  0  0  0
   -6.8949    6.3629    1.8125 H   0  0  0  0  0  0  0  0  0  0  0  0
   -6.3980    4.0065    2.4827 H   0  0  0  0  0  0  0  0  0  0  0  0
  1  2  2  0
  1  6  1  0
  1 26  1  0
  2  3  1  0
  2 27  1  0
  3  4  2  0
  3 28  1  0
  4  5  1  0
  4 29  1  0
  5  6  2  0
  5 30  1  0
  6  7  1  0
  7  8  2  0
  7 11  1  0
  8  9  1  0
  9 10  1  0
 10 11  2  0
 10 12  1  0
 12 13  1  0
 12 14  1  0
 13 31  1  0
 13 32  1  0
 13 33  1  0
 14 15  1  0
 14 34  1  0
 14 35  1  0
 15 16  2  0
 15 19  1  0
 16 17  1  0
 17 18  2  0
 17 20  1  0
 18 19  1  0
 20 21  2  0
 20 25  1  0
 21 22  1  0
 21 36  1  0
 22 23  2  0
 22 37  1  0
 23 24  1  0
 23 38  1  0
 24 25  2  0
 24 39  1  0
 25 40  1  0
M  END

