40
rmsd73.gzmat
C          0.00000        0.00000        0.00000
C          1.39170        0.00000        0.00000
C          2.09060        0.00000        1.20660
C          1.39930        0.00500        2.41760
C          0.00720        0.00590        2.42660
C         -0.69370       -0.00130        1.21550
C         -2.14790       -0.01540        1.21810
N         -2.94930       -0.01300        0.14630
O         -4.25170       -0.04200        0.59290
C         -4.18320       -0.06800        1.98900
N         -2.91450       -0.04180        2.40580
N         -5.34560       -0.26920        2.69680
C         -6.59280        0.10350        2.00990
C         -5.27730        0.07290        4.12580
C         -5.37380        1.53140        4.39550
N         -6.35930        2.38720        4.19960
C         -5.86660        3.63650        4.65470
N         -4.61530        3.48350        5.10710
O         -4.27330        2.16910        4.95120
C         -6.64480        4.86280        4.62750
C         -6.05540        6.06800        5.02670
C         -6.80490        7.24070        5.01320
C         -8.13670        7.21410        4.60150
C         -8.72250        6.01420        4.19930
C         -7.98010        4.83670        4.21060
H         -0.55120       -0.00070       -0.94320
H          1.93360       -0.00050       -0.94380
H          3.17920       -0.00330        1.20300
H          1.94690        0.00860        3.35810
H         -0.54260        0.01200        3.37180
H         -6.60530       -0.32370        0.99030
H         -6.74730        1.19670        1.93870
H         -7.44960       -0.32460        2.56240
H         -4.31910       -0.34400        4.55120
H         -6.11480       -0.46760        4.64480
H         -5.01110        6.08490        5.34760
H         -6.34980        8.17930        5.32530
H         -8.72010        8.13370        4.59320
H         -9.76180        5.99750        3.87670
H         -8.43300        3.89290        3.89770
