40
rmsd3.gzmat
C          0.00000        0.00000        0.00000
C          1.39200        0.00000        0.00000
C          2.09110        0.00000        1.20660
C          1.40000        0.00190        2.41740
C          0.00790        0.00020        2.42640
C         -0.69370       -0.00420        1.21560
C         -2.14810       -0.02120        1.22280
N         -2.95880        0.09500        0.16460
O         -4.25770        0.02040        0.61740
C         -4.17700       -0.15260        2.00180
N         -2.90490       -0.17320        2.40770
N         -5.33820       -0.41980        2.69300
C         -6.57130        0.11000        2.08590
C         -5.23430       -0.29190        4.15330
C         -5.23900        1.10790        4.65420
N         -5.93310        2.17200        4.29880
C         -5.50470        3.20710        5.17050
N         -4.58240        2.72770        6.01370
O         -4.38650        1.40810        5.70890
C         -6.03380        4.55970        5.13020
C         -5.73260        5.45110        6.16650
C         -6.25210        6.74200        6.13990
C         -7.06580        7.14650        5.08220
C         -7.36080        6.26020        4.04690
C         -6.84670        4.96650        4.06690
H         -0.55120        0.00430       -0.94280
H          1.93450        0.00020       -0.94340
H          3.17970        0.00080        1.20320
H          1.94720        0.00490        3.35800
H         -0.54090        0.00170        3.37230
H         -6.67780       -0.29630        1.06250
H         -6.59740        1.21610        2.03830
H         -7.44600       -0.22050        2.67320
H         -4.29450       -0.82020        4.49160
H         -6.09130       -0.86060        4.60630
H         -5.09130        5.13210        6.99130
H         -6.02220        7.43510        6.94720
H         -7.47080        8.15730        5.06460
H         -7.99470        6.57800        3.22160
H         -7.07620        4.26760        3.25940
