40
rmsd128.gzmat
C          0.00000        0.00000        0.00000
C          1.39210        0.00000        0.00000
C          2.09140        0.00000        1.20640
C          1.40050        0.00190        2.41770
C          0.00870        0.00800        2.42690
C         -0.69270        0.00810        1.21530
C         -2.14720        0.02420        1.22370
N         -2.93450        0.25660        2.28070
O         -4.24190        0.18300        1.85620
C         -4.19180       -0.09450        0.48700
N         -2.92880       -0.20590        0.06760
N         -5.36940       -0.06610       -0.22820
C         -6.59720       -0.22380        0.57080
C         -5.33850       -0.80490       -1.49860
C         -5.34670       -2.28410       -1.34760
N         -5.90970       -3.07390       -0.45370
C         -5.57270       -4.39320       -0.85380
N         -4.83070       -4.34760       -1.96580
O         -4.66350       -3.02950       -2.30000
C         -6.01470       -5.57650       -0.13540
C         -6.42660       -5.47140        1.19740
C         -6.85590       -6.60760        1.87770
C         -6.87680       -7.84280        1.23140
C         -6.46610       -7.94690       -0.09720
C         -6.03190       -6.81650       -0.78350
H         -0.55590       -0.00900       -0.94110
H          1.93400       -0.00110       -0.94380
H          3.18000       -0.00230        1.20280
H          1.94850       -0.00010        3.35810
H         -0.53710        0.01490        3.37300
H         -6.59660        0.50870        1.39940
H         -6.72030       -1.23970        0.99560
H         -7.47450       -0.00820       -0.06390
H         -4.42380       -0.48010       -2.07550
H         -6.22530       -0.48060       -2.10750
H         -6.41070       -4.50010        1.69690
H         -7.17480       -6.53060        2.91560
H         -7.21270       -8.72980        1.76620
H         -6.48380       -8.91310       -0.59850
H         -5.70450       -6.89420       -1.82210
