rmsd160.gzmat
 OpenBabel08211713373D

 31 32  0  0  1  0  0  0  0  0999 V2000
    0.0000    0.0000    0.0000 C   0  0  0  0  0  0  0  0  0  0  0  0
    1.3931    0.0000    0.0000 C   0  0  0  0  0  0  0  0  0  0  0  0
    2.0880    0.0000    1.2119 C   0  0  0  0  0  0  0  0  0  0  0  0
    1.3854    0.0049    2.4205 C   0  0  0  0  0  0  0  0  0  0  0  0
   -0.0069    0.0040    2.4145 C   0  0  0  0  0  0  0  0  0  0  0  0
   -0.7008   -0.0008    1.2050 C   0  0  0  0  0  0  0  0  0  0  0  0
    3.5524    0.0020    1.2318 C   0  0  0  0  0  0  0  0  0  0  0  0
    4.2549    1.0478    1.8371 C   0  0  0  0  0  0  0  0  0  0  0  0
    5.6454    1.0364    1.8790 C   0  0  0  0  0  0  0  0  0  0  0  0
    6.3635   -0.0200    1.3124 C   0  0  0  0  0  0  0  0  0  0  0  0
    5.6892   -1.0719    0.6914 C   0  0  0  0  0  0  0  0  0  0  0  0
    4.2969   -1.0382    0.6676 C   0  0  0  0  0  0  0  0  0  0  0  0
    3.6549   -2.0433    0.0940 F   0  0  0  0  0  0  0  0  0  0  0  0
    7.8655   -0.0592    1.3912 C   0  0  2  0  0  0  0  0  0  0  0  0
    8.2696   -0.8608    0.7119 H   0  0  0  0  0  0  0  0  0  0  0  0
    8.3102   -0.3467    2.8277 C   0  0  0  0  0  0  0  0  0  0  0  0
    8.4284    1.2737    0.9591 C   0  0  0  0  0  0  0  0  0  0  0  0
    8.4228    2.3255    1.5401 O   0  0  0  0  0  0  0  0  0  0  0  0
    9.0000    1.1584   -0.2668 O   0  0  0  0  0  0  0  0  0  0  0  0
   -0.5405    0.0005   -0.9448 H   0  0  0  0  0  0  0  0  0  0  0  0
    1.9395    0.0020   -0.9419 H   0  0  0  0  0  0  0  0  0  0  0  0
    1.9293    0.0022    3.3634 H   0  0  0  0  0  0  0  0  0  0  0  0
   -0.5528    0.0075    3.3558 H   0  0  0  0  0  0  0  0  0  0  0  0
   -1.7889   -0.0046    1.2028 H   0  0  0  0  0  0  0  0  0  0  0  0
    3.7029    1.8795    2.2784 H   0  0  0  0  0  0  0  0  0  0  0  0
    6.1779    1.8627    2.3578 H   0  0  0  0  0  0  0  0  0  0  0  0
    6.2333   -1.8989    0.2375 H   0  0  0  0  0  0  0  0  0  0  0  0
    9.3970   -0.4694    2.9002 H   0  0  0  0  0  0  0  0  0  0  0  0
    7.8449   -1.2668    3.2065 H   0  0  0  0  0  0  0  0  0  0  0  0
    8.0244    0.4679    3.5096 H   0  0  0  0  0  0  0  0  0  0  0  0
    9.3711    2.0057   -0.6168 H   0  0  0  0  0  0  0  0  0  0  0  0
  1  2  2  0  0  0  0
  1  6  1  0  0  0  0
  2  3  1  0  0  0  0
  3  7  1  0  0  0  0
  3  4  2  0  0  0  0
  4 22  1  0  0  0  0
  5  4  1  0  0  0  0
  5 23  1  0  0  0  0
  6  5  2  0  0  0  0
  7  8  2  0  0  0  0
  8  9  1  0  0  0  0
  8 25  1  0  0  0  0
  9 26  1  0  0  0  0
 10 14  1  0  0  0  0
 10  9  2  0  0  0  0
 11 10  1  0  0  0  0
 12 11  2  0  0  0  0
 12  7  1  0  0  0  0
 13 12  1  0  0  0  0
 14 15  1  6  0  0  0
 14 16  1  0  0  0  0
 16 28  1  0  0  0  0
 16 29  1  0  0  0  0
 16 30  1  0  0  0  0
 17 14  1  0  0  0  0
 17 18  2  0  0  0  0
 19 17  1  0  0  0  0
 20  1  1  0  0  0  0
 21  2  1  0  0  0  0
 24  6  1  0  0  0  0
 27 11  1  0  0  0  0
 31 19  1  0  0  0  0
M  END
$$$$
