31

C         -0.01060       -0.30960        0.03960
C          1.38460       -0.29950        0.06620
C          2.08370       -0.00220        1.25000
C          1.33990        0.29160        2.40750
C         -0.05500        0.27950        2.38020
C         -0.73690       -0.02100        1.19780
C          3.56690       -0.02810        1.26200
C          4.28690       -1.00240        0.54510
C          5.67930       -1.03290        0.52920
C          6.41940       -0.07650        1.24020
C          5.72800        0.89970        1.96330
C          4.33690        0.91110        1.96490
F          3.72480        1.88290        2.66450
C          7.94180       -0.07750        1.20050
H          8.29830        0.62790        1.96540
C          8.48140        0.32200       -0.17720
C          8.44020       -1.45880        1.59810
O          8.70790       -2.35030        0.83030
O          8.51730       -1.59960        2.93420
H         -0.53240       -0.53660       -0.89320
H          1.94300       -0.50520       -0.84950
H          1.85990        0.52290        3.33710
H         -0.61360        0.50420        3.29210
H         -1.82930       -0.02700        1.17840
H          3.72820       -1.76900        0.00470
H          6.19940       -1.81590       -0.02630
H          6.25520        1.66850        2.53160
H          9.58130        0.36360       -0.17250
H          8.09270        1.31000       -0.46350
H          8.17610       -0.41050       -0.93730
H          8.78920       -2.51810        3.10500
