rmsd162.gzmat
 OpenBabel08211713373D

 31 32  0  0  1  0  0  0  0  0999 V2000
    0.0000    0.0000    0.0000 C   0  0  0  0  0  0  0  0  0  0  0  0
    1.3924    0.0000    0.0000 C   0  0  0  0  0  0  0  0  0  0  0  0
    2.0880    0.0000    1.2122 C   0  0  0  0  0  0  0  0  0  0  0  0
    1.3889    0.0042    2.4212 C   0  0  0  0  0  0  0  0  0  0  0  0
   -0.0040    0.0063    2.4149 C   0  0  0  0  0  0  0  0  0  0  0  0
   -0.6985    0.0042    1.2062 C   0  0  0  0  0  0  0  0  0  0  0  0
    3.5526    0.0033    1.2050 C   0  0  0  0  0  0  0  0  0  0  0  0
    4.2604    1.0825    0.6700 C   0  0  0  0  0  0  0  0  0  0  0  0
    5.6517    1.0801    0.6585 C   0  0  0  0  0  0  0  0  0  0  0  0
    6.3639   -0.0050    1.1755 C   0  0  0  0  0  0  0  0  0  0  0  0
    5.6826   -1.0971    1.7137 C   0  0  0  0  0  0  0  0  0  0  0  0
    4.2900   -1.0671    1.7182 C   0  0  0  0  0  0  0  0  0  0  0  0
    3.6403   -2.1035    2.2233 F   0  0  0  0  0  0  0  0  0  0  0  0
    7.8682   -0.0070    1.1753 C   0  0  2  0  0  0  0  0  0  0  0  0
    8.2550   -1.0201    1.4779 H   0  0  0  0  0  0  0  0  0  0  0  0
    8.4103    1.0434    2.1476 C   0  0  0  0  0  0  0  0  0  0  0  0
    8.3713    0.3139   -0.2119 C   0  0  0  0  0  0  0  0  0  0  0  0
    8.2849    1.3382   -0.8338 O   0  0  0  0  0  0  0  0  0  0  0  0
    9.0006   -0.7686   -0.7358 O   0  0  0  0  0  0  0  0  0  0  0  0
   -0.5423   -0.0049   -0.9434 H   0  0  0  0  0  0  0  0  0  0  0  0
    1.9412   -0.0076   -0.9399 H   0  0  0  0  0  0  0  0  0  0  0  0
    1.9317    0.0070    3.3644 H   0  0  0  0  0  0  0  0  0  0  0  0
   -0.5501    0.0063    3.3565 H   0  0  0  0  0  0  0  0  0  0  0  0
   -1.7863    0.0050    1.2045 H   0  0  0  0  0  0  0  0  0  0  0  0
    3.7125    1.9322    0.2600 H   0  0  0  0  0  0  0  0  0  0  0  0
    6.1901    1.9308    0.2322 H   0  0  0  0  0  0  0  0  0  0  0  0
    6.2210   -1.9535    2.1159 H   0  0  0  0  0  0  0  0  0  0  0  0
    9.5061    1.0357    2.1835 H   0  0  0  0  0  0  0  0  0  0  0  0
    8.0436    0.8605    3.1660 H   0  0  0  0  0  0  0  0  0  0  0  0
    8.0973    2.0587    1.8646 H   0  0  0  0  0  0  0  0  0  0  0  0
    9.3441   -0.6279   -1.6520 H   0  0  0  0  0  0  0  0  0  0  0  0
  1  2  2  0  0  0  0
  1  6  1  0  0  0  0
  2  3  1  0  0  0  0
  3  4  2  0  0  0  0
  4 22  1  0  0  0  0
  5  4  1  0  0  0  0
  5 23  1  0  0  0  0
  6  5  2  0  0  0  0
  7  3  1  0  0  0  0
  7 12  2  0  0  0  0
  8  7  1  0  0  0  0
  9  8  2  0  0  0  0
  9 10  1  0  0  0  0
 10 11  2  0  0  0  0
 11 12  1  0  0  0  0
 11 27  1  0  0  0  0
 12 13  1  0  0  0  0
 14 10  1  0  0  0  0
 14 15  1  1  0  0  0
 14 16  1  0  0  0  0
 16 28  1  0  0  0  0
 16 29  1  0  0  0  0
 17 14  1  0  0  0  0
 18 17  2  0  0  0  0
 19 17  1  0  0  0  0
 20  1  1  0  0  0  0
 21  2  1  0  0  0  0
 24  6  1  0  0  0  0
 25  8  1  0  0  0  0
 26  9  1  0  0  0  0
 30 16  1  0  0  0  0
 31 19  1  0  0  0  0
M  END
$$$$
