rmsd10.gzmat
 OpenBabel08211713373D

 31 32  0  0  1  0  0  0  0  0999 V2000
    0.0000    0.0000    0.0000 C   0  0  0  0  0  0  0  0  0  0  0  0
    1.3922    0.0000    0.0000 C   0  0  0  0  0  0  0  0  0  0  0  0
    2.0876    0.0000    1.2123 C   0  0  0  0  0  0  0  0  0  0  0  0
    1.3886   -0.0013    2.4211 C   0  0  0  0  0  0  0  0  0  0  0  0
   -0.0045    0.0034    2.4148 C   0  0  0  0  0  0  0  0  0  0  0  0
   -0.6988    0.0046    1.2064 C   0  0  0  0  0  0  0  0  0  0  0  0
    3.5524    0.0136    1.2034 C   0  0  0  0  0  0  0  0  0  0  0  0
    4.2496    1.1145    0.6990 C   0  0  0  0  0  0  0  0  0  0  0  0
    5.6407    1.1217    0.6798 C   0  0  0  0  0  0  0  0  0  0  0  0
    6.3639    0.0257    1.1588 C   0  0  0  0  0  0  0  0  0  0  0  0
    5.6932   -1.0864    1.6685 C   0  0  0  0  0  0  0  0  0  0  0  0
    4.3004   -1.0658    1.6822 C   0  0  0  0  0  0  0  0  0  0  0  0
    3.6597   -2.1201    2.1612 F   0  0  0  0  0  0  0  0  0  0  0  0
    7.8684    0.0375    1.1476 C   0  0  2  0  0  0  0  0  0  0  0  0
    8.2675   -0.9777    1.4257 H   0  0  0  0  0  0  0  0  0  0  0  0
    8.4090    1.0737    2.1360 C   0  0  0  0  0  0  0  0  0  0  0  0
    8.3561    0.3931   -0.2369 C   0  0  0  0  0  0  0  0  0  0  0  0
    8.2725    1.4368   -0.8259 O   0  0  0  0  0  0  0  0  0  0  0  0
    8.9657   -0.6798   -0.8019 O   0  0  0  0  0  0  0  0  0  0  0  0
   -0.5425   -0.0053   -0.9431 H   0  0  0  0  0  0  0  0  0  0  0  0
    1.9410   -0.0069   -0.9400 H   0  0  0  0  0  0  0  0  0  0  0  0
    1.9314   -0.0046    3.3647 H   0  0  0  0  0  0  0  0  0  0  0  0
   -0.5501    0.0042    3.3564 H   0  0  0  0  0  0  0  0  0  0  0  0
   -1.7867    0.0076    1.2041 H   0  0  0  0  0  0  0  0  0  0  0  0
    3.6936    1.9731    0.3192 H   0  0  0  0  0  0  0  0  0  0  0  0
    6.1708    1.9885    0.2764 H   0  0  0  0  0  0  0  0  0  0  0  0
    6.2396   -1.9507    2.0429 H   0  0  0  0  0  0  0  0  0  0  0  0
    9.5038    1.0503    2.1905 H   0  0  0  0  0  0  0  0  0  0  0  0
    8.0218    0.8914    3.1467 H   0  0  0  0  0  0  0  0  0  0  0  0
    8.1161    2.0952    1.8535 H   0  0  0  0  0  0  0  0  0  0  0  0
    9.2978   -0.5164   -1.7188 H   0  0  0  0  0  0  0  0  0  0  0  0
  1  2  2  0  0  0  0
  1  6  1  0  0  0  0
  2  3  1  0  0  0  0
  3  4  2  0  0  0  0
  4 22  1  0  0  0  0
  5  4  1  0  0  0  0
  5 23  1  0  0  0  0
  6  5  2  0  0  0  0
  7  3  1  0  0  0  0
  7 12  2  0  0  0  0
  8  7  1  0  0  0  0
  9  8  2  0  0  0  0
  9 10  1  0  0  0  0
 10 11  2  0  0  0  0
 11 12  1  0  0  0  0
 11 27  1  0  0  0  0
 12 13  1  0  0  0  0
 14 10  1  0  0  0  0
 14 15  1  1  0  0  0
 14 16  1  0  0  0  0
 16 28  1  0  0  0  0
 16 29  1  0  0  0  0
 17 14  1  0  0  0  0
 18 17  2  0  0  0  0
 19 17  1  0  0  0  0
 20  1  1  0  0  0  0
 21  2  1  0  0  0  0
 24  6  1  0  0  0  0
 25  8  1  0  0  0  0
 26  9  1  0  0  0  0
 30 16  1  0  0  0  0
 31 19  1  0  0  0  0
M  END
$$$$
