31
rmsd161.gzmat
C          0.00000        0.00000        0.00000
C          1.39230        0.00000        0.00000
C          2.08760        0.00000        1.21260
C          1.38840        0.00910        2.42130
C         -0.00470        0.01120        2.41470
C         -0.69880        0.00460        1.20630
C          3.55210       -0.02070        1.20170
C          4.28340        1.04270        0.66710
C          5.67350        0.99330        0.62310
C          6.36010       -0.12410        1.10500
C          5.65550       -1.19310        1.65980
C          4.26570       -1.11460        1.69980
F          3.59300       -2.12850        2.22010
C          7.86170       -0.19260        1.03740
H          8.21520       -1.22390        1.31840
C          8.50070        0.82700        1.98210
C          8.30640        0.10870       -0.37440
O          8.30140        1.15520       -0.96450
O          8.76090       -1.02450       -0.96650
H         -0.54240       -0.00820       -0.94330
H          1.94080       -0.01080       -0.94050
H          1.93120        0.01180        3.36450
H         -0.55080        0.01230        3.35580
H         -1.78660       -0.00030        1.20370
H          3.75570        1.91520        0.27870
H          6.23050        1.83080        0.19500
H          6.17380       -2.06970        2.04490
H          9.59550        0.76400        1.96630
H          8.17390        0.66130        3.01640
H          8.22740        1.85740        1.71200
H          9.04930       -0.90010       -1.90360
