
     RDKit          3D

 31 32  0  0  0  0  0  0  0  0999 V2000
   -0.0150    0.3456    0.0292 C   0  0  0  0  0  0  0  0  0  0  0  0
    1.3802    0.3391    0.0502 C   0  0  0  0  0  0  0  0  0  0  0  0
    2.0847   -0.0272    1.2114 C   0  0  0  0  0  0  0  0  0  0  0  0
    1.3461   -0.3937    2.3514 C   0  0  0  0  0  0  0  0  0  0  0  0
   -0.0488   -0.3850    2.3297 C   0  0  0  0  0  0  0  0  0  0  0  0
   -0.7362   -0.0155    1.1702 C   0  0  0  0  0  0  0  0  0  0  0  0
    3.5678    0.0032    1.2204 C   0  0  0  0  0  0  0  0  0  0  0  0
    4.2826    1.0205    0.5602 C   0  0  0  0  0  0  0  0  0  0  0  0
    5.6748    1.0575    0.5437 C   0  0  0  0  0  0  0  0  0  0  0  0
    6.4201    0.0627    1.1941 C   0  0  0  0  0  0  0  0  0  0  0  0
    5.7340   -0.9614    1.8532 C   0  0  0  0  0  0  0  0  0  0  0  0
    4.3429   -0.9762    1.8600 C   0  0  0  0  0  0  0  0  0  0  0  0
    3.7360   -1.9926    2.4979 F   0  0  0  0  0  0  0  0  0  0  0  0
    7.9419    0.1154    1.2183 C   0  0  2  0  0  0  0  0  0  0  0  0
    8.3050   -0.8453    1.6119 H   0  0  0  0  0  0  0  0  0  0  0  0
    8.4644    1.2693    2.0811 C   0  0  0  0  0  0  0  0  0  0  0  0
    8.4494    0.2346   -0.2110 C   0  0  0  0  0  0  0  0  0  0  0  0
    8.7084    1.2698   -0.7741 O   0  0  0  0  0  0  0  0  0  0  0  0
    8.5458   -0.9658   -0.8113 O   0  0  0  0  0  0  0  0  0  0  0  0
   -0.5411    0.6271   -0.8863 H   0  0  0  0  0  0  0  0  0  0  0  0
    1.9345    0.6019   -0.8532 H   0  0  0  0  0  0  0  0  0  0  0  0
    1.8703   -0.6795    3.2633 H   0  0  0  0  0  0  0  0  0  0  0  0
   -0.6034   -0.6669    3.2281 H   0  0  0  0  0  0  0  0  0  0  0  0
   -1.8286   -0.0123    1.1550 H   0  0  0  0  0  0  0  0  0  0  0  0
    3.7199    1.8135    0.0639 H   0  0  0  0  0  0  0  0  0  0  0  0
    6.1909    1.8650    0.0207 H   0  0  0  0  0  0  0  0  0  0  0  0
    6.2653   -1.7664    2.3646 H   0  0  0  0  0  0  0  0  0  0  0  0
    9.5641    1.2605    2.1266 H   0  0  0  0  0  0  0  0  0  0  0  0
    8.0687    1.1860    3.1038 H   0  0  0  0  0  0  0  0  0  0  0  0
    8.1532    2.2358    1.6608 H   0  0  0  0  0  0  0  0  0  0  0  0
    8.8229   -0.7999   -1.7292 H   0  0  0  0  0  0  0  0  0  0  0  0
  1  2  2  0
  1  6  1  0
  1 20  1  0
  2  3  1  0
  2 21  1  0
  3  4  2  0
  3  7  1  0
  4  5  1  0
  4 22  1  0
  5  6  2  0
  5 23  1  0
  6 24  1  0
  7  8  2  0
  7 12  1  0
  8  9  1  0
  8 25  1  0
  9 10  2  0
  9 26  1  0
 10 11  1  0
 10 14  1  0
 11 12  2  0
 11 27  1  0
 12 13  1  0
 14 15  1  1
 14 16  1  0
 14 17  1  0
 16 28  1  0
 16 29  1  0
 16 30  1  0
 17 18  2  0
 17 19  1  0
 19 31  1  0
M  END

