rmsd120.gzmat
 OpenBabel08211713373D

 31 32  0  0  1  0  0  0  0  0999 V2000
    0.0000    0.0000    0.0000 C   0  0  0  0  0  0  0  0  0  0  0  0
    1.3926    0.0000    0.0000 C   0  0  0  0  0  0  0  0  0  0  0  0
    2.0879    0.0000    1.2121 C   0  0  0  0  0  0  0  0  0  0  0  0
    1.3878    0.0006    2.4214 C   0  0  0  0  0  0  0  0  0  0  0  0
   -0.0050   -0.0034    2.4151 C   0  0  0  0  0  0  0  0  0  0  0  0
   -0.6991   -0.0029    1.2059 C   0  0  0  0  0  0  0  0  0  0  0  0
    3.5529    0.0120    1.2129 C   0  0  0  0  0  0  0  0  0  0  0  0
    4.2591    1.1009    1.7299 C   0  0  0  0  0  0  0  0  0  0  0  0
    5.6504    1.1197    1.7036 C   0  0  0  0  0  0  0  0  0  0  0  0
    6.3649    0.0501    1.1585 C   0  0  0  0  0  0  0  0  0  0  0  0
    5.6854   -1.0582    0.6513 C   0  0  0  0  0  0  0  0  0  0  0  0
    4.2933   -1.0530    0.6918 C   0  0  0  0  0  0  0  0  0  0  0  0
    3.6461   -2.1056    0.2181 F   0  0  0  0  0  0  0  0  0  0  0  0
    7.8690    0.0642    1.1235 C   0  0  2  0  0  0  0  0  0  0  0  0
    8.2490   -0.7857    0.4903 H   0  0  0  0  0  0  0  0  0  0  0  0
    8.4455   -0.0712    2.5349 C   0  0  0  0  0  0  0  0  0  0  0  0
    8.3474    1.3672    0.5287 C   0  0  0  0  0  0  0  0  0  0  0  0
    8.2483    2.4833    0.9625 O   0  0  0  0  0  0  0  0  0  0  0  0
    8.9689    1.1330   -0.6554 O   0  0  0  0  0  0  0  0  0  0  0  0
   -0.5424    0.0011   -0.9436 H   0  0  0  0  0  0  0  0  0  0  0  0
    1.9400    0.0007   -0.9413 H   0  0  0  0  0  0  0  0  0  0  0  0
    1.9322   -0.0025    3.3639 H   0  0  0  0  0  0  0  0  0  0  0  0
   -0.5527   -0.0080    3.3554 H   0  0  0  0  0  0  0  0  0  0  0  0
   -1.7870   -0.0056    1.2033 H   0  0  0  0  0  0  0  0  0  0  0  0
    3.7100    1.9459    2.1489 H   0  0  0  0  0  0  0  0  0  0  0  0
    6.1860    1.9849    2.1039 H   0  0  0  0  0  0  0  0  0  0  0  0
    6.2252   -1.9053    0.2316 H   0  0  0  0  0  0  0  0  0  0  0  0
    9.5384   -0.1602    2.5194 H   0  0  0  0  0  0  0  0  0  0  0  0
    8.0473   -0.9631    3.0363 H   0  0  0  0  0  0  0  0  0  0  0  0
    8.1938    0.7954    3.1629 H   0  0  0  0  0  0  0  0  0  0  0  0
    9.2953    1.9504   -1.1058 H   0  0  0  0  0  0  0  0  0  0  0  0
  1  2  2  0  0  0  0
  1  6  1  0  0  0  0
  2  3  1  0  0  0  0
  3  7  1  0  0  0  0
  3  4  2  0  0  0  0
  4 22  1  0  0  0  0
  5  4  1  0  0  0  0
  5 23  1  0  0  0  0
  6  5  2  0  0  0  0
  7  8  2  0  0  0  0
  8 25  1  0  0  0  0
  9  8  1  0  0  0  0
  9 26  1  0  0  0  0
 10  9  2  0  0  0  0
 11 12  2  0  0  0  0
 11 10  1  0  0  0  0
 12  7  1  0  0  0  0
 13 12  1  0  0  0  0
 14 15  1  6  0  0  0
 14 10  1  0  0  0  0
 14 16  1  0  0  0  0
 16 29  1  0  0  0  0
 16 30  1  0  0  0  0
 17 18  2  0  0  0  0
 17 14  1  0  0  0  0
 19 17  1  0  0  0  0
 20  1  1  0  0  0  0
 21  2  1  0  0  0  0
 24  6  1  0  0  0  0
 27 11  1  0  0  0  0
 28 16  1  0  0  0  0
 31 19  1  0  0  0  0
M  END
$$$$
