rmsd155.gzmat
 OpenBabel08211713373D

 31 32  0  0  1  0  0  0  0  0999 V2000
    0.0000    0.0000    0.0000 C   0  0  0  0  0  0  0  0  0  0  0  0
    1.3924    0.0000    0.0000 C   0  0  0  0  0  0  0  0  0  0  0  0
    2.0881    0.0000    1.2124 C   0  0  0  0  0  0  0  0  0  0  0  0
    1.3879    0.0049    2.4213 C   0  0  0  0  0  0  0  0  0  0  0  0
   -0.0050    0.0069    2.4150 C   0  0  0  0  0  0  0  0  0  0  0  0
   -0.6990    0.0023    1.2061 C   0  0  0  0  0  0  0  0  0  0  0  0
    3.5529   -0.0038    1.2060 C   0  0  0  0  0  0  0  0  0  0  0  0
    4.2694    1.0596    0.6505 C   0  0  0  0  0  0  0  0  0  0  0  0
    5.6607    1.0473    0.6403 C   0  0  0  0  0  0  0  0  0  0  0  0
    6.3653   -0.0308    1.1823 C   0  0  0  0  0  0  0  0  0  0  0  0
    5.6759   -1.1104    1.7355 C   0  0  0  0  0  0  0  0  0  0  0  0
    4.2836   -1.0705    1.7384 C   0  0  0  0  0  0  0  0  0  0  0  0
    3.6269   -2.0939    2.2606 F   0  0  0  0  0  0  0  0  0  0  0  0
    7.8697   -0.0387    1.1872 C   0  0  2  0  0  0  0  0  0  0  0  0
    8.2521   -1.0343    1.5476 H   0  0  0  0  0  0  0  0  0  0  0  0
    8.4195    1.0634    2.0957 C   0  0  0  0  0  0  0  0  0  0  0  0
    8.3688    0.1989   -0.2184 C   0  0  0  0  0  0  0  0  0  0  0  0
    8.3341    1.2035   -0.8764 O   0  0  0  0  0  0  0  0  0  0  0  0
    8.9175   -0.9410   -0.7101 O   0  0  0  0  0  0  0  0  0  0  0  0
   -0.5433   -0.0049   -0.9430 H   0  0  0  0  0  0  0  0  0  0  0  0
    1.9404   -0.0105   -0.9407 H   0  0  0  0  0  0  0  0  0  0  0  0
    1.9300    0.0081    3.3655 H   0  0  0  0  0  0  0  0  0  0  0  0
   -0.5513    0.0107    3.3562 H   0  0  0  0  0  0  0  0  0  0  0  0
   -1.7868   -0.0008    1.2038 H   0  0  0  0  0  0  0  0  0  0  0  0
    3.7285    1.9055    0.2233 H   0  0  0  0  0  0  0  0  0  0  0  0
    6.2065    1.8827    0.1938 H   0  0  0  0  0  0  0  0  0  0  0  0
    6.2084   -1.9655    2.1488 H   0  0  0  0  0  0  0  0  0  0  0  0
    9.5133    1.0218    2.1656 H   0  0  0  0  0  0  0  0  0  0  0  0
    8.0182    0.9721    3.1132 H   0  0  0  0  0  0  0  0  0  0  0  0
    8.1516    2.0642    1.7268 H   0  0  0  0  0  0  0  0  0  0  0  0
    9.2441   -0.8611   -1.6397 H   0  0  0  0  0  0  0  0  0  0  0  0
  1  2  2  0  0  0  0
  1  6  1  0  0  0  0
  2  3  1  0  0  0  0
  3  4  2  0  0  0  0
  4 22  1  0  0  0  0
  5  4  1  0  0  0  0
  5 23  1  0  0  0  0
  6  5  2  0  0  0  0
  7  3  1  0  0  0  0
  7 12  2  0  0  0  0
  8  7  1  0  0  0  0
  9  8  2  0  0  0  0
  9 10  1  0  0  0  0
 10 14  1  0  0  0  0
 10 11  2  0  0  0  0
 11 12  1  0  0  0  0
 11 27  1  0  0  0  0
 12 13  1  0  0  0  0
 14 15  1  1  0  0  0
 14 16  1  0  0  0  0
 16 28  1  0  0  0  0
 16 29  1  0  0  0  0
 17 14  1  0  0  0  0
 18 17  2  0  0  0  0
 19 17  1  0  0  0  0
 20  1  1  0  0  0  0
 21  2  1  0  0  0  0
 24  6  1  0  0  0  0
 25  8  1  0  0  0  0
 26  9  1  0  0  0  0
 30 16  1  0  0  0  0
 31 19  1  0  0  0  0
M  END
$$$$
