31
rmsd162.gzmat
C          0.00000        0.00000        0.00000
C          1.39240        0.00000        0.00000
C          2.08800        0.00000        1.21220
C          1.38890        0.00420        2.42120
C         -0.00400        0.00630        2.41490
C         -0.69850        0.00420        1.20620
C          3.55260        0.00330        1.20500
C          4.26040        1.08250        0.67000
C          5.65170        1.08010        0.65850
C          6.36390       -0.00500        1.17550
C          5.68260       -1.09710        1.71370
C          4.29000       -1.06710        1.71820
F          3.64030       -2.10350        2.22330
C          7.86820       -0.00700        1.17530
H          8.25500       -1.02010        1.47790
C          8.41030        1.04340        2.14760
C          8.37130        0.31390       -0.21190
O          8.28490        1.33820       -0.83380
O          9.00060       -0.76860       -0.73580
H         -0.54230       -0.00490       -0.94340
H          1.94120       -0.00760       -0.93990
H          1.93170        0.00700        3.36440
H         -0.55010        0.00630        3.35650
H         -1.78630        0.00500        1.20450
H          3.71250        1.93220        0.26000
H          6.19010        1.93080        0.23220
H          6.22100       -1.95350        2.11590
H          9.50610        1.03570        2.18350
H          8.04360        0.86050        3.16600
H          8.09730        2.05870        1.86460
H          9.34410       -0.62790       -1.65200
