31
rmsd120.gzmat
C          0.00000        0.00000        0.00000
C          1.39260        0.00000        0.00000
C          2.08790        0.00000        1.21210
C          1.38780        0.00060        2.42140
C         -0.00500       -0.00340        2.41510
C         -0.69910       -0.00290        1.20590
C          3.55290        0.01200        1.21290
C          4.25910        1.10090        1.72990
C          5.65040        1.11970        1.70360
C          6.36490        0.05010        1.15850
C          5.68540       -1.05820        0.65130
C          4.29330       -1.05300        0.69180
F          3.64610       -2.10560        0.21810
C          7.86900        0.06420        1.12350
H          8.24900       -0.78570        0.49030
C          8.44550       -0.07120        2.53490
C          8.34740        1.36720        0.52870
O          8.24830        2.48330        0.96250
O          8.96890        1.13300       -0.65540
H         -0.54240        0.00110       -0.94360
H          1.94000        0.00070       -0.94130
H          1.93220       -0.00250        3.36390
H         -0.55270       -0.00800        3.35540
H         -1.78700       -0.00560        1.20330
H          3.71000        1.94590        2.14890
H          6.18600        1.98490        2.10390
H          6.22520       -1.90530        0.23160
H          9.53840       -0.16020        2.51940
H          8.04730       -0.96310        3.03630
H          8.19380        0.79540        3.16290
H          9.29530        1.95040       -1.10580
