rmsd142.gzmat
 OpenBabel08211713363D

 25 25  0  0  1  0  0  0  0  0999 V2000
    0.0000    0.0000    0.0000 N   0  0  0  0  0  0  0  0  0  0  0  0
    1.0343    0.0000    0.0000 H   0  0  0  0  0  0  0  0  0  0  0  0
   -0.3181    0.0000   -0.9873 H   0  0  0  0  0  0  0  0  0  0  0  0
   -0.3551    0.8628    0.4611 H   0  0  0  0  0  0  0  0  0  0  0  0
   -0.5451   -1.2271    0.7280 C   0  0  2  0  0  0  0  0  0  0  0  0
   -0.1218   -1.2320    1.7756 H   0  0  0  0  0  0  0  0  0  0  0  0
   -0.1171   -2.5058    0.0177 C   0  0  0  0  0  0  0  0  0  0  0  0
   -0.3726   -3.6241    0.3332 O   0  0  0  0  0  0  0  0  0  0  0  0
    0.6268   -2.1636   -1.0633 O   0  0  0  0  0  0  0  0  0  0  0  0
   -2.0762   -1.1453    0.7823 C   0  0  0  0  0  0  0  0  0  0  0  0
   -2.5048    0.1466    1.4014 C   0  0  0  0  0  0  0  0  0  0  0  0
   -3.0250    1.1706    0.5972 C   0  0  0  0  0  0  0  0  0  0  0  0
   -3.4340    2.3669    1.1598 C   0  0  0  0  0  0  0  0  0  0  0  0
   -3.3403    2.5217    2.5537 C   0  0  0  0  0  0  0  0  0  0  0  0
   -2.8409    1.5056    3.3760 C   0  0  0  0  0  0  0  0  0  0  0  0
   -2.4330    0.3150    2.7870 C   0  0  0  0  0  0  0  0  0  0  0  0
   -3.7687    3.7079    3.0217 O   0  0  0  0  0  0  0  0  0  0  0  0
    0.9634   -2.9367   -1.6027 H   0  0  0  0  0  0  0  0  0  0  0  0
   -2.5342   -1.2908   -0.2210 H   0  0  0  0  0  0  0  0  0  0  0  0
   -2.4742   -2.0123    1.3720 H   0  0  0  0  0  0  0  0  0  0  0  0
   -3.1453    1.0194   -0.4766 H   0  0  0  0  0  0  0  0  0  0  0  0
   -3.8541    3.1756    0.5578 H   0  0  0  0  0  0  0  0  0  0  0  0
   -2.7936    1.6336    4.4561 H   0  0  0  0  0  0  0  0  0  0  0  0
   -2.0707   -0.4976    3.4207 H   0  0  0  0  0  0  0  0  0  0  0  0
   -3.7567    3.7631    4.0162 H   0  0  0  0  0  0  0  0  0  0  0  0
  1  4  1  0  0  0  0
  1  5  1  0  0  0  0
  2  1  1  0  0  0  0
  3  1  1  0  0  0  0
  5 10  1  0  0  0  0
  5  6  1  1  0  0  0
  7  8  2  0  0  0  0
  7  5  1  0  0  0  0
  9  7  1  0  0  0  0
 10 20  1  0  0  0  0
 10 11  1  0  0  0  0
 11 16  2  0  0  0  0
 12 13  2  0  0  0  0
 12 11  1  0  0  0  0
 13 14  1  0  0  0  0
 14 17  1  0  0  0  0
 14 15  2  0  0  0  0
 15 23  1  0  0  0  0
 16 15  1  0  0  0  0
 16 24  1  0  0  0  0
 17 25  1  0  0  0  0
 18  9  1  0  0  0  0
 19 10  1  0  0  0  0
 21 12  1  0  0  0  0
 22 13  1  0  0  0  0
M  END
$$$$
