25
rmsd106.gzmat
N          0.00000        0.00000        0.00000
H          1.03470        0.00000        0.00000
H         -0.31840        0.00000       -0.98690
H         -0.35630        0.86220        0.46100
C         -0.54400       -1.22700        0.72820
H         -0.11970       -1.23180        1.77550
C         -0.11690       -2.50630        0.01870
O         -0.39640       -3.62250        0.32170
O          0.65790       -2.17080       -1.04190
C         -2.07490       -1.14680        0.78170
C         -2.51390        0.14390        1.39570
C         -3.06190        1.15120        0.58850
C         -3.50040        2.33910        1.14700
C         -3.40490        2.50240        2.54000
C         -2.87130        1.50570        3.36440
C         -2.43720        0.32250        2.77950
O         -3.86440        3.67740        3.00700
H          0.99120       -2.94800       -1.57810
H         -2.53100       -1.29610       -0.22200
H         -2.47160       -2.01400        1.37300
H         -3.17930        0.99170       -0.48440
H         -3.94100        3.13550        0.54300
H         -2.81780        1.64260        4.44280
H         -2.05360       -0.47760        3.41640
H         -3.83250        3.74090        4.00050
