25
rmsd142.gzmat
N          0.00000        0.00000        0.00000
H          1.03430        0.00000        0.00000
H         -0.31810        0.00000       -0.98730
H         -0.35510        0.86280        0.46110
C         -0.54510       -1.22710        0.72800
H         -0.12180       -1.23200        1.77560
C         -0.11710       -2.50580        0.01770
O         -0.37260       -3.62410        0.33320
O          0.62680       -2.16360       -1.06330
C         -2.07620       -1.14530        0.78230
C         -2.50480        0.14660        1.40140
C         -3.02500        1.17060        0.59720
C         -3.43400        2.36690        1.15980
C         -3.34030        2.52170        2.55370
C         -2.84090        1.50560        3.37600
C         -2.43300        0.31500        2.78700
O         -3.76870        3.70790        3.02170
H          0.96340       -2.93670       -1.60270
H         -2.53420       -1.29080       -0.22100
H         -2.47420       -2.01230        1.37200
H         -3.14530        1.01940       -0.47660
H         -3.85410        3.17560        0.55780
H         -2.79360        1.63360        4.45610
H         -2.07070       -0.49760        3.42070
H         -3.75670        3.76310        4.01620
