rmsd105.gzmat
 OpenBabel08211713363D

 25 25  0  0  1  0  0  0  0  0999 V2000
    0.0000    0.0000    0.0000 N   0  0  0  0  0  0  0  0  0  0  0  0
    1.0346    0.0000    0.0000 H   0  0  0  0  0  0  0  0  0  0  0  0
   -0.3166    0.0000   -0.9879 H   0  0  0  0  0  0  0  0  0  0  0  0
   -0.3556    0.8627    0.4622 H   0  0  0  0  0  0  0  0  0  0  0  0
   -0.5446   -1.2264    0.7294 C   0  0  2  0  0  0  0  0  0  0  0  0
   -0.0896   -1.2527    1.7639 H   0  0  0  0  0  0  0  0  0  0  0  0
   -0.1589   -2.5032   -0.0067 C   0  0  0  0  0  0  0  0  0  0  0  0
   -0.4489   -3.6188    0.2889 O   0  0  0  0  0  0  0  0  0  0  0  0
    0.5986   -2.1674   -1.0799 O   0  0  0  0  0  0  0  0  0  0  0  0
   -2.0707   -1.1145    0.8360 C   0  0  0  0  0  0  0  0  0  0  0  0
   -2.4442    0.1350    1.5677 C   0  0  0  0  0  0  0  0  0  0  0  0
   -2.8791    1.2621    0.8561 C   0  0  0  0  0  0  0  0  0  0  0  0
   -3.2213    2.4255    1.5230 C   0  0  0  0  0  0  0  0  0  0  0  0
   -3.1465    2.4423    2.9266 C   0  0  0  0  0  0  0  0  0  0  0  0
   -2.7421    1.3195    3.6567 C   0  0  0  0  0  0  0  0  0  0  0  0
   -2.3986    0.1650    2.9639 C   0  0  0  0  0  0  0  0  0  0  0  0
   -3.4934    3.6087    3.5008 O   0  0  0  0  0  0  0  0  0  0  0  0
    0.9129   -2.9447   -1.6279 H   0  0  0  0  0  0  0  0  0  0  0  0
   -2.5620   -1.1688   -0.1600 H   0  0  0  0  0  0  0  0  0  0  0  0
   -2.4728   -2.0161    1.3681 H   0  0  0  0  0  0  0  0  0  0  0  0
   -2.9872    1.2195   -0.2283 H   0  0  0  0  0  0  0  0  0  0  0  0
   -3.5716    3.3141    0.9939 H   0  0  0  0  0  0  0  0  0  0  0  0
   -2.7156    1.3423    4.7449 H   0  0  0  0  0  0  0  0  0  0  0  0
   -2.1083   -0.7280    3.5225 H   0  0  0  0  0  0  0  0  0  0  0  0
   -3.4912    3.5676    4.4963 H   0  0  0  0  0  0  0  0  0  0  0  0
  1  4  1  0  0  0  0
  1  5  1  0  0  0  0
  2  1  1  0  0  0  0
  3  1  1  0  0  0  0
  5 10  1  0  0  0  0
  5  6  1  1  0  0  0
  7  8  2  0  0  0  0
  7  5  1  0  0  0  0
  9  7  1  0  0  0  0
 10 20  1  0  0  0  0
 10 11  1  0  0  0  0
 11 16  2  0  0  0  0
 12 13  2  0  0  0  0
 12 11  1  0  0  0  0
 13 14  1  0  0  0  0
 14 17  1  0  0  0  0
 14 15  2  0  0  0  0
 15 23  1  0  0  0  0
 16 24  1  0  0  0  0
 16 15  1  0  0  0  0
 17 25  1  0  0  0  0
 18  9  1  0  0  0  0
 19 10  1  0  0  0  0
 21 12  1  0  0  0  0
 22 13  1  0  0  0  0
M  END
$$$$
