rmsd135.gzmat
 OpenBabel08211713363D

 25 25  0  0  1  0  0  0  0  0999 V2000
    0.0000    0.0000    0.0000 N   0  0  0  0  0  0  0  0  0  0  0  0
    1.0342    0.0000    0.0000 H   0  0  0  0  0  0  0  0  0  0  0  0
   -0.3169    0.0000   -0.9875 H   0  0  0  0  0  0  0  0  0  0  0  0
   -0.3554    0.8630    0.4612 H   0  0  0  0  0  0  0  0  0  0  0  0
   -0.5423   -1.2272    0.7295 C   0  0  2  0  0  0  0  0  0  0  0  0
   -0.0886   -1.2513    1.7645 H   0  0  0  0  0  0  0  0  0  0  0  0
   -0.1550   -2.5048   -0.0052 C   0  0  0  0  0  0  0  0  0  0  0  0
   -0.4390   -3.6199    0.2969 O   0  0  0  0  0  0  0  0  0  0  0  0
    0.5911   -2.1684   -1.0854 O   0  0  0  0  0  0  0  0  0  0  0  0
   -2.0691   -1.1247    0.8317 C   0  0  0  0  0  0  0  0  0  0  0  0
   -2.4611    0.1455    1.5158 C   0  0  0  0  0  0  0  0  0  0  0  0
   -2.9801    1.2124    0.7689 C   0  0  0  0  0  0  0  0  0  0  0  0
   -3.3673    2.3852    1.3938 C   0  0  0  0  0  0  0  0  0  0  0  0
   -3.2519    2.4717    2.7919 C   0  0  0  0  0  0  0  0  0  0  0  0
   -2.7466    1.4143    3.5567 C   0  0  0  0  0  0  0  0  0  0  0  0
   -2.3606    0.2493    2.9055 C   0  0  0  0  0  0  0  0  0  0  0  0
   -3.6638    3.6354    3.3271 O   0  0  0  0  0  0  0  0  0  0  0  0
    0.9054   -2.9443   -1.6349 H   0  0  0  0  0  0  0  0  0  0  0  0
   -2.5580   -1.2232   -0.1624 H   0  0  0  0  0  0  0  0  0  0  0  0
   -2.4646   -2.0095    1.3971 H   0  0  0  0  0  0  0  0  0  0  0  0
   -3.1170    1.1129   -0.3087 H   0  0  0  0  0  0  0  0  0  0  0  0
   -3.7842    3.2266    0.8363 H   0  0  0  0  0  0  0  0  0  0  0  0
   -2.6780    1.4925    4.6405 H   0  0  0  0  0  0  0  0  0  0  0  0
   -1.9945   -0.5951    3.4938 H   0  0  0  0  0  0  0  0  0  0  0  0
   -3.6311    3.6380    4.3231 H   0  0  0  0  0  0  0  0  0  0  0  0
  1  4  1  0  0  0  0
  1  5  1  0  0  0  0
  2  1  1  0  0  0  0
  3  1  1  0  0  0  0
  5 10  1  0  0  0  0
  5  6  1  1  0  0  0
  7  8  2  0  0  0  0
  7  5  1  0  0  0  0
  9  7  1  0  0  0  0
 10 20  1  0  0  0  0
 10 11  1  0  0  0  0
 11 16  2  0  0  0  0
 12 13  2  0  0  0  0
 12 11  1  0  0  0  0
 13 14  1  0  0  0  0
 14 17  1  0  0  0  0
 14 15  2  0  0  0  0
 15 23  1  0  0  0  0
 16 24  1  0  0  0  0
 16 15  1  0  0  0  0
 17 25  1  0  0  0  0
 18  9  1  0  0  0  0
 19 10  1  0  0  0  0
 21 12  1  0  0  0  0
 22 13  1  0  0  0  0
M  END
$$$$
