rmsd196.gzmat
 OpenBabel08211713423D

 35 36  0  0  0  0  0  0  0  0999 V2000
    0.0000    0.0000    0.0000 C   0  0  0  0  0  0  0  0  0  0  0  0
    1.3891    0.0000    0.0000 C   0  0  0  0  0  0  0  0  0  0  0  0
    2.1979    0.0000    1.5065 Cl  0  0  0  0  0  0  0  0  0  0  0  0
    2.1391    0.0032   -1.1607 C   0  0  0  0  0  0  0  0  0  0  0  0
    1.4563    0.0093   -2.3971 C   0  0  0  0  0  0  0  0  0  0  0  0
    0.0515    0.0110   -2.4194 C   0  0  0  0  0  0  0  0  0  0  0  0
   -0.6636    0.0103   -1.2282 C   0  0  0  0  0  0  0  0  0  0  0  0
    2.2543    0.0019   -3.5527 N   0  0  0  0  0  0  0  0  0  0  0  0
    1.7828    0.0933   -4.8638 C   0  0  0  0  0  0  0  0  0  0  0  0
    0.6020    0.1220   -5.1278 O   0  0  0  0  0  0  0  0  0  0  0  0
    2.8146    0.0792   -5.9380 C   0  0  0  0  0  0  0  0  0  0  0  0
    2.4745   -0.5885   -7.1131 C   0  0  0  0  0  0  0  0  0  0  0  0
    3.3572   -0.6179   -8.1941 C   0  0  0  0  0  0  0  0  0  0  0  0
    2.9982   -1.3462   -9.4420 C   0  0  0  0  0  0  0  0  0  0  0  0
    4.5858    0.0393   -8.1003 C   0  0  0  0  0  0  0  0  0  0  0  0
    4.9393    0.7169   -6.9355 C   0  0  0  0  0  0  0  0  0  0  0  0
    6.8238    1.6767   -6.8956 I   0  0  0  0  0  0  0  0  0  0  0  0
    4.0537    0.7348   -5.8538 C   0  0  0  0  0  0  0  0  0  0  0  0
    4.2732    1.3340   -4.6583 O   0  0  0  0  0  0  0  0  0  0  0  0
   -0.7674   -0.0353    1.2731 C   0  0  0  0  0  0  0  0  0  0  0  0
   -1.3025   -1.0699    1.8275 N   0  0  0  0  0  0  0  0  0  0  0  0
   -0.9561    1.2124    1.8760 N   0  0  0  0  0  0  0  0  0  0  0  0
    3.2269    0.0007   -1.1250 H   0  0  0  0  0  0  0  0  0  0  0  0
   -0.4921    0.0183   -3.3695 H   0  0  0  0  0  0  0  0  0  0  0  0
   -1.7569    0.0224   -1.2492 H   0  0  0  0  0  0  0  0  0  0  0  0
    3.2633    0.0495   -3.4091 H   0  0  0  0  0  0  0  0  0  0  0  0
    1.4982   -1.0829   -7.1844 H   0  0  0  0  0  0  0  0  0  0  0  0
    3.2105   -0.7508  -10.3425 H   0  0  0  0  0  0  0  0  0  0  0  0
    1.9321   -1.6132   -9.4863 H   0  0  0  0  0  0  0  0  0  0  0  0
    3.5667   -2.2853   -9.5324 H   0  0  0  0  0  0  0  0  0  0  0  0
    5.2595    0.0096   -8.9611 H   0  0  0  0  0  0  0  0  0  0  0  0
    5.0670    1.9209   -4.6245 H   0  0  0  0  0  0  0  0  0  0  0  0
   -1.2681   -1.9662    1.3802 H   0  0  0  0  0  0  0  0  0  0  0  0
   -0.2713    1.9209    1.7105 H   0  0  0  0  0  0  0  0  0  0  0  0
   -1.3598    1.2144    2.7976 H   0  0  0  0  0  0  0  0  0  0  0  0
  1  2  1  0  0  0  0
  1 20  1  0  0  0  0
  2  3  1  0  0  0  0
  4 23  1  0  0  0  0
  4  2  2  0  0  0  0
  5  4  1  0  0  0  0
  6  5  2  0  0  0  0
  6  7  1  0  0  0  0
  7  1  2  0  0  0  0
  8 26  1  0  0  0  0
  8  5  1  0  0  0  0
  9  8  1  0  0  0  0
 10  9  2  0  0  0  0
 11 18  1  0  0  0  0
 11  9  1  0  0  0  0
 12 11  2  0  0  0  0
 13 15  2  0  0  0  0
 13 12  1  0  0  0  0
 14 13  1  0  0  0  0
 15 16  1  0  0  0  0
 16 17  1  0  0  0  0
 16 18  2  0  0  0  0
 18 19  1  0  0  0  0
 19 32  1  0  0  0  0
 20 21  1  0  0  0  0
 20 22  2  0  0  0  0
 22 35  1  0  0  0  0
 24  6  1  0  0  0  0
 25  7  1  0  0  0  0
 27 12  1  0  0  0  0
 28 14  1  0  0  0  0
 29 14  1  0  0  0  0
 30 14  1  0  0  0  0
 31 15  1  0  0  0  0
 33 21  1  0  0  0  0
 34 22  1  0  0  0  0
M  RAD  1  21   2
M  END
$$$$
