35
rmsd199.gzmat
C          0.00000        0.00000        0.00000
C          1.38920        0.00000        0.00000
Cl         2.19730        0.00000        1.50650
C          2.13890       -0.00280       -1.16070
C          1.45610       -0.02170       -2.39720
C          0.05160       -0.04060       -2.41910
C         -0.66360       -0.02680       -1.22780
N          2.25630       -0.02940       -3.55130
C          1.78520       -0.03070       -4.86580
O          0.60630       -0.09900       -5.13180
C          2.82060       -0.02130       -5.93670
C          2.52940       -0.75750       -7.08420
C          3.41840       -0.77660       -8.15990
C          3.11210       -1.56910       -9.38240
C          4.60640       -0.04620       -8.08680
C          4.90890        0.70260       -6.95210
I          6.73200        1.77530       -6.94510
C          4.01480        0.71510       -5.87720
O          4.18710        1.38210       -4.71050
C         -0.76370        0.05160        1.27450
N         -1.23680        1.10230        1.85410
N         -1.02510       -1.19680        1.84940
H          3.22640        0.00720       -1.12530
H         -0.49180       -0.06420       -3.36890
H         -1.75680       -0.04120       -1.24850
H          3.25960        0.08890       -3.40870
H          1.58580       -1.31380       -7.13700
H          3.26140       -0.98010      -10.29970
H          2.07360       -1.93010       -9.40650
H          3.76060       -2.45620       -9.45630
H          5.28890       -0.07640       -8.94080
H          4.93900        2.02270       -4.70200
H         -1.15270        2.00590        1.42800
H         -0.37590       -1.93690        1.67560
H         -1.42920       -1.19310        2.77120
