35
rmsd174.gzmat
C          0.00000        0.00000        0.00000
C          1.38900        0.00000        0.00000
Cl         2.19510        0.00000        1.50650
C          2.13850        0.00610       -1.16110
C          1.45450        0.01060       -2.39710
C          0.05000        0.01930       -2.41840
C         -0.66460        0.01600       -1.22690
N          2.24960       -0.01200       -3.55430
C          1.77380        0.04250       -4.86600
O          0.59280        0.08280       -5.12740
C          2.80140       -0.03720       -5.94140
C          2.44410       -0.74820       -7.08480
C          3.32790       -0.85460       -8.16060
C          2.94030       -1.62770       -9.37220
C          4.57990       -0.24130       -8.08950
C          4.94950        0.48160       -6.95710
I          6.87360        1.35930       -6.94150
C          4.05720        0.58890       -5.88660
O          4.28680        1.24750       -4.72460
C         -0.76250       -0.03720        1.27550
N         -1.13940       -1.08430        1.92710
N         -1.14370        1.21930        1.76020
H          3.22620        0.00700       -1.12560
H         -0.49440        0.03330       -3.36770
H         -1.75770        0.03040       -1.24710
H          3.25910        0.03770       -3.41460
H          1.45480       -1.21850       -7.13630
H          3.40820       -1.23800      -10.28730
H          1.85350       -1.61690       -9.54560
H          3.24160       -2.68350       -9.27950
H          5.25940       -0.34220       -8.94050
H          5.07950        1.83740       -4.72890
H         -0.96930       -2.00340        1.56510
H         -0.55430        1.99830        1.54770
H         -1.56570        1.24050        2.67360
