35
rmsd237.gzmat
C          0.00000        0.00000        0.00000
C          1.38920        0.00000        0.00000
Cl         2.18920        0.00000        1.50850
C          2.14610        0.00690       -1.15890
C          1.46800        0.02150       -2.38840
C          0.05520        0.03370       -2.41250
C         -0.66560        0.02250       -1.22710
N          2.12170        0.00620       -3.63100
C          3.50380        0.07730       -3.81840
O          4.28340        0.11430       -2.89370
C          3.97540        0.02440       -5.23000
C          5.12820       -0.71730       -5.47240
C          5.66940       -0.78730       -6.75890
C          6.89900       -1.59160       -6.99830
C          5.05860       -0.09210       -7.80290
C          3.90950        0.66400       -7.57440
I          3.06970        1.68940       -9.22250
C          3.36440        0.71590       -6.28920
O          2.23770        1.37740       -5.92820
C         -0.76520       -0.04070        1.27390
N         -1.18720       -1.08850        1.89620
N         -1.09500        1.21770        1.79240
H          3.24110        0.00500       -1.11170
H         -0.47440        0.05340       -3.36280
H         -1.75810        0.03620       -1.24720
H          1.52840        0.06180       -4.45910
H          5.61620       -1.24000       -4.64070
H          7.16610       -1.66380       -8.06130
H          6.78780       -2.62270       -6.62830
H          7.76850       -1.15450       -6.48080
H          5.50120       -0.15240       -8.80080
H          1.88630        2.00270       -6.60800
H         -1.05390       -2.00450        1.51070
H         -0.47260        1.97640        1.59900
H         -1.50770        1.23140        2.71060
