rmsd199.gzmat
 OpenBabel08211713423D

 35 36  0  0  0  0  0  0  0  0999 V2000
    0.0000    0.0000    0.0000 C   0  0  0  0  0  0  0  0  0  0  0  0
    1.3892    0.0000    0.0000 C   0  0  0  0  0  0  0  0  0  0  0  0
    2.1973    0.0000    1.5065 Cl  0  0  0  0  0  0  0  0  0  0  0  0
    2.1389   -0.0028   -1.1607 C   0  0  0  0  0  0  0  0  0  0  0  0
    1.4561   -0.0217   -2.3972 C   0  0  0  0  0  0  0  0  0  0  0  0
    0.0516   -0.0406   -2.4191 C   0  0  0  0  0  0  0  0  0  0  0  0
   -0.6636   -0.0268   -1.2278 C   0  0  0  0  0  0  0  0  0  0  0  0
    2.2563   -0.0294   -3.5513 N   0  0  0  0  0  0  0  0  0  0  0  0
    1.7852   -0.0307   -4.8658 C   0  0  0  0  0  0  0  0  0  0  0  0
    0.6063   -0.0990   -5.1318 O   0  0  0  0  0  0  0  0  0  0  0  0
    2.8206   -0.0213   -5.9367 C   0  0  0  0  0  0  0  0  0  0  0  0
    2.5294   -0.7575   -7.0842 C   0  0  0  0  0  0  0  0  0  0  0  0
    3.4184   -0.7766   -8.1599 C   0  0  0  0  0  0  0  0  0  0  0  0
    3.1121   -1.5691   -9.3824 C   0  0  0  0  0  0  0  0  0  0  0  0
    4.6064   -0.0462   -8.0868 C   0  0  0  0  0  0  0  0  0  0  0  0
    4.9089    0.7026   -6.9521 C   0  0  0  0  0  0  0  0  0  0  0  0
    6.7320    1.7753   -6.9451 I   0  0  0  0  0  0  0  0  0  0  0  0
    4.0148    0.7151   -5.8772 C   0  0  0  0  0  0  0  0  0  0  0  0
    4.1871    1.3821   -4.7105 O   0  0  0  0  0  0  0  0  0  0  0  0
   -0.7637    0.0516    1.2745 C   0  0  0  0  0  0  0  0  0  0  0  0
   -1.2368    1.1023    1.8541 N   0  0  0  0  0  0  0  0  0  0  0  0
   -1.0251   -1.1968    1.8494 N   0  0  0  0  0  0  0  0  0  0  0  0
    3.2264    0.0072   -1.1253 H   0  0  0  0  0  0  0  0  0  0  0  0
   -0.4918   -0.0642   -3.3689 H   0  0  0  0  0  0  0  0  0  0  0  0
   -1.7568   -0.0412   -1.2485 H   0  0  0  0  0  0  0  0  0  0  0  0
    3.2596    0.0889   -3.4087 H   0  0  0  0  0  0  0  0  0  0  0  0
    1.5858   -1.3138   -7.1370 H   0  0  0  0  0  0  0  0  0  0  0  0
    3.2614   -0.9801  -10.2997 H   0  0  0  0  0  0  0  0  0  0  0  0
    2.0736   -1.9301   -9.4065 H   0  0  0  0  0  0  0  0  0  0  0  0
    3.7606   -2.4562   -9.4563 H   0  0  0  0  0  0  0  0  0  0  0  0
    5.2889   -0.0764   -8.9408 H   0  0  0  0  0  0  0  0  0  0  0  0
    4.9390    2.0227   -4.7020 H   0  0  0  0  0  0  0  0  0  0  0  0
   -1.1527    2.0059    1.4280 H   0  0  0  0  0  0  0  0  0  0  0  0
   -0.3759   -1.9369    1.6756 H   0  0  0  0  0  0  0  0  0  0  0  0
   -1.4292   -1.1931    2.7712 H   0  0  0  0  0  0  0  0  0  0  0  0
  1  2  1  0  0  0  0
  1 20  1  0  0  0  0
  2  3  1  0  0  0  0
  4 23  1  0  0  0  0
  4  2  2  0  0  0  0
  5  4  1  0  0  0  0
  6  5  2  0  0  0  0
  6  7  1  0  0  0  0
  7  1  2  0  0  0  0
  8 26  1  0  0  0  0
  8  5  1  0  0  0  0
  9  8  1  0  0  0  0
 10  9  2  0  0  0  0
 11 18  1  0  0  0  0
 11  9  1  0  0  0  0
 12 11  2  0  0  0  0
 13 15  2  0  0  0  0
 13 12  1  0  0  0  0
 14 13  1  0  0  0  0
 15 16  1  0  0  0  0
 16 17  1  0  0  0  0
 16 18  2  0  0  0  0
 18 19  1  0  0  0  0
 19 32  1  0  0  0  0
 20 22  2  0  0  0  0
 20 21  1  0  0  0  0
 22 35  1  0  0  0  0
 24  6  1  0  0  0  0
 25  7  1  0  0  0  0
 27 12  1  0  0  0  0
 28 14  1  0  0  0  0
 29 14  1  0  0  0  0
 30 14  1  0  0  0  0
 31 15  1  0  0  0  0
 33 21  1  0  0  0  0
 34 22  1  0  0  0  0
M  RAD  1  21   2
M  END
$$$$
