
     RDKit          3D

 35 36  0  0  0  0  0  0  0  0999 V2000
   -0.0297    0.1049    0.0653 C   0  0  0  0  0  0  0  0  0  0  0  0
    1.2971    0.5574   -0.0186 C   0  0  0  0  0  0  0  0  0  0  0  0
    2.1563    1.1265    1.4066 Cl  0  0  0  0  0  0  0  0  0  0  0  0
    2.0021    0.5482   -1.2190 C   0  0  0  0  0  0  0  0  0  0  0  0
    1.3950    0.0869   -2.3997 C   0  0  0  0  0  0  0  0  0  0  0  0
    0.0663   -0.3723   -2.3442 C   0  0  0  0  0  0  0  0  0  0  0  0
   -0.6088   -0.3586   -1.1278 C   0  0  0  0  0  0  0  0  0  0  0  0
    2.1705    0.1165   -3.5634 N   0  0  0  0  0  0  0  0  0  0  0  0
    1.8157   -0.2800   -4.8278 C   0  0  0  0  0  0  0  0  0  0  0  0
    0.7161   -0.7312   -5.1090 O   0  0  0  0  0  0  0  0  0  0  0  0
    2.8728   -0.1347   -5.9034 C   0  0  0  0  0  0  0  0  0  0  0  0
    2.4758   -0.5510   -7.1832 C   0  0  0  0  0  0  0  0  0  0  0  0
    3.3140   -0.4899   -8.2970 C   0  0  0  0  0  0  0  0  0  0  0  0
    2.8623   -0.9671   -9.6541 C   0  0  0  0  0  0  0  0  0  0  0  0
    4.6091    0.0167   -8.1128 C   0  0  0  0  0  0  0  0  0  0  0  0
    5.0259    0.4353   -6.8529 C   0  0  0  0  0  0  0  0  0  0  0  0
    7.0004    1.2044   -6.6015 I   0  0  0  0  0  0  0  0  0  0  0  0
    4.1809    0.3711   -5.7299 C   0  0  0  0  0  0  0  0  0  0  0  0
    4.5924    0.7823   -4.5038 O   0  0  0  0  0  0  0  0  0  0  0  0
   -0.8374    0.0378    1.3303 C   0  0  0  0  0  0  0  0  0  0  0  0
   -1.4495   -1.0171    1.7263 N   0  0  0  0  0  0  0  0  0  0  0  0
   -0.9716    1.2184    2.0229 N   0  0  0  0  0  0  0  0  0  0  0  0
    3.0359    0.8979   -1.2298 H   0  0  0  0  0  0  0  0  0  0  0  0
   -0.4137   -0.7284   -3.2508 H   0  0  0  0  0  0  0  0  0  0  0  0
   -1.6415   -0.7126   -1.0918 H   0  0  0  0  0  0  0  0  0  0  0  0
    3.1151    0.4756   -3.4605 H   0  0  0  0  0  0  0  0  0  0  0  0
    1.4574   -0.9324   -7.2714 H   0  0  0  0  0  0  0  0  0  0  0  0
    3.1386   -0.2523  -10.4450 H   0  0  0  0  0  0  0  0  0  0  0  0
    1.7722   -1.1052   -9.6835 H   0  0  0  0  0  0  0  0  0  0  0  0
    3.3282   -1.9337   -9.9108 H   0  0  0  0  0  0  0  0  0  0  0  0
    5.2950    0.0851   -8.9594 H   0  0  0  0  0  0  0  0  0  0  0  0
    5.5110    1.1029   -4.5530 H   0  0  0  0  0  0  0  0  0  0  0  0
   -1.2746   -1.7909    1.0833 H   0  0  0  0  0  0  0  0  0  0  0  0
   -0.2462    1.9156    1.9185 H   0  0  0  0  0  0  0  0  0  0  0  0
   -1.3534    1.1188    2.9579 H   0  0  0  0  0  0  0  0  0  0  0  0
  1  2  2  0
  1  7  1  0
  1 20  1  0
  2  3  1  0
  2  4  1  0
  4  5  2  0
  4 23  1  0
  5  6  1  0
  5  8  1  0
  6  7  2  0
  6 24  1  0
  7 25  1  0
  8  9  1  0
  8 26  1  0
  9 10  2  0
  9 11  1  0
 11 12  2  0
 11 18  1  0
 12 13  1  0
 12 27  1  0
 13 14  1  0
 13 15  2  0
 14 28  1  0
 14 29  1  0
 14 30  1  0
 15 16  1  0
 15 31  1  0
 16 17  1  0
 16 18  2  0
 18 19  1  0
 19 32  1  0
 20 21  2  0
 20 22  1  0
 21 33  1  0
 22 34  1  0
 22 35  1  0
M  END

