35
rmsd196.gzmat
C          0.00000        0.00000        0.00000
C          1.38910        0.00000        0.00000
Cl         2.19790        0.00000        1.50650
C          2.13910        0.00320       -1.16070
C          1.45630        0.00930       -2.39710
C          0.05150        0.01100       -2.41940
C         -0.66360        0.01030       -1.22820
N          2.25430        0.00190       -3.55270
C          1.78280        0.09330       -4.86380
O          0.60200        0.12200       -5.12780
C          2.81460        0.07920       -5.93800
C          2.47450       -0.58850       -7.11310
C          3.35720       -0.61790       -8.19410
C          2.99820       -1.34620       -9.44200
C          4.58580        0.03930       -8.10030
C          4.93930        0.71690       -6.93550
I          6.82380        1.67670       -6.89560
C          4.05370        0.73480       -5.85380
O          4.27320        1.33400       -4.65830
C         -0.76740       -0.03530        1.27310
N         -1.30250       -1.06990        1.82750
N         -0.95610        1.21240        1.87600
H          3.22690        0.00070       -1.12500
H         -0.49210        0.01830       -3.36950
H         -1.75690        0.02240       -1.24920
H          3.26330        0.04950       -3.40910
H          1.49820       -1.08290       -7.18440
H          3.21050       -0.75080      -10.34250
H          1.93210       -1.61320       -9.48630
H          3.56670       -2.28530       -9.53240
H          5.25950        0.00960       -8.96110
H          5.06700        1.92090       -4.62450
H         -1.26810       -1.96620        1.38020
H         -0.27130        1.92090        1.71050
H         -1.35980        1.21440        2.79760
