rmsd197.gzmat
 OpenBabel08211713423D

 35 36  0  0  0  0  0  0  0  0999 V2000
    0.0000    0.0000    0.0000 C   0  0  0  0  0  0  0  0  0  0  0  0
    1.3889    0.0000    0.0000 C   0  0  0  0  0  0  0  0  0  0  0  0
    2.1972    0.0000    1.5055 Cl  0  0  0  0  0  0  0  0  0  0  0  0
    2.1382    0.0053   -1.1610 C   0  0  0  0  0  0  0  0  0  0  0  0
    1.4546    0.0181   -2.3968 C   0  0  0  0  0  0  0  0  0  0  0  0
    0.0498    0.0314   -2.4190 C   0  0  0  0  0  0  0  0  0  0  0  0
   -0.6648    0.0230   -1.2274 C   0  0  0  0  0  0  0  0  0  0  0  0
    2.2530    0.0017   -3.5520 N   0  0  0  0  0  0  0  0  0  0  0  0
    1.7847    0.1308   -4.8607 C   0  0  0  0  0  0  0  0  0  0  0  0
    0.6053    0.2091   -5.1219 O   0  0  0  0  0  0  0  0  0  0  0  0
    2.8132    0.0902   -5.9372 C   0  0  0  0  0  0  0  0  0  0  0  0
    2.4334   -0.5334   -7.1245 C   0  0  0  0  0  0  0  0  0  0  0  0
    3.3105   -0.5917   -8.2088 C   0  0  0  0  0  0  0  0  0  0  0  0
    2.9049   -1.2759   -9.4672 C   0  0  0  0  0  0  0  0  0  0  0  0
    4.5757   -0.0105   -8.1055 C   0  0  0  0  0  0  0  0  0  0  0  0
    4.9692    0.6240   -6.9292 C   0  0  0  0  0  0  0  0  0  0  0  0
    6.9100    1.4631   -6.8742 I   0  0  0  0  0  0  0  0  0  0  0  0
    4.0869    0.6752   -5.8457 C   0  0  0  0  0  0  0  0  0  0  0  0
    4.3416    1.2441   -4.6427 O   0  0  0  0  0  0  0  0  0  0  0  0
   -0.7648   -0.0467    1.2739 C   0  0  0  0  0  0  0  0  0  0  0  0
   -1.2344   -1.0959    1.8592 N   0  0  0  0  0  0  0  0  0  0  0  0
   -1.0325    1.2042    1.8389 N   0  0  0  0  0  0  0  0  0  0  0  0
    3.2261    0.0020   -1.1268 H   0  0  0  0  0  0  0  0  0  0  0  0
   -0.4940    0.0529   -3.3687 H   0  0  0  0  0  0  0  0  0  0  0  0
   -1.7579    0.0357   -1.2476 H   0  0  0  0  0  0  0  0  0  0  0  0
    3.2630    0.0140   -3.4072 H   0  0  0  0  0  0  0  0  0  0  0  0
    1.4303   -0.9702   -7.2022 H   0  0  0  0  0  0  0  0  0  0  0  0
    3.2458   -0.7373  -10.3633 H   0  0  0  0  0  0  0  0  0  0  0  0
    1.8134   -1.3798   -9.5587 H   0  0  0  0  0  0  0  0  0  0  0  0
    3.3287   -2.2917   -9.5187 H   0  0  0  0  0  0  0  0  0  0  0  0
    5.2461   -0.0657   -8.9676 H   0  0  0  0  0  0  0  0  0  0  0  0
    5.1723    1.7768   -4.5998 H   0  0  0  0  0  0  0  0  0  0  0  0
   -1.1449   -2.0016    1.4383 H   0  0  0  0  0  0  0  0  0  0  0  0
   -0.3956    1.9506    1.6505 H   0  0  0  0  0  0  0  0  0  0  0  0
   -1.4380    1.2082    2.7596 H   0  0  0  0  0  0  0  0  0  0  0  0
  1  2  1  0  0  0  0
  1 20  1  0  0  0  0
  2  3  1  0  0  0  0
  4 23  1  0  0  0  0
  4  2  2  0  0  0  0
  5  4  1  0  0  0  0
  6  5  2  0  0  0  0
  6  7  1  0  0  0  0
  7  1  2  0  0  0  0
  8 26  1  0  0  0  0
  8  5  1  0  0  0  0
  9  8  1  0  0  0  0
 10  9  2  0  0  0  0
 11 18  1  0  0  0  0
 11  9  1  0  0  0  0
 12 11  2  0  0  0  0
 13 15  2  0  0  0  0
 13 12  1  0  0  0  0
 14 13  1  0  0  0  0
 15 16  1  0  0  0  0
 16 17  1  0  0  0  0
 16 18  2  0  0  0  0
 18 19  1  0  0  0  0
 19 32  1  0  0  0  0
 20 22  2  0  0  0  0
 20 21  1  0  0  0  0
 22 35  1  0  0  0  0
 24  6  1  0  0  0  0
 25  7  1  0  0  0  0
 27 12  1  0  0  0  0
 28 14  1  0  0  0  0
 29 14  1  0  0  0  0
 30 14  1  0  0  0  0
 31 15  1  0  0  0  0
 33 21  1  0  0  0  0
 34 22  1  0  0  0  0
M  RAD  1  21   2
M  END
$$$$
