35
rmsd198.gzmat
C          0.00000        0.00000        0.00000
C          1.38920        0.00000        0.00000
Cl         2.19750        0.00000        1.50620
C          2.13930       -0.00550       -1.16030
C          1.45650       -0.02410       -2.39670
C          0.05180       -0.02860       -2.41900
C         -0.66370       -0.01670       -1.22790
N          2.25610       -0.05480       -3.55060
C          1.78490       -0.03510       -4.86480
O          0.60380       -0.03660       -5.13050
C          2.81860       -0.10100       -5.93510
C          2.48140       -0.83650       -7.07020
C          3.37010       -0.93630       -8.14150
C          3.01530       -1.73410       -9.34730
C          4.60300       -0.28290       -8.07910
C          4.95000        0.46850       -6.95910
I          6.83570        1.42710       -6.96990
C          4.05750        0.55780       -5.88630
O          4.27340        1.22970       -4.72970
C         -0.76330        0.03900        1.27520
N         -1.26560        1.07810        1.85090
N         -0.98560       -1.21340        1.85780
H          3.22700        0.00280       -1.12470
H         -0.49210       -0.04070       -3.36870
H         -1.75720       -0.02550       -1.24960
H          3.26370        0.02100       -3.40810
H          1.50290       -1.32980       -7.11590
H          3.17340       -1.16530      -10.27610
H          1.96330       -2.05560       -9.35020
H          3.62750       -2.64670       -9.41760
H          5.28420       -0.37600       -8.92930
H          5.05350        1.83640       -4.73800
H         -1.21140        1.98170        1.41990
H         -0.32310       -1.93920        1.67590
H         -1.38230       -1.21850        2.78250
