
     RDKit          3D

 35 36  0  0  0  0  0  0  0  0999 V2000
    0.0462   -0.1433    0.1192 C   0  0  0  0  0  0  0  0  0  0  0  0
    1.3700   -0.6051    0.0015 C   0  0  0  0  0  0  0  0  0  0  0  0
    2.2116   -1.3354    1.3552 Cl  0  0  0  0  0  0  0  0  0  0  0  0
    2.0623   -0.5309   -1.2038 C   0  0  0  0  0  0  0  0  0  0  0  0
    1.4581    0.0190   -2.3481 C   0  0  0  0  0  0  0  0  0  0  0  0
    0.1346    0.4853   -2.2580 C   0  0  0  0  0  0  0  0  0  0  0  0
   -0.5380    0.3901   -1.0433 C   0  0  0  0  0  0  0  0  0  0  0  0
    2.2316    0.0609   -3.5126 N   0  0  0  0  0  0  0  0  0  0  0  0
    1.8724    0.5267   -4.7515 C   0  0  0  0  0  0  0  0  0  0  0  0
    0.7699    0.9871   -5.0051 O   0  0  0  0  0  0  0  0  0  0  0  0
    2.9289    0.4495   -5.8355 C   0  0  0  0  0  0  0  0  0  0  0  0
    2.5308    0.9407   -7.0853 C   0  0  0  0  0  0  0  0  0  0  0  0
    3.3706    0.9512   -8.2026 C   0  0  0  0  0  0  0  0  0  0  0  0
    2.8920    1.4956   -9.5248 C   0  0  0  0  0  0  0  0  0  0  0  0
    4.6662    0.4433   -8.0494 C   0  0  0  0  0  0  0  0  0  0  0  0
    5.0856   -0.0514   -6.8154 C   0  0  0  0  0  0  0  0  0  0  0  0
    7.0654   -0.8194   -6.6118 I   0  0  0  0  0  0  0  0  0  0  0  0
    4.2413   -0.0614   -5.6931 C   0  0  0  0  0  0  0  0  0  0  0  0
    4.6526   -0.5442   -4.4933 O   0  0  0  0  0  0  0  0  0  0  0  0
   -0.7453   -0.1690    1.3928 C   0  0  0  0  0  0  0  0  0  0  0  0
   -0.3323    0.1759    2.5533 N   0  0  0  0  0  0  0  0  0  0  0  0
   -2.0718   -0.5247    1.2139 N   0  0  0  0  0  0  0  0  0  0  0  0
    3.0839   -0.9121   -1.2494 H   0  0  0  0  0  0  0  0  0  0  0  0
   -0.3425    0.9133   -3.1346 H   0  0  0  0  0  0  0  0  0  0  0  0
   -1.5637    0.7572   -0.9745 H   0  0  0  0  0  0  0  0  0  0  0  0
    3.1778   -0.2999   -3.4320 H   0  0  0  0  0  0  0  0  0  0  0  0
    1.5111    1.3242   -7.1497 H   0  0  0  0  0  0  0  0  0  0  0  0
    3.6631    1.4039  -10.3032 H   0  0  0  0  0  0  0  0  0  0  0  0
    2.6214    2.5607   -9.4402 H   0  0  0  0  0  0  0  0  0  0  0  0
    1.9935    0.9605   -9.8722 H   0  0  0  0  0  0  0  0  0  0  0  0
    5.3533    0.4331   -8.8974 H   0  0  0  0  0  0  0  0  0  0  0  0
    5.5737   -0.8546   -4.5594 H   0  0  0  0  0  0  0  0  0  0  0  0
    0.6383    0.4883    2.5134 H   0  0  0  0  0  0  0  0  0  0  0  0
   -2.2733   -1.2191    0.5037 H   0  0  0  0  0  0  0  0  0  0  0  0
   -2.5848   -0.6362    2.0831 H   0  0  0  0  0  0  0  0  0  0  0  0
  1  2  2  0
  1  7  1  0
  1 20  1  0
  2  3  1  0
  2  4  1  0
  4  5  2  0
  4 23  1  0
  5  6  1  0
  5  8  1  0
  6  7  2  0
  6 24  1  0
  7 25  1  0
  8  9  1  0
  8 26  1  0
  9 10  2  0
  9 11  1  0
 11 12  2  0
 11 18  1  0
 12 13  1  0
 12 27  1  0
 13 14  1  0
 13 15  2  0
 14 28  1  0
 14 29  1  0
 14 30  1  0
 15 16  1  0
 15 31  1  0
 16 17  1  0
 16 18  2  0
 18 19  1  0
 19 32  1  0
 20 21  2  0
 20 22  1  0
 21 33  1  0
 22 34  1  0
 22 35  1  0
M  END

