35

C         -0.02870       -0.11370        0.06810
C          1.32040       -0.49560       -0.01160
Cl         2.21630       -0.97740        1.42310
C          2.01810       -0.48130       -1.21630
C          1.38110       -0.08660       -2.40530
C          0.02970        0.30110       -2.35410
C         -0.63790        0.28450       -1.13350
N          2.15150       -0.10640       -3.57270
C          1.76980        0.23550       -4.84490
O          0.64620        0.61910       -5.13160
C          2.82800        0.11650       -5.92330
C          2.40350        0.47070       -7.21010
C          3.24050        0.42390       -8.32860
C          2.73290        0.82160       -9.69160
C          4.56130        0.00080       -8.13750
C          5.00740       -0.35690       -6.86600
I          7.02510       -0.99890       -6.60490
C          4.16590       -0.30920       -5.74260
O          4.60370       -0.65840       -4.50630
C         -0.83290       -0.05550        1.33590
N         -1.50020        0.97490        1.70610
N         -0.89840       -1.22170        2.06190
H          3.06940       -0.77450       -1.22400
H         -0.47330        0.60540       -3.26710
H         -1.68810        0.58260       -1.10080
H          3.11490       -0.41030       -3.46590
H          1.36480        0.79250       -7.30330
H          3.50060        0.68110      -10.46610
H          2.42690        1.88040       -9.70700
H          1.85060        0.22590       -9.97560
H          5.24710       -0.05070       -8.98500
H          5.53930       -0.92640       -4.55020
H         -1.37130        1.73880        1.04080
H         -0.13590       -1.88050        1.97250
H         -1.28030       -1.11680        2.99630
