
     RDKit          3D

 35 36  0  0  0  0  0  0  0  0999 V2000
   -0.0683   -0.0087    0.0450 C   0  0  0  0  0  0  0  0  0  0  0  0
    1.2801    0.3797   -0.0113 C   0  0  0  0  0  0  0  0  0  0  0  0
    2.1290    0.9313    1.4269 Cl  0  0  0  0  0  0  0  0  0  0  0  0
    1.9965    0.3768   -1.2051 C   0  0  0  0  0  0  0  0  0  0  0  0
    1.3844   -0.0285   -2.4037 C   0  0  0  0  0  0  0  0  0  0  0  0
    0.0341   -0.4227   -2.3759 C   0  0  0  0  0  0  0  0  0  0  0  0
   -0.6572   -0.4007   -1.1687 C   0  0  0  0  0  0  0  0  0  0  0  0
    2.1757   -0.0080   -3.5569 N   0  0  0  0  0  0  0  0  0  0  0  0
    1.8157   -0.3451   -4.8369 C   0  0  0  0  0  0  0  0  0  0  0  0
    0.6972   -0.7277   -5.1439 O   0  0  0  0  0  0  0  0  0  0  0  0
    2.8919   -0.2224   -5.8962 C   0  0  0  0  0  0  0  0  0  0  0  0
    2.4884   -0.5743   -7.1933 C   0  0  0  0  0  0  0  0  0  0  0  0
    3.3419   -0.5219   -8.2957 C   0  0  0  0  0  0  0  0  0  0  0  0
    2.8813   -0.9258   -9.6736 C   0  0  0  0  0  0  0  0  0  0  0  0
    4.6602   -0.0930   -8.0814 C   0  0  0  0  0  0  0  0  0  0  0  0
    5.0839    0.2605   -6.8041 C   0  0  0  0  0  0  0  0  0  0  0  0
    7.0939    0.9124   -6.5067 I   0  0  0  0  0  0  0  0  0  0  0  0
    4.2232    0.2055   -5.6925 C   0  0  0  0  0  0  0  0  0  0  0  0
    4.6417    0.5528   -4.4491 O   0  0  0  0  0  0  0  0  0  0  0  0
   -0.9194    0.0153    1.2828 C   0  0  0  0  0  0  0  0  0  0  0  0
   -2.0634    0.5909    1.3462 N   0  0  0  0  0  0  0  0  0  0  0  0
   -0.4457   -0.7061    2.3537 N   0  0  0  0  0  0  0  0  0  0  0  0
    3.0389    0.7001   -1.1991 H   0  0  0  0  0  0  0  0  0  0  0  0
   -0.4481   -0.7403   -3.2956 H   0  0  0  0  0  0  0  0  0  0  0  0
   -1.7041   -0.7118   -1.1528 H   0  0  0  0  0  0  0  0  0  0  0  0
    3.1369    0.2960   -3.4325 H   0  0  0  0  0  0  0  0  0  0  0  0
    1.4522   -0.8969   -7.3045 H   0  0  0  0  0  0  0  0  0  0  0  0
    3.1729   -0.1802  -10.4301 H   0  0  0  0  0  0  0  0  0  0  0  0
    1.7885   -1.0388   -9.7092 H   0  0  0  0  0  0  0  0  0  0  0  0
    3.3272   -1.8884   -9.9758 H   0  0  0  0  0  0  0  0  0  0  0  0
    5.3591   -0.0344   -8.9182 H   0  0  0  0  0  0  0  0  0  0  0  0
    5.5762    0.8265   -4.4787 H   0  0  0  0  0  0  0  0  0  0  0  0
   -2.2799    1.0483    0.4593 H   0  0  0  0  0  0  0  0  0  0  0  0
    0.5530   -0.8493    2.4255 H   0  0  0  0  0  0  0  0  0  0  0  0
   -0.9275   -0.5282    3.2291 H   0  0  0  0  0  0  0  0  0  0  0  0
  1  2  2  0
  1  7  1  0
  1 20  1  0
  2  3  1  0
  2  4  1  0
  4  5  2  0
  4 23  1  0
  5  6  1  0
  5  8  1  0
  6  7  2  0
  6 24  1  0
  7 25  1  0
  8  9  1  0
  8 26  1  0
  9 10  2  0
  9 11  1  0
 11 12  2  0
 11 18  1  0
 12 13  1  0
 12 27  1  0
 13 14  1  0
 13 15  2  0
 14 28  1  0
 14 29  1  0
 14 30  1  0
 15 16  1  0
 15 31  1  0
 16 17  1  0
 16 18  2  0
 18 19  1  0
 19 32  1  0
 20 21  2  0
 20 22  1  0
 21 33  1  0
 22 34  1  0
 22 35  1  0
M  END

