
     RDKit          3D

 42 43  0  0  0  0  0  0  0  0999 V2000
    0.1816    0.0794   -0.0121 C   0  0  0  0  0  0  0  0  0  0  0  0
    1.5582   -0.1292    0.0876 C   0  0  0  0  0  0  0  0  0  0  0  0
    2.1817   -0.1485    1.3408 C   0  0  0  0  0  0  0  0  0  0  0  0
    1.3598    0.0427    2.4591 C   0  0  0  0  0  0  0  0  0  0  0  0
   -0.0184    0.2358    2.3723 C   0  0  0  0  0  0  0  0  0  0  0  0
   -0.6217    0.2525    1.1178 C   0  0  0  0  0  0  0  0  0  0  0  0
    1.9300    0.0363    3.6698 F   0  0  0  0  0  0  0  0  0  0  0  0
    3.6608   -0.3523    1.5120 C   0  0  0  0  0  0  0  0  0  0  0  0
   -0.5785    0.1654   -1.6219 S   0  0  0  0  0  0  0  0  0  0  0  0
    0.4861   -0.1359   -2.5997 O   0  0  0  0  0  0  0  0  0  0  0  0
   -1.8387   -0.5711   -1.6229 O   0  0  0  0  0  0  0  0  0  0  0  0
   -1.0090    1.7808   -1.7286 N   0  0  0  0  0  0  0  0  0  0  0  0
   -0.0119    2.7735   -2.1404 C   0  0  1  0  0  0  0  0  0  0  0  0
    0.9705    2.3441   -1.8987 H   0  0  0  0  0  0  0  0  0  0  0  0
   -0.0861    2.9713   -3.6587 C   0  0  0  0  0  0  0  0  0  0  0  0
   -0.7678    3.8406   -4.1983 O   0  0  0  0  0  0  0  0  0  0  0  0
    0.6434    2.1002   -4.3898 N   0  0  0  0  0  0  0  0  0  0  0  0
    0.4202    2.1106   -5.7574 O   0  0  0  0  0  0  0  0  0  0  0  0
   -0.2001    4.1095   -1.3994 C   0  0  0  0  0  0  0  0  0  0  0  0
   -0.2994    3.9364    0.1252 C   0  0  0  0  0  0  0  0  0  0  0  0
    1.0589    3.6279    0.7529 C   0  0  0  0  0  0  0  0  0  0  0  0
    2.0284    4.6014    0.4192 O   0  0  0  0  0  0  0  0  0  0  0  0
    2.2320    4.7059   -0.9751 C   0  0  0  0  0  0  0  0  0  0  0  0
    0.9491    5.0868   -1.7134 C   0  0  0  0  0  0  0  0  0  0  0  0
    2.1427   -0.2732   -0.8220 H   0  0  0  0  0  0  0  0  0  0  0  0
   -0.5950    0.3685    3.2891 H   0  0  0  0  0  0  0  0  0  0  0  0
   -1.6975    0.3987    1.0126 H   0  0  0  0  0  0  0  0  0  0  0  0
    4.1507   -0.5094    0.5415 H   0  0  0  0  0  0  0  0  0  0  0  0
    3.8694   -1.2231    2.1534 H   0  0  0  0  0  0  0  0  0  0  0  0
    4.1246    0.5208    1.9984 H   0  0  0  0  0  0  0  0  0  0  0  0
   -1.9523    1.8799   -2.1031 H   0  0  0  0  0  0  0  0  0  0  0  0
    0.8438    1.1662   -4.0207 H   0  0  0  0  0  0  0  0  0  0  0  0
   -0.1963    2.8694   -5.8487 H   0  0  0  0  0  0  0  0  0  0  0  0
   -1.1372    4.5416   -1.7838 H   0  0  0  0  0  0  0  0  0  0  0  0
   -1.0183    3.1443    0.3808 H   0  0  0  0  0  0  0  0  0  0  0  0
   -0.6763    4.8780    0.5568 H   0  0  0  0  0  0  0  0  0  0  0  0
    0.9866    3.6182    1.8507 H   0  0  0  0  0  0  0  0  0  0  0  0
    1.4084    2.6227    0.4424 H   0  0  0  0  0  0  0  0  0  0  0  0
    3.0069    5.4727   -1.1240 H   0  0  0  0  0  0  0  0  0  0  0  0
    2.6416    3.7512   -1.3713 H   0  0  0  0  0  0  0  0  0  0  0  0
    0.6466    6.0939   -1.3841 H   0  0  0  0  0  0  0  0  0  0  0  0
    1.1323    5.1497   -2.7971 H   0  0  0  0  0  0  0  0  0  0  0  0
  1  2  2  0
  1  6  1  0
  1  9  1  0
  2  3  1  0
  2 25  1  0
  3  4  2  0
  3  8  1  0
  4  5  1  0
  4  7  1  0
  5  6  2  0
  5 26  1  0
  6 27  1  0
  8 28  1  0
  8 29  1  0
  8 30  1  0
  9 10  2  0
  9 11  2  0
  9 12  1  0
 12 13  1  0
 12 31  1  0
 13 14  1  6
 13 15  1  0
 13 19  1  0
 15 16  2  0
 15 17  1  0
 17 18  1  0
 17 32  1  0
 18 33  1  0
 19 20  1  0
 19 24  1  0
 19 34  1  0
 20 21  1  0
 20 35  1  0
 20 36  1  0
 21 22  1  0
 21 37  1  0
 21 38  1  0
 22 23  1  0
 23 24  1  0
 23 39  1  0
 23 40  1  0
 24 41  1  0
 24 42  1  0
M  END

