rmsd249.gzmat
 OpenBabel08211713373D

 42 43  0  0  1  0  0  0  0  0999 V2000
    0.0000    0.0000    0.0000 C   0  0  0  0  0  0  0  0  0  0  0  0
    1.3957    0.0000    0.0000 C   0  0  0  0  0  0  0  0  0  0  0  0
    2.1043    0.0000    1.2015 C   0  0  0  0  0  0  0  0  0  0  0  0
    1.3589   -0.0178    2.3885 C   0  0  0  0  0  0  0  0  0  0  0  0
   -0.0338   -0.0376    2.4120 C   0  0  0  0  0  0  0  0  0  0  0  0
   -0.7145   -0.0275    1.1964 C   0  0  0  0  0  0  0  0  0  0  0  0
    2.0048   -0.0189    3.5427 F   0  0  0  0  0  0  0  0  0  0  0  0
    3.5888    0.0188    1.2241 C   0  0  0  0  0  0  0  0  0  0  0  0
   -0.8581    0.0612   -1.5248 S   0  0  0  0  0  0  0  0  0  0  0  0
    0.0579   -0.4038   -2.5600 O   0  0  0  0  0  0  0  0  0  0  0  0
   -2.1800   -0.4793   -1.3630 O   0  0  0  0  0  0  0  0  0  0  0  0
   -1.0570    1.7664   -1.7904 N   0  0  0  0  0  0  0  0  0  0  0  0
   -0.1935    2.4528   -2.7571 C   0  0  1  0  0  0  0  0  0  0  0  0
    0.7931    1.9244   -2.8590 H   0  0  0  0  0  0  0  0  0  0  0  0
   -0.9157    2.5099   -4.1170 C   0  0  0  0  0  0  0  0  0  0  0  0
   -1.7782    3.3285   -4.3617 O   0  0  0  0  0  0  0  0  0  0  0  0
   -0.7085    1.4763   -5.0244 N   0  0  0  0  0  0  0  0  0  0  0  0
    0.4981    0.7907   -4.9248 O   0  0  0  0  0  0  0  0  0  0  0  0
    0.0719    3.9081   -2.2803 C   0  0  0  0  0  0  0  0  0  0  0  0
    0.7607    3.9309   -0.9071 C   0  0  0  0  0  0  0  0  0  0  0  0
    2.2196    3.4796   -1.0086 C   0  0  0  0  0  0  0  0  0  0  0  0
    2.9324    4.2434   -1.9623 O   0  0  0  0  0  0  0  0  0  0  0  0
    2.3890    4.1617   -3.2666 C   0  0  0  0  0  0  0  0  0  0  0  0
    0.9447    4.6654   -3.2931 C   0  0  0  0  0  0  0  0  0  0  0  0
    1.9567   -0.0102   -0.9437 H   0  0  0  0  0  0  0  0  0  0  0  0
   -0.5802   -0.0602    3.3543 H   0  0  0  0  0  0  0  0  0  0  0  0
   -1.8117   -0.0499    1.2024 H   0  0  0  0  0  0  0  0  0  0  0  0
    4.0316    0.0794    0.2186 H   0  0  0  0  0  0  0  0  0  0  0  0
    4.0009   -0.8881    1.6970 H   0  0  0  0  0  0  0  0  0  0  0  0
    3.9804    0.8768    1.7953 H   0  0  0  0  0  0  0  0  0  0  0  0
   -2.0124    2.1282   -1.7846 H   0  0  0  0  0  0  0  0  0  0  0  0
   -0.9190    1.5728   -6.0047 H   0  0  0  0  0  0  0  0  0  0  0  0
    0.3523    0.1402   -4.1441 H   0  0  0  0  0  0  0  0  0  0  0  0
   -0.9158    4.4302   -2.1997 H   0  0  0  0  0  0  0  0  0  0  0  0
    0.2111    3.3001   -0.1839 H   0  0  0  0  0  0  0  0  0  0  0  0
    0.7230    4.9612   -0.5022 H   0  0  0  0  0  0  0  0  0  0  0  0
    2.7819    3.6856   -0.0789 H   0  0  0  0  0  0  0  0  0  0  0  0
    2.3107    2.4079   -1.2557 H   0  0  0  0  0  0  0  0  0  0  0  0
    3.0685    4.8173   -3.8431 H   0  0  0  0  0  0  0  0  0  0  0  0
    2.4809    3.1274   -3.6408 H   0  0  0  0  0  0  0  0  0  0  0  0
    0.9303    5.7455   -3.0407 H   0  0  0  0  0  0  0  0  0  0  0  0
    0.5251    4.5995   -4.3137 H   0  0  0  0  0  0  0  0  0  0  0  0
  1  6  1  0  0  0  0
  2  1  2  0  0  0  0
  2  3  1  0  0  0  0
  3  8  1  0  0  0  0
  3  4  2  0  0  0  0
  4  5  1  0  0  0  0
  4  7  1  0  0  0  0
  5 26  1  0  0  0  0
  6 27  1  0  0  0  0
  6  5  2  0  0  0  0
  8 29  1  0  0  0  0
  8 30  1  0  0  0  0
  9 11  2  0  0  0  0
  9  1  1  0  0  0  0
 10  9  2  0  0  0  0
 12 31  1  0  0  0  0
 12  9  1  0  0  0  0
 13 14  1  6  0  0  0
 13 19  1  0  0  0  0
 13 12  1  0  0  0  0
 15 13  1  0  0  0  0
 16 15  2  0  0  0  0
 17 18  1  0  0  0  0
 17 15  1  0  0  0  0
 18 33  1  0  0  0  0
 19 34  1  0  0  0  0
 19 20  1  0  0  0  0
 20 36  1  0  0  0  0
 20 35  1  0  0  0  0
 21 20  1  0  0  0  0
 21 37  1  0  0  0  0
 22 21  1  0  0  0  0
 23 22  1  0  0  0  0
 24 23  1  0  0  0  0
 24 41  1  0  0  0  0
 24 19  1  0  0  0  0
 25  2  1  0  0  0  0
 28  8  1  0  0  0  0
 32 17  1  0  0  0  0
 38 21  1  0  0  0  0
 39 23  1  0  0  0  0
 40 23  1  0  0  0  0
 42 24  1  0  0  0  0
M  END
$$$$
