42

C          0.18160        0.07940       -0.01210
C          1.55820       -0.12920        0.08760
C          2.18170       -0.14850        1.34080
C          1.35980        0.04270        2.45910
C         -0.01840        0.23580        2.37230
C         -0.62170        0.25250        1.11780
F          1.93000        0.03630        3.66980
C          3.66080       -0.35230        1.51200
S         -0.57850        0.16540       -1.62190
O          0.48610       -0.13590       -2.59970
O         -1.83870       -0.57110       -1.62290
N         -1.00900        1.78080       -1.72860
C         -0.01190        2.77350       -2.14040
H          0.97050        2.34410       -1.89870
C         -0.08610        2.97130       -3.65870
O         -0.76780        3.84060       -4.19830
N          0.64340        2.10020       -4.38980
O          0.42020        2.11060       -5.75740
C         -0.20010        4.10950       -1.39940
C         -0.29940        3.93640        0.12520
C          1.05890        3.62790        0.75290
O          2.02840        4.60140        0.41920
C          2.23200        4.70590       -0.97510
C          0.94910        5.08680       -1.71340
H          2.14270       -0.27320       -0.82200
H         -0.59500        0.36850        3.28910
H         -1.69750        0.39870        1.01260
H          4.15070       -0.50940        0.54150
H          3.86940       -1.22310        2.15340
H          4.12460        0.52080        1.99840
H         -1.95230        1.87990       -2.10310
H          0.84380        1.16620       -4.02070
H         -0.19630        2.86940       -5.84870
H         -1.13720        4.54160       -1.78380
H         -1.01830        3.14430        0.38080
H         -0.67630        4.87800        0.55680
H          0.98660        3.61820        1.85070
H          1.40840        2.62270        0.44240
H          3.00690        5.47270       -1.12400
H          2.64160        3.75120       -1.37130
H          0.64660        6.09390       -1.38410
H          1.13230        5.14970       -2.79710
