rmsd67.gzmat
 OpenBabel08211713373D

 42 43  0  0  1  0  0  0  0  0999 V2000
    0.0000    0.0000    0.0000 C   0  0  0  0  0  0  0  0  0  0  0  0
    1.3950    0.0000    0.0000 C   0  0  0  0  0  0  0  0  0  0  0  0
    2.1032    0.0000    1.2022 C   0  0  0  0  0  0  0  0  0  0  0  0
    1.3587   -0.0002    2.3895 C   0  0  0  0  0  0  0  0  0  0  0  0
   -0.0341    0.0061    2.4133 C   0  0  0  0  0  0  0  0  0  0  0  0
   -0.7140    0.0110    1.1979 C   0  0  0  0  0  0  0  0  0  0  0  0
    2.0053   -0.0027    3.5433 F   0  0  0  0  0  0  0  0  0  0  0  0
    3.5881    0.0115    1.2240 C   0  0  0  0  0  0  0  0  0  0  0  0
   -0.8673   -0.0173   -1.5211 S   0  0  0  0  0  0  0  0  0  0  0  0
   -2.2419    0.3801   -1.2381 O   0  0  0  0  0  0  0  0  0  0  0  0
   -0.0742    0.6139   -2.5402 O   0  0  0  0  0  0  0  0  0  0  0  0
   -0.9298   -1.7034   -1.9324 N   0  0  0  0  0  0  0  0  0  0  0  0
   -2.1722   -2.4535   -1.7196 C   0  0  1  0  0  0  0  0  0  0  0  0
   -2.7806   -1.9959   -0.8925 H   0  0  0  0  0  0  0  0  0  0  0  0
   -2.9796   -2.4693   -3.0318 C   0  0  0  0  0  0  0  0  0  0  0  0
   -2.7274   -3.2321   -3.9419 O   0  0  0  0  0  0  0  0  0  0  0  0
   -3.9057   -1.4566   -3.2560 N   0  0  0  0  0  0  0  0  0  0  0  0
   -4.4549   -0.8509   -2.1305 O   0  0  0  0  0  0  0  0  0  0  0  0
   -1.8381   -3.9213   -1.3330 C   0  0  0  0  0  0  0  0  0  0  0  0
   -0.9825   -3.9827   -0.0589 C   0  0  0  0  0  0  0  0  0  0  0  0
   -1.8033   -3.6093    1.1773 C   0  0  0  0  0  0  0  0  0  0  0  0
   -2.9602   -4.4144    1.2920 O   0  0  0  0  0  0  0  0  0  0  0  0
   -3.8282   -4.3152    0.1787 C   0  0  0  0  0  0  0  0  0  0  0  0
   -3.1227   -4.7344   -1.1122 C   0  0  0  0  0  0  0  0  0  0  0  0
    1.9563    0.0114   -0.9423 H   0  0  0  0  0  0  0  0  0  0  0  0
   -0.5798    0.0109    3.3563 H   0  0  0  0  0  0  0  0  0  0  0  0
   -1.8117    0.0353    1.2040 H   0  0  0  0  0  0  0  0  0  0  0  0
    4.0307   -0.0835    0.2220 H   0  0  0  0  0  0  0  0  0  0  0  0
    4.0014   -0.8090    1.8317 H   0  0  0  0  0  0  0  0  0  0  0  0
    3.9779    0.9490    1.6548 H   0  0  0  0  0  0  0  0  0  0  0  0
   -0.4312   -1.9934   -2.7759 H   0  0  0  0  0  0  0  0  0  0  0  0
   -4.6403   -1.5429   -3.9393 H   0  0  0  0  0  0  0  0  0  0  0  0
   -3.7312   -0.1916   -1.8222 H   0  0  0  0  0  0  0  0  0  0  0  0
   -1.2656   -4.3802   -2.1786 H   0  0  0  0  0  0  0  0  0  0  0  0
   -0.0995   -3.3233   -0.1481 H   0  0  0  0  0  0  0  0  0  0  0  0
   -0.5855   -5.0097    0.0600 H   0  0  0  0  0  0  0  0  0  0  0  0
   -1.2656   -3.8404    2.1152 H   0  0  0  0  0  0  0  0  0  0  0  0
   -2.0951   -2.5447    1.1800 H   0  0  0  0  0  0  0  0  0  0  0  0
   -4.6383   -5.0166    0.4540 H   0  0  0  0  0  0  0  0  0  0  0  0
   -4.2386   -3.2921    0.1202 H   0  0  0  0  0  0  0  0  0  0  0  0
   -2.8576   -5.8098   -1.0504 H   0  0  0  0  0  0  0  0  0  0  0  0
   -3.8056   -4.6501   -1.9770 H   0  0  0  0  0  0  0  0  0  0  0  0
  1  2  2  0  0  0  0
  1  6  1  0  0  0  0
  2  3  1  0  0  0  0
  3  8  1  0  0  0  0
  3  4  2  0  0  0  0
  4  5  1  0  0  0  0
  4  7  1  0  0  0  0
  5 26  1  0  0  0  0
  6 27  1  0  0  0  0
  6  5  2  0  0  0  0
  8 30  1  0  0  0  0
  8 29  1  0  0  0  0
  9 10  2  0  0  0  0
  9  1  1  0  0  0  0
 11  9  2  0  0  0  0
 12 13  1  0  0  0  0
 12  9  1  0  0  0  0
 13 19  1  0  0  0  0
 13 14  1  1  0  0  0
 15 13  1  0  0  0  0
 16 15  2  0  0  0  0
 17 15  1  0  0  0  0
 17 18  1  0  0  0  0
 18 33  1  0  0  0  0
 19 24  1  0  0  0  0
 19 20  1  0  0  0  0
 20 36  1  0  0  0  0
 20 21  1  0  0  0  0
 21 38  1  0  0  0  0
 21 22  1  0  0  0  0
 21 37  1  0  0  0  0
 23 39  1  0  0  0  0
 23 22  1  0  0  0  0
 24 41  1  0  0  0  0
 24 23  1  0  0  0  0
 25  2  1  0  0  0  0
 28  8  1  0  0  0  0
 31 12  1  0  0  0  0
 32 17  1  0  0  0  0
 34 19  1  0  0  0  0
 35 20  1  0  0  0  0
 40 23  1  0  0  0  0
 42 24  1  0  0  0  0
M  END
$$$$
