42

C         -0.21420        0.00340       -0.24070
C          1.11890       -0.34080        0.00840
C          1.60440       -0.37950        1.31600
C          0.69990       -0.04900        2.33940
C         -0.62260        0.30930        2.10340
C         -1.09240        0.33670        0.78880
F          1.14300       -0.08360        3.60130
C          3.01900       -0.75950        1.65200
S         -0.79190       -0.03680       -1.92670
O         -2.19800        0.42950       -1.90720
O          0.16760        0.60340       -2.81950
N         -0.70420       -1.67850       -2.25190
C         -1.76280       -2.53180       -1.69950
H         -2.10840       -2.06590       -0.77080
C         -2.90980       -2.58810       -2.71500
O         -2.75810       -3.11150       -3.80730
N         -4.08510       -2.01650       -2.34460
O         -4.22180       -1.23310       -1.21700
C         -1.23170       -3.94640       -1.40350
C         -0.01640       -3.91900       -0.46220
C         -0.42220       -3.58420        0.97280
O         -1.41800       -4.46160        1.45840
C         -2.59780       -4.43180        0.67870
C         -2.32780       -4.82670       -0.77380
H          1.77770       -0.58700       -0.82630
H         -1.26770        0.55570        2.94790
H         -2.12410        0.60520        0.56340
H          3.59330       -0.98150        0.74250
H          3.04360       -1.64640        2.30540
H          3.52830        0.05100        2.19720
H         -0.51780       -1.82670       -3.24700
H         -4.82080       -1.92250       -3.04260
H         -3.67130       -0.43840       -1.40440
H         -0.94110       -4.37800       -2.37460
H          0.73190       -3.19660       -0.82030
H          0.45410       -4.91580       -0.46920
H          0.43890       -3.67850        1.65180
H         -0.77360       -2.53470        1.04030
H         -3.30040       -5.13710        1.14700
H         -3.06580       -3.42610        0.72660
H         -1.98720       -5.87450       -0.79330
H         -3.26200       -4.78330       -1.35610
