rmsd62.gzmat
 OpenBabel08211713373D

 42 43  0  0  1  0  0  0  0  0999 V2000
    0.0000    0.0000    0.0000 C   0  0  0  0  0  0  0  0  0  0  0  0
    1.3958    0.0000    0.0000 C   0  0  0  0  0  0  0  0  0  0  0  0
    2.1050    0.0000    1.2016 C   0  0  0  0  0  0  0  0  0  0  0  0
    1.3601   -0.0128    2.3888 C   0  0  0  0  0  0  0  0  0  0  0  0
   -0.0326   -0.0359    2.4125 C   0  0  0  0  0  0  0  0  0  0  0  0
   -0.7136   -0.0291    1.1974 C   0  0  0  0  0  0  0  0  0  0  0  0
    2.0061   -0.0079    3.5430 F   0  0  0  0  0  0  0  0  0  0  0  0
    3.5897    0.0157    1.2252 C   0  0  0  0  0  0  0  0  0  0  0  0
   -0.8636    0.0476   -1.5226 S   0  0  0  0  0  0  0  0  0  0  0  0
    0.0573   -0.3943   -2.5641 O   0  0  0  0  0  0  0  0  0  0  0  0
   -2.1708   -0.5262   -1.3550 O   0  0  0  0  0  0  0  0  0  0  0  0
   -1.1053    1.7478   -1.7923 N   0  0  0  0  0  0  0  0  0  0  0  0
   -0.2924    2.4353   -2.8020 C   0  0  1  0  0  0  0  0  0  0  0  0
    0.7029    1.9269   -2.9266 H   0  0  0  0  0  0  0  0  0  0  0  0
   -1.0593    2.4488   -4.1378 C   0  0  0  0  0  0  0  0  0  0  0  0
   -1.9546    3.2356   -4.3678 O   0  0  0  0  0  0  0  0  0  0  0  0
   -0.8430    1.4103   -5.0376 N   0  0  0  0  0  0  0  0  0  0  0  0
    0.3889    0.7678   -4.9630 O   0  0  0  0  0  0  0  0  0  0  0  0
   -0.0403    3.9054   -2.3656 C   0  0  0  0  0  0  0  0  0  0  0  0
    0.7118    3.9679   -1.0275 C   0  0  0  0  0  0  0  0  0  0  0  0
    2.1696    3.5305   -1.1898 C   0  0  0  0  0  0  0  0  0  0  0  0
    2.8292    4.2739   -2.1960 O   0  0  0  0  0  0  0  0  0  0  0  0
    2.2197    4.1678   -3.4691 C   0  0  0  0  0  0  0  0  0  0  0  0
    0.7721    4.6607   -3.4291 C   0  0  0  0  0  0  0  0  0  0  0  0
    1.9565   -0.0109   -0.9439 H   0  0  0  0  0  0  0  0  0  0  0  0
   -0.5775   -0.0621    3.3552 H   0  0  0  0  0  0  0  0  0  0  0  0
   -1.8104   -0.0566    1.2037 H   0  0  0  0  0  0  0  0  0  0  0  0
    4.0347   -0.0471    0.2217 H   0  0  0  0  0  0  0  0  0  0  0  0
    4.0018   -0.8277    1.8026 H   0  0  0  0  0  0  0  0  0  0  0  0
    3.9800    0.9351    1.6910 H   0  0  0  0  0  0  0  0  0  0  0  0
   -2.0691    2.0866   -1.7634 H   0  0  0  0  0  0  0  0  0  0  0  0
   -1.0841    1.4851   -6.0126 H   0  0  0  0  0  0  0  0  0  0  0  0
    0.2896    0.1261   -4.1678 H   0  0  0  0  0  0  0  0  0  0  0  0
   -1.0337    4.4083   -2.2493 H   0  0  0  0  0  0  0  0  0  0  0  0
    0.2060    3.3451   -0.2661 H   0  0  0  0  0  0  0  0  0  0  0  0
    0.6797    5.0064   -0.6433 H   0  0  0  0  0  0  0  0  0  0  0  0
    2.7732    3.7673   -0.2942 H   0  0  0  0  0  0  0  0  0  0  0  0
    2.2604    2.4535   -1.4123 H   0  0  0  0  0  0  0  0  0  0  0  0
    2.8641    4.8183   -4.0900 H   0  0  0  0  0  0  0  0  0  0  0  0
    2.3000    3.1286   -3.8329 H   0  0  0  0  0  0  0  0  0  0  0  0
    0.7608    5.7430   -3.1863 H   0  0  0  0  0  0  0  0  0  0  0  0
    0.3033    4.5801   -4.4268 H   0  0  0  0  0  0  0  0  0  0  0  0
  1  6  1  0  0  0  0
  2  1  2  0  0  0  0
  2  3  1  0  0  0  0
  3  8  1  0  0  0  0
  3  4  2  0  0  0  0
  4  5  1  0  0  0  0
  4  7  1  0  0  0  0
  5 26  1  0  0  0  0
  6 27  1  0  0  0  0
  6  5  2  0  0  0  0
  8 30  1  0  0  0  0
  8 29  1  0  0  0  0
  9 11  2  0  0  0  0
  9  1  1  0  0  0  0
 10  9  2  0  0  0  0
 12 31  1  0  0  0  0
 12  9  1  0  0  0  0
 13 14  1  6  0  0  0
 13 19  1  0  0  0  0
 13 12  1  0  0  0  0
 15 13  1  0  0  0  0
 16 15  2  0  0  0  0
 17 18  1  0  0  0  0
 17 15  1  0  0  0  0
 18 33  1  0  0  0  0
 19 34  1  0  0  0  0
 19 20  1  0  0  0  0
 20 36  1  0  0  0  0
 20 35  1  0  0  0  0
 21 20  1  0  0  0  0
 21 37  1  0  0  0  0
 22 21  1  0  0  0  0
 23 24  1  0  0  0  0
 23 22  1  0  0  0  0
 24 41  1  0  0  0  0
 24 19  1  0  0  0  0
 25  2  1  0  0  0  0
 28  8  1  0  0  0  0
 32 17  1  0  0  0  0
 38 21  1  0  0  0  0
 39 23  1  0  0  0  0
 40 23  1  0  0  0  0
 42 24  1  0  0  0  0
M  END
$$$$
