
     RDKit          3D

 42 43  0  0  0  0  0  0  0  0999 V2000
   -0.2142    0.0034   -0.2407 C   0  0  0  0  0  0  0  0  0  0  0  0
    1.1189   -0.3408    0.0084 C   0  0  0  0  0  0  0  0  0  0  0  0
    1.6044   -0.3795    1.3160 C   0  0  0  0  0  0  0  0  0  0  0  0
    0.6999   -0.0490    2.3394 C   0  0  0  0  0  0  0  0  0  0  0  0
   -0.6226    0.3093    2.1034 C   0  0  0  0  0  0  0  0  0  0  0  0
   -1.0924    0.3367    0.7888 C   0  0  0  0  0  0  0  0  0  0  0  0
    1.1430   -0.0836    3.6013 F   0  0  0  0  0  0  0  0  0  0  0  0
    3.0190   -0.7595    1.6520 C   0  0  0  0  0  0  0  0  0  0  0  0
   -0.7919   -0.0368   -1.9267 S   0  0  0  0  0  0  0  0  0  0  0  0
   -2.1980    0.4295   -1.9072 O   0  0  0  0  0  0  0  0  0  0  0  0
    0.1676    0.6034   -2.8195 O   0  0  0  0  0  0  0  0  0  0  0  0
   -0.7042   -1.6785   -2.2519 N   0  0  0  0  0  0  0  0  0  0  0  0
   -1.7628   -2.5318   -1.6995 C   0  0  1  0  0  0  0  0  0  0  0  0
   -2.1084   -2.0659   -0.7708 H   0  0  0  0  0  0  0  0  0  0  0  0
   -2.9098   -2.5881   -2.7150 C   0  0  0  0  0  0  0  0  0  0  0  0
   -2.7581   -3.1115   -3.8073 O   0  0  0  0  0  0  0  0  0  0  0  0
   -4.0851   -2.0165   -2.3446 N   0  0  0  0  0  0  0  0  0  0  0  0
   -4.2218   -1.2331   -1.2170 O   0  0  0  0  0  0  0  0  0  0  0  0
   -1.2317   -3.9464   -1.4035 C   0  0  0  0  0  0  0  0  0  0  0  0
   -0.0164   -3.9190   -0.4622 C   0  0  0  0  0  0  0  0  0  0  0  0
   -0.4222   -3.5842    0.9728 C   0  0  0  0  0  0  0  0  0  0  0  0
   -1.4180   -4.4616    1.4584 O   0  0  0  0  0  0  0  0  0  0  0  0
   -2.5978   -4.4318    0.6787 C   0  0  0  0  0  0  0  0  0  0  0  0
   -2.3278   -4.8267   -0.7738 C   0  0  0  0  0  0  0  0  0  0  0  0
    1.7777   -0.5870   -0.8263 H   0  0  0  0  0  0  0  0  0  0  0  0
   -1.2677    0.5557    2.9479 H   0  0  0  0  0  0  0  0  0  0  0  0
   -2.1241    0.6052    0.5634 H   0  0  0  0  0  0  0  0  0  0  0  0
    3.5933   -0.9815    0.7425 H   0  0  0  0  0  0  0  0  0  0  0  0
    3.0436   -1.6464    2.3054 H   0  0  0  0  0  0  0  0  0  0  0  0
    3.5283    0.0510    2.1972 H   0  0  0  0  0  0  0  0  0  0  0  0
   -0.5178   -1.8267   -3.2470 H   0  0  0  0  0  0  0  0  0  0  0  0
   -4.8208   -1.9225   -3.0426 H   0  0  0  0  0  0  0  0  0  0  0  0
   -3.6713   -0.4384   -1.4044 H   0  0  0  0  0  0  0  0  0  0  0  0
   -0.9411   -4.3780   -2.3746 H   0  0  0  0  0  0  0  0  0  0  0  0
    0.7319   -3.1966   -0.8203 H   0  0  0  0  0  0  0  0  0  0  0  0
    0.4541   -4.9158   -0.4692 H   0  0  0  0  0  0  0  0  0  0  0  0
    0.4389   -3.6785    1.6518 H   0  0  0  0  0  0  0  0  0  0  0  0
   -0.7736   -2.5347    1.0403 H   0  0  0  0  0  0  0  0  0  0  0  0
   -3.3004   -5.1371    1.1470 H   0  0  0  0  0  0  0  0  0  0  0  0
   -3.0658   -3.4261    0.7266 H   0  0  0  0  0  0  0  0  0  0  0  0
   -1.9872   -5.8745   -0.7933 H   0  0  0  0  0  0  0  0  0  0  0  0
   -3.2620   -4.7833   -1.3561 H   0  0  0  0  0  0  0  0  0  0  0  0
  1  2  2  0
  1  6  1  0
  1  9  1  0
  2  3  1  0
  2 25  1  0
  3  4  2  0
  3  8  1  0
  4  5  1  0
  4  7  1  0
  5  6  2  0
  5 26  1  0
  6 27  1  0
  8 28  1  0
  8 29  1  0
  8 30  1  0
  9 10  2  0
  9 11  2  0
  9 12  1  0
 12 13  1  0
 12 31  1  0
 13 14  1  1
 13 15  1  0
 13 19  1  0
 15 16  2  0
 15 17  1  0
 17 18  1  0
 17 32  1  0
 18 33  1  0
 19 20  1  0
 19 24  1  0
 19 34  1  0
 20 21  1  0
 20 35  1  0
 20 36  1  0
 21 22  1  0
 21 37  1  0
 21 38  1  0
 22 23  1  0
 23 24  1  0
 23 39  1  0
 23 40  1  0
 24 41  1  0
 24 42  1  0
M  END

