42
rmsd56.gzmat
C          0.00000        0.00000        0.00000
C          1.39480        0.00000        0.00000
C          2.10290        0.00000        1.20260
C          1.35810        0.00280        2.38950
C         -0.03470        0.02000        2.41310
C         -0.71440        0.02330        1.19750
F          2.00360       -0.00890        3.54400
C          3.58780       -0.00950        1.22470
S         -0.87080       -0.04560       -1.51860
O         -2.23410        0.39330       -1.24450
O         -0.06790        0.53100       -2.56220
N         -0.96890       -1.74420       -1.86740
C         -2.21340       -2.46930       -1.59180
H         -2.79150       -1.97400       -0.76570
C         -3.05570       -2.52530       -2.88130
O         -2.83380       -3.32410       -3.76830
N         -3.97950       -1.51360       -3.11910
O         -4.48690       -0.85620       -2.00320
C         -1.88810       -3.92710       -1.16160
C         -1.00200       -3.96020        0.09250
C         -1.78680       -3.54640        1.33930
O         -2.94990       -4.33380        1.50360
C         -3.84470       -4.25070        0.41050
C         -3.17650       -4.71620       -0.88450
H          1.95640        0.00870       -0.94240
H         -0.58040        0.03410        3.35620
H         -1.81150        0.05460        1.20310
H          4.03060        0.12630        0.22710
H          3.97980       -0.95940        1.62320
H          3.99860        0.79190        1.85940
H         -0.49550       -2.07350       -2.71060
H         -4.73680       -1.62090       -3.77460
H         -3.75050       -0.18640       -1.75270
H         -1.34180       -4.42020       -2.00560
H         -0.11570       -3.31230       -0.03760
H         -0.61100       -4.98720        0.22970
H         -1.22910       -3.76140        2.26930
H         -2.06520       -2.47870        1.32360
H         -4.65990       -4.92950        0.72470
H         -4.23920       -3.22280        0.33510
H         -2.92370       -5.79290       -0.79810
H         -3.87980       -4.64950       -1.73440
