rmsd239.gzmat
 OpenBabel08211713373D

 42 43  0  0  1  0  0  0  0  0999 V2000
    0.0000    0.0000    0.0000 C   0  0  0  0  0  0  0  0  0  0  0  0
    1.3952    0.0000    0.0000 C   0  0  0  0  0  0  0  0  0  0  0  0
    2.1046    0.0000    1.2015 C   0  0  0  0  0  0  0  0  0  0  0  0
    1.3605   -0.0078    2.3887 C   0  0  0  0  0  0  0  0  0  0  0  0
   -0.0324    0.0013    2.4136 C   0  0  0  0  0  0  0  0  0  0  0  0
   -0.7131    0.0136    1.1983 C   0  0  0  0  0  0  0  0  0  0  0  0
    2.0076   -0.0196    3.5423 F   0  0  0  0  0  0  0  0  0  0  0  0
    3.5898    0.0111    1.2228 C   0  0  0  0  0  0  0  0  0  0  0  0
   -0.8578   -0.0107   -1.5266 S   0  0  0  0  0  0  0  0  0  0  0  0
   -1.9929    0.8984   -1.4201 O   0  0  0  0  0  0  0  0  0  0  0  0
    0.0977    0.0806   -2.5972 O   0  0  0  0  0  0  0  0  0  0  0  0
   -1.5485   -1.6063   -1.5923 N   0  0  0  0  0  0  0  0  0  0  0  0
   -3.0093   -1.7562   -1.5510 C   0  0  1  0  0  0  0  0  0  0  0  0
   -3.4729   -0.9524   -0.9158 H   0  0  0  0  0  0  0  0  0  0  0  0
   -3.5591   -1.6933   -2.9877 C   0  0  0  0  0  0  0  0  0  0  0  0
   -3.4912   -2.6328   -3.7538 O   0  0  0  0  0  0  0  0  0  0  0  0
   -3.9769   -0.4630   -3.4823 N   0  0  0  0  0  0  0  0  0  0  0  0
   -4.3946    0.4787   -2.5469 O   0  0  0  0  0  0  0  0  0  0  0  0
   -3.3683   -3.1371   -0.9358 C   0  0  0  0  0  0  0  0  0  0  0  0
   -2.9202   -3.2127    0.5323 C   0  0  0  0  0  0  0  0  0  0  0  0
   -3.8154   -2.3566    1.4326 C   0  0  0  0  0  0  0  0  0  0  0  0
   -5.1798   -2.6963    1.2830 O   0  0  0  0  0  0  0  0  0  0  0  0
   -5.6561   -2.5311   -0.0398 C   0  0  0  0  0  0  0  0  0  0  0  0
   -4.8769   -3.4155   -1.0141 C   0  0  0  0  0  0  0  0  0  0  0  0
    1.9564    0.0066   -0.9451 H   0  0  0  0  0  0  0  0  0  0  0  0
   -0.5771    0.0034    3.3569 H   0  0  0  0  0  0  0  0  0  0  0  0
   -1.8084    0.0416    1.2070 H   0  0  0  0  0  0  0  0  0  0  0  0
    4.0313    0.0289    0.2155 H   0  0  0  0  0  0  0  0  0  0  0  0
    3.9997   -0.8753    1.7325 H   0  0  0  0  0  0  0  0  0  0  0  0
    3.9833    0.8926    1.7549 H   0  0  0  0  0  0  0  0  0  0  0  0
   -1.1087   -2.2643   -2.2400 H   0  0  0  0  0  0  0  0  0  0  0  0
   -4.5807   -0.3801   -4.2838 H   0  0  0  0  0  0  0  0  0  0  0  0
   -3.5195    0.8619   -2.1703 H   0  0  0  0  0  0  0  0  0  0  0  0
   -2.8329   -3.9263   -1.5223 H   0  0  0  0  0  0  0  0  0  0  0  0
   -1.8629   -2.9041    0.6330 H   0  0  0  0  0  0  0  0  0  0  0  0
   -2.9637   -4.2669    0.8685 H   0  0  0  0  0  0  0  0  0  0  0  0
   -3.6416   -2.5640    2.5048 H   0  0  0  0  0  0  0  0  0  0  0  0
   -3.6875   -1.2763    1.2462 H   0  0  0  0  0  0  0  0  0  0  0  0
   -6.7130   -2.8449    0.0524 H   0  0  0  0  0  0  0  0  0  0  0  0
   -5.6176   -1.4632   -0.3177 H   0  0  0  0  0  0  0  0  0  0  0  0
   -5.0562   -4.4811   -0.7621 H   0  0  0  0  0  0  0  0  0  0  0  0
   -5.2578   -3.2943   -2.0449 H   0  0  0  0  0  0  0  0  0  0  0  0
  1  2  2  0  0  0  0
  1  6  1  0  0  0  0
  2  3  1  0  0  0  0
  3  8  1  0  0  0  0
  3  4  2  0  0  0  0
  4  5  1  0  0  0  0
  4  7  1  0  0  0  0
  5 26  1  0  0  0  0
  6 27  1  0  0  0  0
  6  5  2  0  0  0  0
  8 29  1  0  0  0  0
  8 30  1  0  0  0  0
  9 10  2  0  0  0  0
  9  1  1  0  0  0  0
 11  9  2  0  0  0  0
 12 13  1  0  0  0  0
 12  9  1  0  0  0  0
 13 19  1  0  0  0  0
 13 14  1  1  0  0  0
 15 13  1  0  0  0  0
 16 15  2  0  0  0  0
 17 15  1  0  0  0  0
 17 18  1  0  0  0  0
 18 33  1  0  0  0  0
 19 20  1  0  0  0  0
 20 35  1  0  0  0  0
 20 36  1  0  0  0  0
 20 21  1  0  0  0  0
 21 37  1  0  0  0  0
 22 21  1  0  0  0  0
 23 39  1  0  0  0  0
 23 22  1  0  0  0  0
 24 19  1  0  0  0  0
 24 41  1  0  0  0  0
 24 23  1  0  0  0  0
 25  2  1  0  0  0  0
 28  8  1  0  0  0  0
 31 12  1  0  0  0  0
 32 17  1  0  0  0  0
 34 19  1  0  0  0  0
 38 21  1  0  0  0  0
 40 23  1  0  0  0  0
 42 24  1  0  0  0  0
M  END
$$$$
