rmsd187.gzmat
 OpenBabel08211713373D

 42 43  0  0  1  0  0  0  0  0999 V2000
    0.0000    0.0000    0.0000 C   0  0  0  0  0  0  0  0  0  0  0  0
    1.3950    0.0000    0.0000 C   0  0  0  0  0  0  0  0  0  0  0  0
    2.1032    0.0000    1.2022 C   0  0  0  0  0  0  0  0  0  0  0  0
    1.3584    0.0083    2.3895 C   0  0  0  0  0  0  0  0  0  0  0  0
   -0.0342    0.0214    2.4130 C   0  0  0  0  0  0  0  0  0  0  0  0
   -0.7141    0.0199    1.1975 C   0  0  0  0  0  0  0  0  0  0  0  0
    2.0046    0.0050    3.5433 F   0  0  0  0  0  0  0  0  0  0  0  0
    3.5880   -0.0077    1.2250 C   0  0  0  0  0  0  0  0  0  0  0  0
   -0.8688   -0.0552   -1.5197 S   0  0  0  0  0  0  0  0  0  0  0  0
   -2.2704    0.2170   -1.2220 O   0  0  0  0  0  0  0  0  0  0  0  0
   -0.1420    0.6588   -2.5334 O   0  0  0  0  0  0  0  0  0  0  0  0
   -0.7799   -1.7322   -1.9582 N   0  0  0  0  0  0  0  0  0  0  0  0
   -1.9088   -2.6203   -1.6636 C   0  0  1  0  0  0  0  0  0  0  0  0
   -2.5252   -2.2199   -0.8135 H   0  0  0  0  0  0  0  0  0  0  0  0
   -2.7740   -2.7616   -2.9309 C   0  0  0  0  0  0  0  0  0  0  0  0
   -2.4907   -3.5253   -3.8307 O   0  0  0  0  0  0  0  0  0  0  0  0
   -3.8066   -1.8515   -3.1372 N   0  0  0  0  0  0  0  0  0  0  0  0
   -4.3639   -1.2739   -2.0009 O   0  0  0  0  0  0  0  0  0  0  0  0
   -1.3797   -4.0282   -1.2712 C   0  0  0  0  0  0  0  0  0  0  0  0
   -0.4369   -3.9577   -0.0609 C   0  0  0  0  0  0  0  0  0  0  0  0
   -1.2078   -3.6560    1.2260 C   0  0  0  0  0  0  0  0  0  0  0  0
   -2.2470   -4.5916    1.4360 O   0  0  0  0  0  0  0  0  0  0  0  0
   -3.1981   -4.6181    0.3888 C   0  0  0  0  0  0  0  0  0  0  0  0
   -2.5425   -4.9778   -0.9459 C   0  0  0  0  0  0  0  0  0  0  0  0
    1.9565    0.0061   -0.9418 H   0  0  0  0  0  0  0  0  0  0  0  0
   -0.5804    0.0335    3.3557 H   0  0  0  0  0  0  0  0  0  0  0  0
   -1.8123    0.0424    1.2037 H   0  0  0  0  0  0  0  0  0  0  0  0
    4.0304   -0.0826    0.2217 H   0  0  0  0  0  0  0  0  0  0  0  0
    3.9863   -0.8526    1.8094 H   0  0  0  0  0  0  0  0  0  0  0  0
    3.9928    0.9102    1.6816 H   0  0  0  0  0  0  0  0  0  0  0  0
   -0.3072   -1.9623   -2.8334 H   0  0  0  0  0  0  0  0  0  0  0  0
   -4.5614   -2.0374   -3.7782 H   0  0  0  0  0  0  0  0  0  0  0  0
   -3.7039   -0.5301   -1.7471 H   0  0  0  0  0  0  0  0  0  0  0  0
   -0.8151   -4.4403   -2.1460 H   0  0  0  0  0  0  0  0  0  0  0  0
    0.3526   -3.2007   -0.2228 H   0  0  0  0  0  0  0  0  0  0  0  0
    0.0872   -4.9277    0.0440 H   0  0  0  0  0  0  0  0  0  0  0  0
   -0.5806   -3.7978    2.1248 H   0  0  0  0  0  0  0  0  0  0  0  0
   -1.6257   -2.6345    1.2346 H   0  0  0  0  0  0  0  0  0  0  0  0
   -3.8987   -5.4026    0.7314 H   0  0  0  0  0  0  0  0  0  0  0  0
   -3.7291   -3.6513    0.3488 H   0  0  0  0  0  0  0  0  0  0  0  0
   -2.1530   -6.0150   -0.8935 H   0  0  0  0  0  0  0  0  0  0  0  0
   -3.2913   -4.9879   -1.7584 H   0  0  0  0  0  0  0  0  0  0  0  0
  1  2  2  0  0  0  0
  1  6  1  0  0  0  0
  2  3  1  0  0  0  0
  3  8  1  0  0  0  0
  3  4  2  0  0  0  0
  4  5  1  0  0  0  0
  4  7  1  0  0  0  0
  5 26  1  0  0  0  0
  6 27  1  0  0  0  0
  6  5  2  0  0  0  0
  8 30  1  0  0  0  0
  8 29  1  0  0  0  0
  9 10  2  0  0  0  0
  9  1  1  0  0  0  0
 11  9  2  0  0  0  0
 12 13  1  0  0  0  0
 12  9  1  0  0  0  0
 13 19  1  0  0  0  0
 13 14  1  1  0  0  0
 15 13  1  0  0  0  0
 16 15  2  0  0  0  0
 17 15  1  0  0  0  0
 17 18  1  0  0  0  0
 18 33  1  0  0  0  0
 19 24  1  0  0  0  0
 19 20  1  0  0  0  0
 20 36  1  0  0  0  0
 20 21  1  0  0  0  0
 21 38  1  0  0  0  0
 21 22  1  0  0  0  0
 21 37  1  0  0  0  0
 23 39  1  0  0  0  0
 23 22  1  0  0  0  0
 24 41  1  0  0  0  0
 24 23  1  0  0  0  0
 25  2  1  0  0  0  0
 28  8  1  0  0  0  0
 31 12  1  0  0  0  0
 32 17  1  0  0  0  0
 34 19  1  0  0  0  0
 35 20  1  0  0  0  0
 40 23  1  0  0  0  0
 42 24  1  0  0  0  0
M  END
$$$$
