rmsd68.gzmat
 OpenBabel08211713373D

 42 43  0  0  1  0  0  0  0  0999 V2000
    0.0000    0.0000    0.0000 C   0  0  0  0  0  0  0  0  0  0  0  0
    1.3950    0.0000    0.0000 C   0  0  0  0  0  0  0  0  0  0  0  0
    2.1043    0.0000    1.2018 C   0  0  0  0  0  0  0  0  0  0  0  0
    1.3599    0.0080    2.3890 C   0  0  0  0  0  0  0  0  0  0  0  0
   -0.0330    0.0183    2.4128 C   0  0  0  0  0  0  0  0  0  0  0  0
   -0.7138    0.0179    1.1976 C   0  0  0  0  0  0  0  0  0  0  0  0
    2.0069    0.0088    3.5428 F   0  0  0  0  0  0  0  0  0  0  0  0
    3.5894    0.0000    1.2215 C   0  0  0  0  0  0  0  0  0  0  0  0
   -0.8655   -0.0361   -1.5219 S   0  0  0  0  0  0  0  0  0  0  0  0
   -2.2441    0.3512   -1.2450 O   0  0  0  0  0  0  0  0  0  0  0  0
   -0.0769    0.5910   -2.5469 O   0  0  0  0  0  0  0  0  0  0  0  0
   -0.9097   -1.7266   -1.9170 N   0  0  0  0  0  0  0  0  0  0  0  0
   -2.1356   -2.4936   -1.6732 C   0  0  1  0  0  0  0  0  0  0  0  0
   -2.7397   -2.0308   -0.8461 H   0  0  0  0  0  0  0  0  0  0  0  0
   -2.9581   -2.5482   -2.9754 C   0  0  0  0  0  0  0  0  0  0  0  0
   -2.7006   -3.3219   -3.8749 O   0  0  0  0  0  0  0  0  0  0  0  0
   -3.9047   -1.5565   -3.2070 N   0  0  0  0  0  0  0  0  0  0  0  0
   -4.4461   -0.9354   -2.0862 O   0  0  0  0  0  0  0  0  0  0  0  0
   -1.7739   -3.9492   -1.2652 C   0  0  0  0  0  0  0  0  0  0  0  0
   -0.8835   -3.9784   -0.0144 C   0  0  0  0  0  0  0  0  0  0  0  0
   -1.6743   -3.5997    1.2397 C   0  0  0  0  0  0  0  0  0  0  0  0
   -2.8199   -4.4141    1.3953 O   0  0  0  0  0  0  0  0  0  0  0  0
   -3.7192   -4.3345    0.3058 C   0  0  0  0  0  0  0  0  0  0  0  0
   -3.0450   -4.7697   -0.9967 C   0  0  0  0  0  0  0  0  0  0  0  0
    1.9562    0.0095   -0.9424 H   0  0  0  0  0  0  0  0  0  0  0  0
   -0.5782    0.0299    3.3560 H   0  0  0  0  0  0  0  0  0  0  0  0
   -1.8115    0.0432    1.2036 H   0  0  0  0  0  0  0  0  0  0  0  0
    4.0302   -0.1189    0.2212 H   0  0  0  0  0  0  0  0  0  0  0  0
    3.9960   -0.8142    1.8422 H   0  0  0  0  0  0  0  0  0  0  0  0
    3.9886    0.9411    1.6352 H   0  0  0  0  0  0  0  0  0  0  0  0
   -0.4205   -2.0167   -2.7658 H   0  0  0  0  0  0  0  0  0  0  0  0
   -4.6480   -1.6681   -3.8773 H   0  0  0  0  0  0  0  0  0  0  0  0
   -3.7281   -0.2588   -1.8033 H   0  0  0  0  0  0  0  0  0  0  0  0
   -1.2177   -4.4177   -2.1168 H   0  0  0  0  0  0  0  0  0  0  0  0
   -0.0145   -3.3055   -0.1378 H   0  0  0  0  0  0  0  0  0  0  0  0
   -0.4666   -4.9971    0.1079 H   0  0  0  0  0  0  0  0  0  0  0  0
   -1.1093   -3.8150    2.1654 H   0  0  0  0  0  0  0  0  0  0  0  0
   -1.9763   -2.5384    1.2384 H   0  0  0  0  0  0  0  0  0  0  0  0
   -4.5192   -5.0342    0.6130 H   0  0  0  0  0  0  0  0  0  0  0  0
   -4.1360   -3.3142    0.2432 H   0  0  0  0  0  0  0  0  0  0  0  0
   -2.7701   -5.8419   -0.9252 H   0  0  0  0  0  0  0  0  0  0  0  0
   -3.7517   -4.7044   -1.8436 H   0  0  0  0  0  0  0  0  0  0  0  0
  1  2  2  0  0  0  0
  1  6  1  0  0  0  0
  2  3  1  0  0  0  0
  3  8  1  0  0  0  0
  3  4  2  0  0  0  0
  4  5  1  0  0  0  0
  4  7  1  0  0  0  0
  5 26  1  0  0  0  0
  6 27  1  0  0  0  0
  6  5  2  0  0  0  0
  8 30  1  0  0  0  0
  8 29  1  0  0  0  0
  9 10  2  0  0  0  0
  9  1  1  0  0  0  0
 11  9  2  0  0  0  0
 12 13  1  0  0  0  0
 12  9  1  0  0  0  0
 13 19  1  0  0  0  0
 13 14  1  1  0  0  0
 15 13  1  0  0  0  0
 16 15  2  0  0  0  0
 17 15  1  0  0  0  0
 17 18  1  0  0  0  0
 18 33  1  0  0  0  0
 19 24  1  0  0  0  0
 19 20  1  0  0  0  0
 20 36  1  0  0  0  0
 20 21  1  0  0  0  0
 21 22  1  0  0  0  0
 21 37  1  0  0  0  0
 23 39  1  0  0  0  0
 23 22  1  0  0  0  0
 24 41  1  0  0  0  0
 24 23  1  0  0  0  0
 25  2  1  0  0  0  0
 28  8  1  0  0  0  0
 31 12  1  0  0  0  0
 32 17  1  0  0  0  0
 34 19  1  0  0  0  0
 35 20  1  0  0  0  0
 38 21  1  0  0  0  0
 40 23  1  0  0  0  0
 42 24  1  0  0  0  0
M  END
$$$$
