rmsd65.gzmat
 OpenBabel08211713373D

 42 43  0  0  1  0  0  0  0  0999 V2000
    0.0000    0.0000    0.0000 C   0  0  0  0  0  0  0  0  0  0  0  0
    1.3957    0.0000    0.0000 C   0  0  0  0  0  0  0  0  0  0  0  0
    2.1049    0.0000    1.2011 C   0  0  0  0  0  0  0  0  0  0  0  0
    1.3599   -0.0254    2.3882 C   0  0  0  0  0  0  0  0  0  0  0  0
   -0.0325   -0.0553    2.4116 C   0  0  0  0  0  0  0  0  0  0  0  0
   -0.7139   -0.0394    1.1963 C   0  0  0  0  0  0  0  0  0  0  0  0
    2.0058   -0.0253    3.5425 F   0  0  0  0  0  0  0  0  0  0  0  0
    3.5894    0.0263    1.2230 C   0  0  0  0  0  0  0  0  0  0  0  0
   -0.8561    0.0671   -1.5254 S   0  0  0  0  0  0  0  0  0  0  0  0
    0.0069   -0.5281   -2.5392 O   0  0  0  0  0  0  0  0  0  0  0  0
   -2.2193   -0.3458   -1.3321 O   0  0  0  0  0  0  0  0  0  0  0  0
   -0.8990    1.7674   -1.8830 N   0  0  0  0  0  0  0  0  0  0  0  0
   -0.0126    2.3082   -2.9198 C   0  0  1  0  0  0  0  0  0  0  0  0
    0.9222    1.6911   -3.0093 H   0  0  0  0  0  0  0  0  0  0  0  0
   -0.7700    2.3361   -4.2611 C   0  0  0  0  0  0  0  0  0  0  0  0
   -1.5710    3.2058   -4.5370 O   0  0  0  0  0  0  0  0  0  0  0  0
   -0.6715    1.2365   -5.1059 N   0  0  0  0  0  0  0  0  0  0  0  0
    0.4760    0.4586   -4.9916 O   0  0  0  0  0  0  0  0  0  0  0  0
    0.3908    3.7649   -2.5567 C   0  0  0  0  0  0  0  0  0  0  0  0
    1.1378    3.8199   -1.2157 C   0  0  0  0  0  0  0  0  0  0  0  0
    2.5489    3.2409   -1.3415 C   0  0  0  0  0  0  0  0  0  0  0  0
    3.2810    3.8780   -2.3703 O   0  0  0  0  0  0  0  0  0  0  0  0
    2.6767    3.7612   -3.6448 C   0  0  0  0  0  0  0  0  0  0  0  0
    1.2778    4.3796   -3.6501 C   0  0  0  0  0  0  0  0  0  0  0  0
    1.9560   -0.0127   -0.9435 H   0  0  0  0  0  0  0  0  0  0  0  0
   -0.5782   -0.0891    3.3538 H   0  0  0  0  0  0  0  0  0  0  0  0
   -1.8112   -0.0656    1.2024 H   0  0  0  0  0  0  0  0  0  0  0  0
    4.0322    0.0290    0.2162 H   0  0  0  0  0  0  0  0  0  0  0  0
    4.0066   -0.8494    1.7470 H   0  0  0  0  0  0  0  0  0  0  0  0
    3.9757    0.9180    1.7441 H   0  0  0  0  0  0  0  0  0  0  0  0
   -1.8158    2.2180   -1.8730 H   0  0  0  0  0  0  0  0  0  0  0  0
   -0.9047    1.2870   -6.0843 H   0  0  0  0  0  0  0  0  0  0  0  0
    0.3051   -0.1182   -4.1597 H   0  0  0  0  0  0  0  0  0  0  0  0
   -0.5467    4.3716   -2.4757 H   0  0  0  0  0  0  0  0  0  0  0  0
    0.5704    3.2866   -0.4306 H   0  0  0  0  0  0  0  0  0  0  0  0
    1.2029    4.8740   -0.8815 H   0  0  0  0  0  0  0  0  0  0  0  0
    3.1650    3.4570   -0.4495 H   0  0  0  0  0  0  0  0  0  0  0  0
    2.5403    2.1519   -1.5197 H   0  0  0  0  0  0  0  0  0  0  0  0
    3.3808    4.3225   -4.2877 H   0  0  0  0  0  0  0  0  0  0  0  0
    2.6698    2.7015   -3.9542 H   0  0  0  0  0  0  0  0  0  0  0  0
    1.3603    5.4713   -3.4720 H   0  0  0  0  0  0  0  0  0  0  0  0
    0.8108    4.2841   -4.6475 H   0  0  0  0  0  0  0  0  0  0  0  0
  1  6  1  0  0  0  0
  2  1  2  0  0  0  0
  2  3  1  0  0  0  0
  3  8  1  0  0  0  0
  3  4  2  0  0  0  0
  4  5  1  0  0  0  0
  4  7  1  0  0  0  0
  5 26  1  0  0  0  0
  6 27  1  0  0  0  0
  6  5  2  0  0  0  0
  8 30  1  0  0  0  0
  8 29  1  0  0  0  0
  9 11  2  0  0  0  0
  9  1  1  0  0  0  0
 10  9  2  0  0  0  0
 12 31  1  0  0  0  0
 12  9  1  0  0  0  0
 13 14  1  6  0  0  0
 13 19  1  0  0  0  0
 13 12  1  0  0  0  0
 15 13  1  0  0  0  0
 16 15  2  0  0  0  0
 17 18  1  0  0  0  0
 17 15  1  0  0  0  0
 18 33  1  0  0  0  0
 19 34  1  0  0  0  0
 19 20  1  0  0  0  0
 20 36  1  0  0  0  0
 20 35  1  0  0  0  0
 21 20  1  0  0  0  0
 21 37  1  0  0  0  0
 22 21  1  0  0  0  0
 23 22  1  0  0  0  0
 24 23  1  0  0  0  0
 24 41  1  0  0  0  0
 24 19  1  0  0  0  0
 25  2  1  0  0  0  0
 28  8  1  0  0  0  0
 32 17  1  0  0  0  0
 38 21  1  0  0  0  0
 39 23  1  0  0  0  0
 40 23  1  0  0  0  0
 42 24  1  0  0  0  0
M  END
$$$$
