42
rmsd249.gzmat
C          0.00000        0.00000        0.00000
C          1.39570        0.00000        0.00000
C          2.10430        0.00000        1.20150
C          1.35890       -0.01780        2.38850
C         -0.03380       -0.03760        2.41200
C         -0.71450       -0.02750        1.19640
F          2.00480       -0.01890        3.54270
C          3.58880        0.01880        1.22410
S         -0.85810        0.06120       -1.52480
O          0.05790       -0.40380       -2.56000
O         -2.18000       -0.47930       -1.36300
N         -1.05700        1.76640       -1.79040
C         -0.19350        2.45280       -2.75710
H          0.79310        1.92440       -2.85900
C         -0.91570        2.50990       -4.11700
O         -1.77820        3.32850       -4.36170
N         -0.70850        1.47630       -5.02440
O          0.49810        0.79070       -4.92480
C          0.07190        3.90810       -2.28030
C          0.76070        3.93090       -0.90710
C          2.21960        3.47960       -1.00860
O          2.93240        4.24340       -1.96230
C          2.38900        4.16170       -3.26660
C          0.94470        4.66540       -3.29310
H          1.95670       -0.01020       -0.94370
H         -0.58020       -0.06020        3.35430
H         -1.81170       -0.04990        1.20240
H          4.03160        0.07940        0.21860
H          4.00090       -0.88810        1.69700
H          3.98040        0.87680        1.79530
H         -2.01240        2.12820       -1.78460
H         -0.91900        1.57280       -6.00470
H          0.35230        0.14020       -4.14410
H         -0.91580        4.43020       -2.19970
H          0.21110        3.30010       -0.18390
H          0.72300        4.96120       -0.50220
H          2.78190        3.68560       -0.07890
H          2.31070        2.40790       -1.25570
H          3.06850        4.81730       -3.84310
H          2.48090        3.12740       -3.64080
H          0.93030        5.74550       -3.04070
H          0.52510        4.59950       -4.31370
