rmsd65.gzmat
 OpenBabel08211713423D

 43 45  0  0  1  0  0  0  0  0999 V2000
    0.0000    0.0000    0.0000 Cl  0  0  0  0  0  0  0  0  0  0  0  0
    1.6918    0.0000    0.0000 C   0  0  1  0  0  0  0  0  0  0  0  0
    2.3577    0.0000    1.2301 C   0  0  0  0  0  0  0  0  0  0  0  0
    3.6981   -0.0608    1.3174 N   0  0  0  0  0  0  0  0  0  0  0  0
    4.4196   -0.1197    0.1836 C   0  0  0  0  0  0  0  0  0  0  0  0
    3.8159   -0.0963   -1.0757 C   0  0  0  0  0  0  0  0  0  0  0  0
    4.7901   -0.1218   -2.4600 Cl  0  0  0  0  0  0  0  0  0  0  0  0
    2.4177   -0.0245   -1.2013 C   0  0  0  0  0  0  0  0  0  0  0  0
    1.8116   -0.0065   -2.4653 N   0  0  0  0  0  0  0  0  0  0  0  0
    0.9049    0.9806   -2.9094 C   0  0  0  0  0  0  0  0  0  0  0  0
    0.4572    0.8316   -4.0219 O   0  0  0  0  0  0  0  0  0  0  0  0
    0.5868    2.1001   -2.0010 C   0  0  0  0  0  0  0  0  0  0  0  0
    1.5833    2.8898   -1.4357 C   0  0  0  0  0  0  0  0  0  0  0  0
    1.2388    3.8972   -0.5406 C   0  0  0  0  0  0  0  0  0  0  0  0
   -0.1043    4.1095   -0.2080 C   0  0  0  0  0  0  0  0  0  0  0  0
   -0.2653    5.1102    0.6888 O   0  0  0  0  0  0  0  0  0  0  0  0
   -1.5548    5.3080    1.2551 C   0  0  0  0  0  0  0  0  0  0  0  0
   -1.1126    3.3286   -0.8185 C   0  0  0  0  0  0  0  0  0  0  0  0
   -0.7627    2.3387   -1.7278 C   0  0  0  0  0  0  0  0  0  0  0  0
   -2.3921    3.6427   -0.4834 O   0  0  0  0  0  0  0  0  0  0  0  0
   -3.4041    2.6618   -0.7487 C   0  0  0  0  0  0  0  0  0  0  0  0
   -3.2045    1.4172    0.1308 C   0  0  0  0  0  0  0  0  0  0  0  0
   -4.5387    1.1971    0.8588 C   0  0  0  0  0  0  0  0  0  0  0  0
   -5.2096    2.5802    0.9274 C   0  0  0  0  0  0  0  0  0  0  0  0
   -4.6997    3.3589   -0.2953 C   0  0  0  0  0  0  0  0  0  0  0  0
    1.8166    0.0436    2.1870 H   0  0  0  0  0  0  0  0  0  0  0  0
    5.5109   -0.1779    0.3101 H   0  0  0  0  0  0  0  0  0  0  0  0
    2.1210   -0.6993   -3.1496 H   0  0  0  0  0  0  0  0  0  0  0  0
    2.6311    2.7257   -1.6879 H   0  0  0  0  0  0  0  0  0  0  0  0
    2.0036    4.5234   -0.0823 H   0  0  0  0  0  0  0  0  0  0  0  0
   -1.3533    6.0713    2.0188 H   0  0  0  0  0  0  0  0  0  0  0  0
   -1.9342    4.3891    1.7121 H   0  0  0  0  0  0  0  0  0  0  0  0
   -2.2499    5.6880    0.4979 H   0  0  0  0  0  0  0  0  0  0  0  0
   -1.5222    1.7381   -2.2297 H   0  0  0  0  0  0  0  0  0  0  0  0
   -3.4047    2.4414   -1.8339 H   0  0  0  0  0  0  0  0  0  0  0  0
   -2.3894    1.5949    0.8573 H   0  0  0  0  0  0  0  0  0  0  0  0
   -2.9108    0.5344   -0.4575 H   0  0  0  0  0  0  0  0  0  0  0  0
   -5.1721    0.4828    0.3053 H   0  0  0  0  0  0  0  0  0  0  0  0
   -4.3912    0.7654    1.8606 H   0  0  0  0  0  0  0  0  0  0  0  0
   -6.3071    2.4991    0.9321 H   0  0  0  0  0  0  0  0  0  0  0  0
   -4.9341    3.0985    1.8617 H   0  0  0  0  0  0  0  0  0  0  0  0
   -5.4428    3.3577   -1.1100 H   0  0  0  0  0  0  0  0  0  0  0  0
   -4.5118    4.4206   -0.0536 H   0  0  0  0  0  0  0  0  0  0  0  0
  2  1  1  1  0  0  0
  2  3  1  0  0  0  0
  3  4  2  0  0  0  0
  3 26  1  0  0  0  0
  5 27  1  0  0  0  0
  5  4  2  0  0  0  0
  6  5  1  0  0  0  0
  7  6  1  0  0  0  0
  8  6  2  0  0  0  0
  8  2  1  0  0  0  0
  9  8  1  0  0  0  0
 10  9  1  0  0  0  0
 10 12  1  0  0  0  0
 11 10  2  0  0  0  0
 12 19  2  0  0  0  0
 12 13  1  0  0  0  0
 13 14  2  0  0  0  0
 14 15  1  0  0  0  0
 14 30  1  0  0  0  0
 15 16  1  0  0  0  0
 16 17  1  0  0  0  0
 17 32  1  0  0  0  0
 17 31  1  0  0  0  0
 18 20  1  0  0  0  0
 18 15  2  0  0  0  0
 19 18  1  0  0  0  0
 21 20  1  0  0  0  0
 21 25  1  0  0  0  0
 21 22  1  0  0  0  0
 22 36  1  0  0  0  0
 22 23  1  0  0  0  0
 23 24  1  0  0  0  0
 23 39  1  0  0  0  0
 24 40  1  0  0  0  0
 24 41  1  0  0  0  0
 25 43  1  0  0  0  0
 25 24  1  0  0  0  0
 28  9  1  0  0  0  0
 29 13  1  0  0  0  0
 33 17  1  0  0  0  0
 34 19  1  0  0  0  0
 35 21  1  0  0  0  0
 37 22  1  0  0  0  0
 38 23  1  0  0  0  0
 42 25  1  0  0  0  0
M  RAD  1   2   2
M  END
$$$$
