rmsd219.gzmat
 OpenBabel08211713423D

 43 45  0  0  1  0  0  0  0  0999 V2000
    0.0000    0.0000    0.0000 Cl  0  0  0  0  0  0  0  0  0  0  0  0
    1.6918    0.0000    0.0000 C   0  0  1  0  0  0  0  0  0  0  0  0
    2.3572    0.0000    1.2301 C   0  0  0  0  0  0  0  0  0  0  0  0
    3.6977   -0.0574    1.3173 N   0  0  0  0  0  0  0  0  0  0  0  0
    4.4187   -0.1136    0.1830 C   0  0  0  0  0  0  0  0  0  0  0  0
    3.8153   -0.0931   -1.0763 C   0  0  0  0  0  0  0  0  0  0  0  0
    4.7906   -0.1213   -2.4592 Cl  0  0  0  0  0  0  0  0  0  0  0  0
    2.4172   -0.0233   -1.2019 C   0  0  0  0  0  0  0  0  0  0  0  0
    1.8079   -0.0043   -2.4645 N   0  0  0  0  0  0  0  0  0  0  0  0
    0.8898    0.9771   -2.8990 C   0  0  0  0  0  0  0  0  0  0  0  0
    0.4219    0.8193   -4.0021 O   0  0  0  0  0  0  0  0  0  0  0  0
    0.5924    2.1039   -1.9928 C   0  0  0  0  0  0  0  0  0  0  0  0
    1.6080    2.8725   -1.4324 C   0  0  0  0  0  0  0  0  0  0  0  0
    1.2908    3.8845   -0.5330 C   0  0  0  0  0  0  0  0  0  0  0  0
   -0.0453    4.1217   -0.1894 C   0  0  0  0  0  0  0  0  0  0  0  0
   -0.1737    5.1112    0.7242 O   0  0  0  0  0  0  0  0  0  0  0  0
   -1.4775    5.4677    1.1638 C   0  0  0  0  0  0  0  0  0  0  0  0
   -1.0731    3.3575   -0.7895 C   0  0  0  0  0  0  0  0  0  0  0  0
   -0.7510    2.3675   -1.7087 C   0  0  0  0  0  0  0  0  0  0  0  0
   -2.3412    3.6836   -0.4243 O   0  0  0  0  0  0  0  0  0  0  0  0
   -3.3801    2.7355   -0.7015 C   0  0  0  0  0  0  0  0  0  0  0  0
   -3.1704    1.4295    0.0814 C   0  0  0  0  0  0  0  0  0  0  0  0
   -4.4974    1.1623    0.8059 C   0  0  0  0  0  0  0  0  0  0  0  0
   -5.1341    2.5463    1.0222 C   0  0  0  0  0  0  0  0  0  0  0  0
   -4.6380    3.4237   -0.1381 C   0  0  0  0  0  0  0  0  0  0  0  0
    1.8148    0.0425    2.1863 H   0  0  0  0  0  0  0  0  0  0  0  0
    5.5100   -0.1675    0.3090 H   0  0  0  0  0  0  0  0  0  0  0  0
    2.1109   -0.6987   -3.1492 H   0  0  0  0  0  0  0  0  0  0  0  0
    2.6510    2.6891   -1.6925 H   0  0  0  0  0  0  0  0  0  0  0  0
    2.0721    4.4939   -0.0801 H   0  0  0  0  0  0  0  0  0  0  0  0
   -1.2621    6.2701    1.8820 H   0  0  0  0  0  0  0  0  0  0  0  0
   -1.9693    4.6239    1.6582 H   0  0  0  0  0  0  0  0  0  0  0  0
   -2.0798    5.8422    0.3293 H   0  0  0  0  0  0  0  0  0  0  0  0
   -1.5264    1.7835   -2.2061 H   0  0  0  0  0  0  0  0  0  0  0  0
   -3.4352    2.5888   -1.7976 H   0  0  0  0  0  0  0  0  0  0  0  0
   -2.3476    1.5544    0.8109 H   0  0  0  0  0  0  0  0  0  0  0  0
   -2.8861    0.5902   -0.5717 H   0  0  0  0  0  0  0  0  0  0  0  0
   -5.1556    0.5226    0.1928 H   0  0  0  0  0  0  0  0  0  0  0  0
   -4.3440    0.6278    1.7556 H   0  0  0  0  0  0  0  0  0  0  0  0
   -6.2327    2.4897    1.0507 H   0  0  0  0  0  0  0  0  0  0  0  0
   -4.8200    2.9685    1.9922 H   0  0  0  0  0  0  0  0  0  0  0  0
   -5.4056    3.5248   -0.9222 H   0  0  0  0  0  0  0  0  0  0  0  0
   -4.4073    4.4504    0.1986 H   0  0  0  0  0  0  0  0  0  0  0  0
  2  1  1  1  0  0  0
  2  3  1  0  0  0  0
  3  4  2  0  0  0  0
  3 26  1  0  0  0  0
  5 27  1  0  0  0  0
  5  4  2  0  0  0  0
  6  5  1  0  0  0  0
  7  6  1  0  0  0  0
  8  6  2  0  0  0  0
  8  2  1  0  0  0  0
  9  8  1  0  0  0  0
 10  9  1  0  0  0  0
 10 12  1  0  0  0  0
 11 10  2  0  0  0  0
 12 19  2  0  0  0  0
 12 13  1  0  0  0  0
 13 14  2  0  0  0  0
 14 15  1  0  0  0  0
 14 30  1  0  0  0  0
 15 16  1  0  0  0  0
 16 17  1  0  0  0  0
 17 32  1  0  0  0  0
 17 31  1  0  0  0  0
 18 20  1  0  0  0  0
 18 15  2  0  0  0  0
 19 18  1  0  0  0  0
 21 20  1  0  0  0  0
 21 25  1  0  0  0  0
 21 22  1  0  0  0  0
 22 23  1  0  0  0  0
 22 36  1  0  0  0  0
 23 24  1  0  0  0  0
 23 39  1  0  0  0  0
 24 40  1  0  0  0  0
 24 41  1  0  0  0  0
 25 43  1  0  0  0  0
 25 24  1  0  0  0  0
 28  9  1  0  0  0  0
 29 13  1  0  0  0  0
 33 17  1  0  0  0  0
 34 19  1  0  0  0  0
 35 21  1  0  0  0  0
 37 22  1  0  0  0  0
 38 23  1  0  0  0  0
 42 25  1  0  0  0  0
M  RAD  1   2   2
M  END
$$$$
