
     RDKit          3D

 43 45  0  0  0  0  0  0  0  0999 V2000
    0.3769   -0.6274    0.0936 Cl  0  0  0  0  0  0  0  0  0  0  0  0
    2.0854   -0.3109    0.0244 C   0  0  0  0  0  0  0  0  0  0  0  0
    2.8348   -0.4016    1.2015 C   0  0  0  0  0  0  0  0  0  0  0  0
    4.1585   -0.2660    1.2330 N   0  0  0  0  0  0  0  0  0  0  0  0
    4.7991   -0.0356    0.0888 C   0  0  0  0  0  0  0  0  0  0  0  0
    4.1308    0.0978   -1.1293 C   0  0  0  0  0  0  0  0  0  0  0  0
    5.0275    0.4453   -2.5819 Cl  0  0  0  0  0  0  0  0  0  0  0  0
    2.7275   -0.0206   -1.1980 C   0  0  0  0  0  0  0  0  0  0  0  0
    2.0662    0.1027   -2.4152 N   0  0  0  0  0  0  0  0  0  0  0  0
    0.8975    0.8067   -2.7214 C   0  0  0  0  0  0  0  0  0  0  0  0
    0.2613    0.5184   -3.7151 O   0  0  0  0  0  0  0  0  0  0  0  0
    0.5341    1.9362   -1.8189 C   0  0  0  0  0  0  0  0  0  0  0  0
    1.4916    2.7421   -1.1932 C   0  0  0  0  0  0  0  0  0  0  0  0
    1.0763    3.7952   -0.3805 C   0  0  0  0  0  0  0  0  0  0  0  0
   -0.2806    4.0607   -0.1714 C   0  0  0  0  0  0  0  0  0  0  0  0
   -0.5878    5.1145    0.6234 O   0  0  0  0  0  0  0  0  0  0  0  0
   -1.6155    5.0006    1.5973 C   0  0  0  0  0  0  0  0  0  0  0  0
   -1.2532    3.2682   -0.8384 C   0  0  0  0  0  0  0  0  0  0  0  0
   -0.8285    2.2232   -1.6587 C   0  0  0  0  0  0  0  0  0  0  0  0
   -2.5531    3.6112   -0.6552 O   0  0  0  0  0  0  0  0  0  0  0  0
   -3.5950    2.7088   -1.0491 C   0  0  0  0  0  0  0  0  0  0  0  0
   -3.6360    1.4802   -0.1332 C   0  0  0  0  0  0  0  0  0  0  0  0
   -4.2314    2.0195    1.1820 C   0  0  0  0  0  0  0  0  0  0  0  0
   -5.1392    3.2140    0.7740 C   0  0  0  0  0  0  0  0  0  0  0  0
   -4.9146    3.4136   -0.7440 C   0  0  0  0  0  0  0  0  0  0  0  0
    2.3195   -0.6118    2.1439 H   0  0  0  0  0  0  0  0  0  0  0  0
    5.8886    0.0647    0.1194 H   0  0  0  0  0  0  0  0  0  0  0  0
    2.4626   -0.3970   -3.2071 H   0  0  0  0  0  0  0  0  0  0  0  0
    2.5559    2.5652   -1.3475 H   0  0  0  0  0  0  0  0  0  0  0  0
    1.7968    4.4423    0.1224 H   0  0  0  0  0  0  0  0  0  0  0  0
   -1.4263    5.7919    2.3363 H   0  0  0  0  0  0  0  0  0  0  0  0
   -1.5754    4.0216    2.1057 H   0  0  0  0  0  0  0  0  0  0  0  0
   -2.6135    5.1330    1.1583 H   0  0  0  0  0  0  0  0  0  0  0  0
   -1.5436    1.6027   -2.1951 H   0  0  0  0  0  0  0  0  0  0  0  0
   -3.4831    2.4640   -2.1178 H   0  0  0  0  0  0  0  0  0  0  0  0
   -2.6524    1.0061   -0.0056 H   0  0  0  0  0  0  0  0  0  0  0  0
   -4.3035    0.7322   -0.5922 H   0  0  0  0  0  0  0  0  0  0  0  0
   -4.7778    1.2405    1.7338 H   0  0  0  0  0  0  0  0  0  0  0  0
   -3.4214    2.3659    1.8410 H   0  0  0  0  0  0  0  0  0  0  0  0
   -6.1994    3.0207    0.9958 H   0  0  0  0  0  0  0  0  0  0  0  0
   -4.8629    4.1200    1.3336 H   0  0  0  0  0  0  0  0  0  0  0  0
   -5.7094    2.9198   -1.3248 H   0  0  0  0  0  0  0  0  0  0  0  0
   -4.8829    4.4681   -1.0534 H   0  0  0  0  0  0  0  0  0  0  0  0
  1  2  1  0
  2  3  2  0
  2  8  1  0
  3  4  1  0
  3 26  1  0
  4  5  2  0
  5  6  1  0
  5 27  1  0
  6  7  1  0
  6  8  2  0
  8  9  1  0
  9 10  1  0
  9 28  1  0
 10 11  2  0
 10 12  1  0
 12 13  2  0
 12 19  1  0
 13 14  1  0
 13 29  1  0
 14 15  2  0
 14 30  1  0
 15 16  1  0
 15 18  1  0
 16 17  1  0
 17 31  1  0
 17 32  1  0
 17 33  1  0
 18 19  2  0
 18 20  1  0
 19 34  1  0
 20 21  1  0
 21 22  1  0
 21 25  1  0
 21 35  1  0
 22 23  1  0
 22 36  1  0
 22 37  1  0
 23 24  1  0
 23 38  1  0
 23 39  1  0
 24 25  1  0
 24 40  1  0
 24 41  1  0
 25 42  1  0
 25 43  1  0
M  END

