43
rmsd18.gzmat
Cl         0.00000        0.00000        0.00000
C          1.69290        0.00000        0.00000
C          2.37110        0.00000        1.22100
N          3.71410        0.03410        1.28810
C          4.41870        0.04170        0.14290
C          3.80050        0.01410       -1.11130
Cl         4.77940       -0.06690       -2.48940
C          2.40000        0.02370       -1.21520
N          1.72070        0.03050       -2.43980
C          1.93990        0.95490       -3.48710
O          1.28500        0.78370       -4.48820
C          2.91510        2.04230       -3.27780
C          2.86630        2.85670       -2.14720
C          3.84010        3.82660       -1.95000
C          4.87090        3.98200       -2.88810
O          5.74810        4.94840       -2.53680
C          6.93020        5.10630       -3.31170
C          4.88820        3.18270       -4.05060
C          3.89750        2.22830       -4.25290
O          5.86280        3.44960       -4.96430
C          6.45250        2.32050       -5.62480
C          7.52420        2.96850       -6.51940
C          8.83260        2.21670       -6.23700
C          8.67190        1.58490       -4.84320
C          7.16250        1.39110       -4.62770
H          1.84190       -0.01840        2.18540
H          5.51300        0.06580        0.25390
H          0.94470       -0.62470       -2.55510
H          2.06850        2.73630       -1.41320
H          3.82620        4.46480       -1.06710
H          7.47760        5.86340       -2.73470
H          6.68560        5.47750       -4.31350
H          7.49610        4.17110       -3.37050
H          3.88550        1.62100       -5.15960
H          5.66460        1.80620       -6.20800
H          7.62330        4.04410       -6.27480
H          7.24330        2.92630       -7.58270
H          9.00790        1.43740       -6.99900
H          9.70540        2.88710       -6.27980
H          9.21910        0.63230       -4.76710
H          9.09540        2.24600       -4.06790
H          6.87060        0.34050       -4.79550
H          6.87440        1.62620       -3.58810
