43

Cl         0.37690       -0.62740        0.09360
C          2.08540       -0.31090        0.02440
C          2.83480       -0.40160        1.20150
N          4.15850       -0.26600        1.23300
C          4.79910       -0.03560        0.08880
C          4.13080        0.09780       -1.12930
Cl         5.02750        0.44530       -2.58190
C          2.72750       -0.02060       -1.19800
N          2.06620        0.10270       -2.41520
C          0.89750        0.80670       -2.72140
O          0.26130        0.51840       -3.71510
C          0.53410        1.93620       -1.81890
C          1.49160        2.74210       -1.19320
C          1.07630        3.79520       -0.38050
C         -0.28060        4.06070       -0.17140
O         -0.58780        5.11450        0.62340
C         -1.61550        5.00060        1.59730
C         -1.25320        3.26820       -0.83840
C         -0.82850        2.22320       -1.65870
O         -2.55310        3.61120       -0.65520
C         -3.59500        2.70880       -1.04910
C         -3.63600        1.48020       -0.13320
C         -4.23140        2.01950        1.18200
C         -5.13920        3.21400        0.77400
C         -4.91460        3.41360       -0.74400
H          2.31950       -0.61180        2.14390
H          5.88860        0.06470        0.11940
H          2.46260       -0.39700       -3.20710
H          2.55590        2.56520       -1.34750
H          1.79680        4.44230        0.12240
H         -1.42630        5.79190        2.33630
H         -1.57540        4.02160        2.10570
H         -2.61350        5.13300        1.15830
H         -1.54360        1.60270       -2.19510
H         -3.48310        2.46400       -2.11780
H         -2.65240        1.00610       -0.00560
H         -4.30350        0.73220       -0.59220
H         -4.77780        1.24050        1.73380
H         -3.42140        2.36590        1.84100
H         -6.19940        3.02070        0.99580
H         -4.86290        4.12000        1.33360
H         -5.70940        2.91980       -1.32480
H         -4.88290        4.46810       -1.05340
