rmsd120.gzmat
 OpenBabel08211713423D

 43 45  0  0  1  0  0  0  0  0999 V2000
    0.0000    0.0000    0.0000 Cl  0  0  0  0  0  0  0  0  0  0  0  0
    1.6923    0.0000    0.0000 C   0  0  1  0  0  0  0  0  0  0  0  0
    2.3574    0.0000    1.2306 C   0  0  0  0  0  0  0  0  0  0  0  0
    3.6979   -0.0566    1.3196 N   0  0  0  0  0  0  0  0  0  0  0  0
    4.4205   -0.1143    0.1863 C   0  0  0  0  0  0  0  0  0  0  0  0
    3.8182   -0.0945   -1.0735 C   0  0  0  0  0  0  0  0  0  0  0  0
    4.7977   -0.1264   -2.4543 Cl  0  0  0  0  0  0  0  0  0  0  0  0
    2.4193   -0.0237   -1.2011 C   0  0  0  0  0  0  0  0  0  0  0  0
    1.8156   -0.0067   -2.4654 N   0  0  0  0  0  0  0  0  0  0  0  0
    0.8814    0.9582   -2.9043 C   0  0  0  0  0  0  0  0  0  0  0  0
    0.4269    0.7916   -4.0117 O   0  0  0  0  0  0  0  0  0  0  0  0
    0.5550    2.0820   -2.0045 C   0  0  0  0  0  0  0  0  0  0  0  0
    1.5527    2.8633   -1.4276 C   0  0  0  0  0  0  0  0  0  0  0  0
    1.2104    3.8711   -0.5334 C   0  0  0  0  0  0  0  0  0  0  0  0
   -0.1346    4.0984   -0.2174 C   0  0  0  0  0  0  0  0  0  0  0  0
   -0.2919    5.0851    0.6942 O   0  0  0  0  0  0  0  0  0  0  0  0
   -1.5967    5.3463    1.1953 C   0  0  0  0  0  0  0  0  0  0  0  0
   -1.1438    3.3364   -0.8493 C   0  0  0  0  0  0  0  0  0  0  0  0
   -0.7958    2.3386   -1.7510 C   0  0  0  0  0  0  0  0  0  0  0  0
   -2.4228    3.6836   -0.5457 O   0  0  0  0  0  0  0  0  0  0  0  0
   -3.4452    2.7013   -0.7543 C   0  0  0  0  0  0  0  0  0  0  0  0
   -3.2412    1.4865    0.1643 C   0  0  0  0  0  0  0  0  0  0  0  0
   -4.5721    1.2939    0.9058 C   0  0  0  0  0  0  0  0  0  0  0  0
   -5.2444    2.6779    0.9330 C   0  0  0  0  0  0  0  0  0  0  0  0
   -4.7244    3.4298   -0.3017 C   0  0  0  0  0  0  0  0  0  0  0  0
    1.8152    0.0408    2.1871 H   0  0  0  0  0  0  0  0  0  0  0  0
    5.5119   -0.1698    0.3137 H   0  0  0  0  0  0  0  0  0  0  0  0
    2.1386   -0.6900   -3.1533 H   0  0  0  0  0  0  0  0  0  0  0  0
    2.6019    2.6912   -1.6701 H   0  0  0  0  0  0  0  0  0  0  0  0
    1.9773    4.4843   -0.0617 H   0  0  0  0  0  0  0  0  0  0  0  0
   -1.3955    6.1022    1.9660 H   0  0  0  0  0  0  0  0  0  0  0  0
   -2.0418    4.4487    1.6356 H   0  0  0  0  0  0  0  0  0  0  0  0
   -2.2353    5.7547    0.4044 H   0  0  0  0  0  0  0  0  0  0  0  0
   -1.5581    1.7471   -2.2596 H   0  0  0  0  0  0  0  0  0  0  0  0
   -3.4674    2.4417   -1.8304 H   0  0  0  0  0  0  0  0  0  0  0  0
   -2.4204    1.6840    0.8792 H   0  0  0  0  0  0  0  0  0  0  0  0
   -2.9522    0.5851   -0.3979 H   0  0  0  0  0  0  0  0  0  0  0  0
   -5.2092    0.5623    0.3793 H   0  0  0  0  0  0  0  0  0  0  0  0
   -4.4204    0.8969    1.9212 H   0  0  0  0  0  0  0  0  0  0  0  0
   -6.3422    2.5959    0.9279 H   0  0  0  0  0  0  0  0  0  0  0  0
   -4.9810    3.2183    1.8582 H   0  0  0  0  0  0  0  0  0  0  0  0
   -5.4720    3.4406   -1.1115 H   0  0  0  0  0  0  0  0  0  0  0  0
   -4.5122    4.4900   -0.0721 H   0  0  0  0  0  0  0  0  0  0  0  0
  2  1  1  1  0  0  0
  2  3  1  0  0  0  0
  3  4  2  0  0  0  0
  3 26  1  0  0  0  0
  5 27  1  0  0  0  0
  5  4  2  0  0  0  0
  6  5  1  0  0  0  0
  7  6  1  0  0  0  0
  8  6  2  0  0  0  0
  8  2  1  0  0  0  0
  9  8  1  0  0  0  0
 10  9  1  0  0  0  0
 10 12  1  0  0  0  0
 11 10  2  0  0  0  0
 12 19  2  0  0  0  0
 12 13  1  0  0  0  0
 13 14  2  0  0  0  0
 14 15  1  0  0  0  0
 14 30  1  0  0  0  0
 15 16  1  0  0  0  0
 16 17  1  0  0  0  0
 17 32  1  0  0  0  0
 17 31  1  0  0  0  0
 18 20  1  0  0  0  0
 18 15  2  0  0  0  0
 19 18  1  0  0  0  0
 21 20  1  0  0  0  0
 21 25  1  0  0  0  0
 21 22  1  0  0  0  0
 22 36  1  0  0  0  0
 22 23  1  0  0  0  0
 23 24  1  0  0  0  0
 23 39  1  0  0  0  0
 24 41  1  0  0  0  0
 25 43  1  0  0  0  0
 25 24  1  0  0  0  0
 28  9  1  0  0  0  0
 29 13  1  0  0  0  0
 33 17  1  0  0  0  0
 34 19  1  0  0  0  0
 35 21  1  0  0  0  0
 37 22  1  0  0  0  0
 38 23  1  0  0  0  0
 40 24  1  0  0  0  0
 42 25  1  0  0  0  0
M  RAD  1   2   2
M  END
$$$$
