43
rmsd48.gzmat
Cl         0.00000        0.00000        0.00000
C          1.68890        0.00000        0.00000
C          2.35550        0.00000        1.22920
N          3.69580       -0.06870        1.31820
C          4.41560       -0.12870        0.18350
C          3.81280       -0.09350       -1.07550
Cl         4.79220       -0.08780       -2.45730
C          2.41390       -0.02790       -1.20290
N          1.81480       -0.02760       -2.46710
C          0.82760        0.88090       -2.91390
O          0.38600        0.67310       -4.02010
C          0.44490        2.00950       -2.04590
C         -0.90900        2.28280       -1.87450
C         -1.30020        3.31550       -1.02760
C         -0.33630        4.08900       -0.37430
O         -0.88640        5.03710        0.41900
C         -0.03340        5.80720        1.25610
C          1.04180        3.84020       -0.59870
C          1.42160        2.79590       -1.42690
O          1.87910        4.67530        0.06720
C          3.27390        4.72850       -0.18810
C          4.02400        3.49680        0.33570
C          5.15040        3.24090       -0.67530
C          4.68580        3.85070       -2.01040
C          3.65110        4.93350       -1.66180
H          1.81400        0.04640        2.18640
H          5.50570       -0.19940        0.30940
H          2.16220       -0.70330       -3.15240
H         -1.66100        1.68220       -2.39110
H         -2.35510        3.53110       -0.86220
H         -0.75720        6.38370        1.84750
H          0.59460        6.47360        0.65560
H          0.57340        5.16530        1.90300
H          2.47680        2.58760       -1.60460
H          3.49910        5.63640        0.42380
H          3.34770        2.62930        0.42460
H          4.41510        3.65920        1.35330
H          6.08880        3.71580       -0.33940
H          5.37470        2.16870       -0.77380
H          5.53430        4.26790       -2.57550
H          4.24560        3.07740       -2.66430
H          4.06620        5.94350       -1.81840
H          2.76330        4.88060       -2.31710
