43
rmsd12.gzmat
Cl         0.00000        0.00000        0.00000
C          1.69230        0.00000        0.00000
C          2.35970        0.00000        1.22920
N          3.70090       -0.04350        1.31450
C          4.42120       -0.08930        0.17950
C          3.81590       -0.07860       -1.07930
Cl         4.78940       -0.10680       -2.46400
C          2.41750       -0.01850       -1.20210
N          1.80630        0.00300       -2.46450
C          0.90830        1.00340       -2.89620
O          0.43750        0.86330       -4.00000
C          0.63420        2.12820       -1.97900
C          1.66560        2.89140       -1.44110
C          1.37290        3.89330       -0.52160
C          0.04660        4.13030       -0.14400
O         -0.06060        5.11780        0.77550
C         -1.32000        5.32460        1.40190
C         -1.00000        3.38540       -0.73680
C         -0.70150        2.39460       -1.66320
O         -2.25590        3.73170       -0.35140
C         -3.33580        2.86800       -0.72980
C         -3.26320        1.53900        0.03830
C         -4.63940        1.36000        0.69590
C         -5.20440        2.77990        0.87770
C         -4.58240        3.62940       -0.24140
H          1.81980        0.03140        2.18720
H          5.51340       -0.12490        0.30380
H          2.10010       -0.69580       -3.14790
H          2.70080        2.71020       -1.73130
H          2.16660        4.49430       -0.07910
H         -1.06840        6.05860        2.17920
H         -1.70160        4.40070        1.84740
H         -2.03650        5.74340        0.68660
H         -1.48800        1.81270       -2.14480
H         -3.32460        2.74600       -1.83040
H         -2.46830        1.59110        0.80620
H         -3.00860        0.69040       -0.61510
H         -5.30410        0.75700        0.05350
H         -4.56580        0.82410        1.65450
H         -6.30420        2.78850        0.83290
H         -4.93350        3.18160        1.86900
H         -5.29240        3.78010       -1.07160
H         -4.31270        4.63960        0.11590
