19
rmsd131.gzmat
P          0.00000        0.00000        0.00000
O          1.43720        0.00000        0.00000
O         -0.77960        0.00000       -1.38700
O         -0.77280        1.10650        0.84260
C         -0.97040       -1.44990        0.70400
N         -2.45770       -1.21470        0.54320
H         -2.75740       -0.30710        0.98750
H         -2.72640       -1.14450       -0.47440
C         -3.22040       -2.35060        1.18260
C         -4.71880       -2.19550        0.99760
O         -5.57060       -2.91030        1.42300
O         -4.95050       -1.08850        0.25220
H         -0.35190        0.62370       -2.07090
H         -0.30840        2.01440        0.79420
H         -0.69720       -1.56680        1.79560
H         -0.65490       -2.39060        0.15970
H         -2.99190       -2.40860        2.27940
H         -2.89990       -3.33520        0.75120
H         -5.91680       -0.90450        0.06660
