19
rmsd102.gzmat
P          0.00000        0.00000        0.00000
O          1.43710        0.00000        0.00000
O         -0.77700        0.00000       -1.38800
O         -0.77870        1.09730        0.84840
C         -0.97150       -1.44900        0.71010
N         -2.45910       -1.19260        0.59280
H         -2.74190       -0.31750        1.11180
H         -2.74570       -1.04030       -0.41130
C         -3.22140       -2.37090        1.15330
C         -4.70500       -2.06380        1.04920
O         -5.13710       -1.02450        0.63000
O         -5.42410       -3.09760        1.48490
H         -0.33970        0.61390       -2.07530
H         -0.34410        2.01790        0.78030
H         -0.67390       -1.58410        1.79300
H         -0.68170       -2.38530        0.14560
H         -2.93940       -2.56370        2.21960
H         -2.97440       -3.31240        0.60040
H         -6.42130       -2.94930        1.44600
