rmsd5.gzmat
 OpenBabel08211713363D

 19 18  0  0  0  0  0  0  0  0999 V2000
    0.0000    0.0000    0.0000 P   0  0  0  0  0  0  0  0  0  0  0  0
    1.4371    0.0000    0.0000 O   0  0  0  0  0  0  0  0  0  0  0  0
   -0.7765    0.0000   -1.3894 O   0  0  0  0  0  0  0  0  0  0  0  0
   -0.7797    1.0974    0.8457 O   0  0  0  0  0  0  0  0  0  0  0  0
   -0.9690   -1.4589    0.6918 C   0  0  0  0  0  0  0  0  0  0  0  0
   -2.4572   -1.2288    0.5309 N   0  0  0  0  0  0  0  0  0  0  0  0
   -2.7781   -0.3940    1.0901 H   0  0  0  0  0  0  0  0  0  0  0  0
   -2.7106   -1.0228   -0.4736 H   0  0  0  0  0  0  0  0  0  0  0  0
   -3.2111   -2.4547    0.9916 C   0  0  0  0  0  0  0  0  0  0  0  0
   -4.6973   -2.1829    0.8338 C   0  0  0  0  0  0  0  0  0  0  0  0
   -5.1417   -1.1413    0.4335 O   0  0  0  0  0  0  0  0  0  0  0  0
   -5.4031   -3.2529    1.1991 O   0  0  0  0  0  0  0  0  0  0  0  0
   -0.3569    0.6333   -2.0681 H   0  0  0  0  0  0  0  0  0  0  0  0
   -0.3324    2.0137    0.7862 H   0  0  0  0  0  0  0  0  0  0  0  0
   -0.7007   -1.5890    1.7826 H   0  0  0  0  0  0  0  0  0  0  0  0
   -0.6465   -2.3910    0.1373 H   0  0  0  0  0  0  0  0  0  0  0  0
   -2.9706   -2.6991    2.0573 H   0  0  0  0  0  0  0  0  0  0  0  0
   -2.9139   -3.3587    0.4010 H   0  0  0  0  0  0  0  0  0  0  0  0
   -6.4020   -3.1313    1.1279 H   0  0  0  0  0  0  0  0  0  0  0  0
  1  5  1  0  0  0  0
  1  4  1  0  0  0  0
  2  1  2  0  0  0  0
  3  1  1  0  0  0  0
  5 15  1  0  0  0  0
  6  5  1  0  0  0  0
  6  9  1  0  0  0  0
  6  7  1  0  0  0  0
  8  6  1  0  0  0  0
  9 17  1  0  0  0  0
 10  9  1  0  0  0  0
 10 12  1  0  0  0  0
 11 10  2  0  0  0  0
 13  3  1  0  0  0  0
 14  4  1  0  0  0  0
 16  5  1  0  0  0  0
 18  9  1  0  0  0  0
 19 12  1  0  0  0  0
M  END
$$$$
