19
rmsd16.gzmat
P          0.00000        0.00000        0.00000
O          1.43710        0.00000        0.00000
O         -0.77850        0.00000       -1.38720
O         -0.77750        1.09910        0.84910
C         -0.97670       -1.44440        0.71450
N         -2.46390       -1.19410        0.57570
H         -2.74620       -0.28820        1.03450
H         -2.74560       -1.10780       -0.44020
C         -3.23330       -2.32960        1.21070
C         -4.70200       -2.15360        0.86490
O         -5.10990       -1.30040        0.12410
O         -5.43830       -3.07010        1.49270
H         -0.34820        0.62250       -2.07190
H         -0.33130        2.01410        0.79780
H         -0.69190       -1.56400        1.80270
H         -0.67770       -2.38610        0.16360
H         -3.08630       -2.34760        2.32070
H         -2.86940       -3.32230        0.84150
H         -6.42520       -3.01210        1.29110
