rmsd16.gzmat
 OpenBabel08211713363D

 19 18  0  0  0  0  0  0  0  0999 V2000
    0.0000    0.0000    0.0000 P   0  0  0  0  0  0  0  0  0  0  0  0
    1.4371    0.0000    0.0000 O   0  0  0  0  0  0  0  0  0  0  0  0
   -0.7785    0.0000   -1.3872 O   0  0  0  0  0  0  0  0  0  0  0  0
   -0.7775    1.0991    0.8491 O   0  0  0  0  0  0  0  0  0  0  0  0
   -0.9767   -1.4444    0.7145 C   0  0  0  0  0  0  0  0  0  0  0  0
   -2.4639   -1.1941    0.5757 N   0  0  0  0  0  0  0  0  0  0  0  0
   -2.7462   -0.2882    1.0345 H   0  0  0  0  0  0  0  0  0  0  0  0
   -2.7456   -1.1078   -0.4402 H   0  0  0  0  0  0  0  0  0  0  0  0
   -3.2333   -2.3296    1.2107 C   0  0  0  0  0  0  0  0  0  0  0  0
   -4.7020   -2.1536    0.8649 C   0  0  0  0  0  0  0  0  0  0  0  0
   -5.1099   -1.3004    0.1241 O   0  0  0  0  0  0  0  0  0  0  0  0
   -5.4383   -3.0701    1.4927 O   0  0  0  0  0  0  0  0  0  0  0  0
   -0.3482    0.6225   -2.0719 H   0  0  0  0  0  0  0  0  0  0  0  0
   -0.3313    2.0141    0.7978 H   0  0  0  0  0  0  0  0  0  0  0  0
   -0.6919   -1.5640    1.8027 H   0  0  0  0  0  0  0  0  0  0  0  0
   -0.6777   -2.3861    0.1636 H   0  0  0  0  0  0  0  0  0  0  0  0
   -3.0863   -2.3476    2.3207 H   0  0  0  0  0  0  0  0  0  0  0  0
   -2.8694   -3.3223    0.8415 H   0  0  0  0  0  0  0  0  0  0  0  0
   -6.4252   -3.0121    1.2911 H   0  0  0  0  0  0  0  0  0  0  0  0
  1  5  1  0  0  0  0
  1  4  1  0  0  0  0
  2  1  2  0  0  0  0
  3  1  1  0  0  0  0
  5 15  1  0  0  0  0
  6  5  1  0  0  0  0
  6  7  1  0  0  0  0
  6  9  1  0  0  0  0
  8  6  1  0  0  0  0
  9 17  1  0  0  0  0
 10  9  1  0  0  0  0
 10 12  1  0  0  0  0
 11 10  2  0  0  0  0
 13  3  1  0  0  0  0
 14  4  1  0  0  0  0
 16  5  1  0  0  0  0
 18  9  1  0  0  0  0
 19 12  1  0  0  0  0
M  END
$$$$
