rmsd17.gzmat
 OpenBabel08211713363D

 19 18  0  0  0  0  0  0  0  0999 V2000
    0.0000    0.0000    0.0000 P   0  0  0  0  0  0  0  0  0  0  0  0
    1.4372    0.0000    0.0000 O   0  0  0  0  0  0  0  0  0  0  0  0
   -0.7775    0.0000   -1.3877 O   0  0  0  0  0  0  0  0  0  0  0  0
   -0.7780    1.0992    0.8477 O   0  0  0  0  0  0  0  0  0  0  0  0
   -0.9767   -1.4444    0.7160 C   0  0  0  0  0  0  0  0  0  0  0  0
   -2.4626   -1.2012    0.5590 N   0  0  0  0  0  0  0  0  0  0  0  0
   -2.7575   -0.3068    1.0314 H   0  0  0  0  0  0  0  0  0  0  0  0
   -2.7299   -1.0959   -0.4603 H   0  0  0  0  0  0  0  0  0  0  0  0
   -3.2378   -2.3533    1.1569 C   0  0  0  0  0  0  0  0  0  0  0  0
   -4.6853   -2.2226    0.7141 C   0  0  0  0  0  0  0  0  0  0  0  0
   -5.0662   -1.3905   -0.0647 O   0  0  0  0  0  0  0  0  0  0  0  0
   -5.4368   -3.1517    1.3035 O   0  0  0  0  0  0  0  0  0  0  0  0
   -0.3396    0.6156   -2.0745 H   0  0  0  0  0  0  0  0  0  0  0  0
   -0.3306    2.0135    0.8011 H   0  0  0  0  0  0  0  0  0  0  0  0
   -0.7027   -1.5558    1.8075 H   0  0  0  0  0  0  0  0  0  0  0  0
   -0.6678   -2.3895    0.1774 H   0  0  0  0  0  0  0  0  0  0  0  0
   -3.1595   -2.3576    2.2736 H   0  0  0  0  0  0  0  0  0  0  0  0
   -2.8251   -3.3392    0.8221 H   0  0  0  0  0  0  0  0  0  0  0  0
   -6.4095   -3.1220    1.0351 H   0  0  0  0  0  0  0  0  0  0  0  0
  1  5  1  0  0  0  0
  1  4  1  0  0  0  0
  2  1  2  0  0  0  0
  3  1  1  0  0  0  0
  5 15  1  0  0  0  0
  6  5  1  0  0  0  0
  6  7  1  0  0  0  0
  6  9  1  0  0  0  0
  8  6  1  0  0  0  0
  9 17  1  0  0  0  0
 10  9  1  0  0  0  0
 10 12  1  0  0  0  0
 11 10  2  0  0  0  0
 13  3  1  0  0  0  0
 14  4  1  0  0  0  0
 16  5  1  0  0  0  0
 18  9  1  0  0  0  0
 19 12  1  0  0  0  0
M  END
$$$$
