rmsd45.gzmat
 OpenBabel08211713363D

 19 18  0  0  0  0  0  0  0  0999 V2000
    0.0000    0.0000    0.0000 P   0  0  0  0  0  0  0  0  0  0  0  0
    1.4370    0.0000    0.0000 O   0  0  0  0  0  0  0  0  0  0  0  0
   -0.7770    0.0000   -1.3885 O   0  0  0  0  0  0  0  0  0  0  0  0
   -0.7783    1.0988    0.8471 O   0  0  0  0  0  0  0  0  0  0  0  0
   -0.9755   -1.4462    0.7107 C   0  0  0  0  0  0  0  0  0  0  0  0
   -2.4621   -1.1826    0.5938 N   0  0  0  0  0  0  0  0  0  0  0  0
   -2.7403   -0.3019    1.1110 H   0  0  0  0  0  0  0  0  0  0  0  0
   -2.7470   -1.0328   -0.4092 H   0  0  0  0  0  0  0  0  0  0  0  0
   -3.2328   -2.3540    1.1586 C   0  0  0  0  0  0  0  0  0  0  0  0
   -4.6920   -1.9471    1.2728 C   0  0  0  0  0  0  0  0  0  0  0  0
   -5.0864   -0.8339    1.0540 O   0  0  0  0  0  0  0  0  0  0  0  0
   -5.4371   -2.9875    1.6443 O   0  0  0  0  0  0  0  0  0  0  0  0
   -0.3393    0.6135   -2.0757 H   0  0  0  0  0  0  0  0  0  0  0  0
   -0.3442    2.0192    0.7764 H   0  0  0  0  0  0  0  0  0  0  0  0
   -0.6781   -1.5806    1.7939 H   0  0  0  0  0  0  0  0  0  0  0  0
   -0.6902   -2.3848    0.1476 H   0  0  0  0  0  0  0  0  0  0  0  0
   -2.8401   -2.6513    2.1646 H   0  0  0  0  0  0  0  0  0  0  0  0
   -3.1201   -3.2605    0.5117 H   0  0  0  0  0  0  0  0  0  0  0  0
   -6.4173   -2.7728    1.7507 H   0  0  0  0  0  0  0  0  0  0  0  0
  1  5  1  0  0  0  0
  1  4  1  0  0  0  0
  2  1  2  0  0  0  0
  3  1  1  0  0  0  0
  5 15  1  0  0  0  0
  6  5  1  0  0  0  0
  6  7  1  0  0  0  0
  6  9  1  0  0  0  0
  8  6  1  0  0  0  0
  9 10  1  0  0  0  0
  9 17  1  0  0  0  0
 10 12  1  0  0  0  0
 11 10  2  0  0  0  0
 12 19  1  0  0  0  0
 13  3  1  0  0  0  0
 14  4  1  0  0  0  0
 16  5  1  0  0  0  0
 18  9  1  0  0  0  0
M  END
$$$$
