rmsd44.gzmat
 OpenBabel08211713363D

 19 18  0  0  0  0  0  0  0  0999 V2000
    0.0000    0.0000    0.0000 P   0  0  0  0  0  0  0  0  0  0  0  0
    1.4379    0.0000    0.0000 O   0  0  0  0  0  0  0  0  0  0  0  0
   -0.7768    0.0000   -1.3894 O   0  0  0  0  0  0  0  0  0  0  0  0
   -0.7755    1.1043    0.8431 O   0  0  0  0  0  0  0  0  0  0  0  0
   -0.9676   -1.4497    0.7083 C   0  0  0  0  0  0  0  0  0  0  0  0
   -2.4565   -1.2143    0.5630 N   0  0  0  0  0  0  0  0  0  0  0  0
   -2.7628   -0.3546    1.0901 H   0  0  0  0  0  0  0  0  0  0  0  0
   -2.7268   -1.0528   -0.4439 H   0  0  0  0  0  0  0  0  0  0  0  0
   -3.2088   -2.4130    1.0906 C   0  0  0  0  0  0  0  0  0  0  0  0
   -4.7111   -2.2262    0.9796 C   0  0  0  0  0  0  0  0  0  0  0  0
   -5.5568   -2.9801    1.3459 O   0  0  0  0  0  0  0  0  0  0  0  0
   -4.9547   -1.0349    0.3825 O   0  0  0  0  0  0  0  0  0  0  0  0
   -0.3370    0.6128   -2.0761 H   0  0  0  0  0  0  0  0  0  0  0  0
   -0.3200    2.0166    0.7848 H   0  0  0  0  0  0  0  0  0  0  0  0
   -0.6875   -1.5694    1.7984 H   0  0  0  0  0  0  0  0  0  0  0  0
   -0.6553   -2.3887    0.1590 H   0  0  0  0  0  0  0  0  0  0  0  0
   -2.9423   -2.6057    2.1631 H   0  0  0  0  0  0  0  0  0  0  0  0
   -2.9140   -3.3405    0.5320 H   0  0  0  0  0  0  0  0  0  0  0  0
   -5.9245   -0.8191    0.2608 H   0  0  0  0  0  0  0  0  0  0  0  0
  1  5  1  0  0  0  0
  1  4  1  0  0  0  0
  2  1  2  0  0  0  0
  3  1  1  0  0  0  0
  5 15  1  0  0  0  0
  6  5  1  0  0  0  0
  6  7  1  0  0  0  0
  6  9  1  0  0  0  0
  8  6  1  0  0  0  0
  9 17  1  0  0  0  0
 10  9  1  0  0  0  0
 10 11  2  0  0  0  0
 12 10  1  0  0  0  0
 13  3  1  0  0  0  0
 14  4  1  0  0  0  0
 16  5  1  0  0  0  0
 18  9  1  0  0  0  0
 19 12  1  0  0  0  0
M  END
$$$$
