19
rmsd184.gzmat
P          0.00000        0.00000        0.00000
O          1.43770        0.00000        0.00000
O         -0.77570        0.00000       -1.38970
O         -0.77860        1.10040        0.84500
C         -0.96870       -1.44830        0.71110
N         -2.45700       -1.21720        0.55740
H         -2.76320       -0.33340        1.04340
H         -2.72640       -1.10170       -0.45560
C         -3.21110       -2.39010        1.13850
C         -4.71220       -2.21810        0.99470
O         -5.55830       -2.97250        1.35890
O         -4.95590       -1.04190        0.36860
H         -0.33190        0.60760       -2.07810
H         -0.33140        2.01600        0.79090
H         -0.69260       -1.55940        1.80260
H         -0.65310       -2.39050        0.17040
H         -2.96000       -2.52340        2.22390
H         -2.90330       -3.34390        0.63440
H         -5.92620       -0.83870        0.22720
