rmsd87.gzmat
 OpenBabel08211713423D

 30 31  0  0  1  0  0  0  0  0999 V2000
    0.0000    0.0000    0.0000 C   0  0  0  0  0  0  0  0  0  0  0  0
    1.3633    0.0000    0.0000 N   0  0  0  0  0  0  0  0  0  0  0  0
    1.9314    0.0000    1.2249 C   0  0  0  0  0  0  0  0  0  0  0  0
    1.1503   -0.0026    2.4524 C   0  0  1  0  0  0  0  0  0  0  0  0
   -0.2481    0.0021    2.3202 C   0  0  0  0  0  0  0  0  0  0  0  0
   -0.8299   -0.0006    1.1178 N   0  0  0  0  0  0  0  0  0  0  0  0
   -0.9670    0.0029    3.4561 O   0  0  0  0  0  0  0  0  0  0  0  0
   -2.3885    0.0670    3.3537 C   0  0  0  0  0  0  0  0  0  0  0  0
   -2.8895    1.5013    3.4211 C   0  0  0  0  0  0  0  0  0  0  0  0
   -4.0714    1.6757    3.5803 O   0  0  0  0  0  0  0  0  0  0  0  0
   -1.9086    2.6452    3.2822 C   0  0  0  0  0  0  0  0  0  0  0  0
   -1.9938    3.1578    1.8419 C   0  0  0  0  0  0  0  0  0  0  0  0
   -2.2752    3.7466    4.2789 C   0  0  0  0  0  0  0  0  0  0  0  0
    2.0732   -0.0102    3.4985 N   0  0  0  0  0  0  0  0  0  0  0  0
    1.8314   -0.0315    4.4636 H   0  0  0  0  0  0  0  0  0  0  0  0
    3.3333   -0.0117    2.9122 C   0  0  0  0  0  0  0  0  0  0  0  0
    3.2791   -0.0024    1.5668 N   0  0  0  0  0  0  0  0  0  0  0  0
   -0.6320    0.0279   -1.2111 N   0  0  0  0  0  0  0  0  0  0  0  0
   -2.7035   -0.5133    4.2460 H   0  0  0  0  0  0  0  0  0  0  0  0
   -2.7688   -0.4417    2.4440 H   0  0  0  0  0  0  0  0  0  0  0  0
   -0.8670    2.3018    3.4924 H   0  0  0  0  0  0  0  0  0  0  0  0
   -2.9988    3.5314    1.6077 H   0  0  0  0  0  0  0  0  0  0  0  0
   -1.7572    2.3705    1.1144 H   0  0  0  0  0  0  0  0  0  0  0  0
   -1.2885    3.9798    1.6737 H   0  0  0  0  0  0  0  0  0  0  0  0
   -3.3007    4.1069    4.1129 H   0  0  0  0  0  0  0  0  0  0  0  0
   -1.6005    4.6048    4.1848 H   0  0  0  0  0  0  0  0  0  0  0  0
   -2.2212    3.3908    5.3134 H   0  0  0  0  0  0  0  0  0  0  0  0
    4.2516   -0.0182    3.4865 H   0  0  0  0  0  0  0  0  0  0  0  0
   -1.6287   -0.0316   -1.2585 H   0  0  0  0  0  0  0  0  0  0  0  0
   -0.0911   -0.0287   -2.0524 H   0  0  0  0  0  0  0  0  0  0  0  0
  1  2  2  0  0  0  0
  1  6  2  0  0  0  0
  2  3  2  0  0  0  0
  3 17  2  0  0  0  0
  4  3  1  6  0  0  0
  4 14  1  0  0  0  0
  5  4  1  0  0  0  0
  5  7  1  0  0  0  0
  6  5  2  0  0  0  0
  8  9  1  0  0  0  0
  8  7  1  0  0  0  0
  8 19  1  0  0  0  0
  9 10  2  0  0  0  0
 11  9  1  0  0  0  0
 11 21  1  0  0  0  0
 11 13  1  0  0  0  0
 12 11  1  0  0  0  0
 13 27  1  0  0  0  0
 14 15  1  0  0  0  0
 16 28  1  0  0  0  0
 16 14  1  0  0  0  0
 17 16  2  0  0  0  0
 18  1  1  0  0  0  0
 20  8  1  0  0  0  0
 22 12  1  0  0  0  0
 23 12  1  0  0  0  0
 24 12  1  0  0  0  0
 25 13  1  0  0  0  0
 26 13  1  0  0  0  0
 29 18  1  0  0  0  0
 30 18  1  0  0  0  0
M  RAD  1   4   2
M  END
$$$$
