
     RDKit          3D

 30 31  0  0  0  0  0  0  0  0999 V2000
   -0.0928    0.1501    0.2381 C   0  0  0  0  0  0  0  0  0  0  0  0
    1.2272    0.0365    0.1078 N   0  0  0  0  0  0  0  0  0  0  0  0
    1.8923   -0.0804    1.2646 C   0  0  0  0  0  0  0  0  0  0  0  0
    1.2528   -0.0839    2.5282 C   0  0  0  0  0  0  0  0  0  0  0  0
   -0.1403    0.0301    2.5429 C   0  0  0  0  0  0  0  0  0  0  0  0
   -0.7941    0.1338    1.4053 N   0  0  0  0  0  0  0  0  0  0  0  0
   -0.8077    0.0603    3.7107 O   0  0  0  0  0  0  0  0  0  0  0  0
   -2.2314    0.0619    3.6202 C   0  0  0  0  0  0  0  0  0  0  0  0
   -2.8510    1.2259    2.8383 C   0  0  0  0  0  0  0  0  0  0  0  0
   -3.9438    1.0683    2.3434 O   0  0  0  0  0  0  0  0  0  0  0  0
   -2.1515    2.5822    2.8459 C   0  0  0  0  0  0  0  0  0  0  0  0
   -2.3133    3.2721    1.4910 C   0  0  0  0  0  0  0  0  0  0  0  0
   -2.7559    3.4141    3.9924 C   0  0  0  0  0  0  0  0  0  0  0  0
    2.2672   -0.2154    3.4579 N   0  0  0  0  0  0  0  0  0  0  0  0
    2.1657   -0.2567    4.4637 H   0  0  0  0  0  0  0  0  0  0  0  0
    3.4299   -0.2855    2.7355 C   0  0  0  0  0  0  0  0  0  0  0  0
    3.2540   -0.2099    1.4368 N   0  0  0  0  0  0  0  0  0  0  0  0
   -0.8396    0.3373   -0.8881 N   0  0  0  0  0  0  0  0  0  0  0  0
   -2.5814    0.1157    4.6625 H   0  0  0  0  0  0  0  0  0  0  0  0
   -2.6002   -0.8683    3.1639 H   0  0  0  0  0  0  0  0  0  0  0  0
   -1.0829    2.4340    3.0606 H   0  0  0  0  0  0  0  0  0  0  0  0
   -3.3810    3.3830    1.2495 H   0  0  0  0  0  0  0  0  0  0  0  0
   -1.8429    2.6814    0.6911 H   0  0  0  0  0  0  0  0  0  0  0  0
   -1.8499    4.2707    1.5058 H   0  0  0  0  0  0  0  0  0  0  0  0
   -3.8340    3.5660    3.8276 H   0  0  0  0  0  0  0  0  0  0  0  0
   -2.2715    4.4015    4.0456 H   0  0  0  0  0  0  0  0  0  0  0  0
   -2.6250    2.9231    4.9704 H   0  0  0  0  0  0  0  0  0  0  0  0
    4.3960   -0.3940    3.2308 H   0  0  0  0  0  0  0  0  0  0  0  0
   -1.8425    0.2309   -0.8202 H   0  0  0  0  0  0  0  0  0  0  0  0
   -0.3835    0.2060   -1.7807 H   0  0  0  0  0  0  0  0  0  0  0  0
  1  2  2  0
  1  6  1  0
  1 18  1  0
  2  3  1  0
  3  4  2  0
  3 17  1  0
  4  5  1  0
  4 14  1  0
  5  6  2  0
  5  7  1  0
  7  8  1  0
  8  9  1  0
  8 19  1  0
  8 20  1  0
  9 10  2  0
  9 11  1  0
 11 12  1  0
 11 13  1  0
 11 21  1  0
 12 22  1  0
 12 23  1  0
 12 24  1  0
 13 25  1  0
 13 26  1  0
 13 27  1  0
 14 15  1  0
 14 16  1  0
 16 17  2  0
 16 28  1  0
 18 29  1  0
 18 30  1  0
M  END

