30
rmsd87.gzmat
C          0.00000        0.00000        0.00000
N          1.36330        0.00000        0.00000
C          1.93140        0.00000        1.22490
C          1.15030       -0.00260        2.45240
C         -0.24810        0.00210        2.32020
N         -0.82990       -0.00060        1.11780
O         -0.96700        0.00290        3.45610
C         -2.38850        0.06700        3.35370
C         -2.88950        1.50130        3.42110
O         -4.07140        1.67570        3.58030
C         -1.90860        2.64520        3.28220
C         -1.99380        3.15780        1.84190
C         -2.27520        3.74660        4.27890
N          2.07320       -0.01020        3.49850
H          1.83140       -0.03150        4.46360
C          3.33330       -0.01170        2.91220
N          3.27910       -0.00240        1.56680
N         -0.63200        0.02790       -1.21110
H         -2.70350       -0.51330        4.24600
H         -2.76880       -0.44170        2.44400
H         -0.86700        2.30180        3.49240
H         -2.99880        3.53140        1.60770
H         -1.75720        2.37050        1.11440
H         -1.28850        3.97980        1.67370
H         -3.30070        4.10690        4.11290
H         -1.60050        4.60480        4.18480
H         -2.22120        3.39080        5.31340
H          4.25160       -0.01820        3.48650
H         -1.62870       -0.03160       -1.25850
H         -0.09110       -0.02870       -2.05240
