
     RDKit          3D

 30 31  0  0  0  0  0  0  0  0999 V2000
    0.0617   -0.0101    0.0022 C   0  0  0  0  0  0  0  0  0  0  0  0
    1.3912    0.0575   -0.0223 N   0  0  0  0  0  0  0  0  0  0  0  0
    1.9678    0.0936    1.1855 C   0  0  0  0  0  0  0  0  0  0  0  0
    1.2292    0.0679    2.3919 C   0  0  0  0  0  0  0  0  0  0  0  0
   -0.1642    0.0039    2.2983 C   0  0  0  0  0  0  0  0  0  0  0  0
   -0.7318   -0.0334    1.1109 N   0  0  0  0  0  0  0  0  0  0  0  0
   -0.8899   -0.0234    3.4332 O   0  0  0  0  0  0  0  0  0  0  0  0
   -2.3110   -0.0953    3.3578 C   0  0  0  0  0  0  0  0  0  0  0  0
   -2.8775   -1.4597    3.7590 C   0  0  0  0  0  0  0  0  0  0  0  0
   -4.0080   -1.5049    4.1896 O   0  0  0  0  0  0  0  0  0  0  0  0
   -2.0271   -2.7028    3.5323 C   0  0  0  0  0  0  0  0  0  0  0  0
   -2.4738   -3.8436    4.4447 C   0  0  0  0  0  0  0  0  0  0  0  0
   -2.1183   -3.0906    2.0420 C   0  0  0  0  0  0  0  0  0  0  0  0
    2.1682    0.1220    3.4048 N   0  0  0  0  0  0  0  0  0  0  0  0
    1.9854    0.1289    4.3999 H   0  0  0  0  0  0  0  0  0  0  0  0
    3.3874    0.1776    2.7812 C   0  0  0  0  0  0  0  0  0  0  0  0
    3.3150    0.1628    1.4703 N   0  0  0  0  0  0  0  0  0  0  0  0
   -0.5943   -0.0970   -1.1917 N   0  0  0  0  0  0  0  0  0  0  0  0
   -2.6429    0.1326    2.3331 H   0  0  0  0  0  0  0  0  0  0  0  0
   -2.7237    0.6545    4.0468 H   0  0  0  0  0  0  0  0  0  0  0  0
   -0.9808   -2.4339    3.7518 H   0  0  0  0  0  0  0  0  0  0  0  0
   -3.5328   -4.0831    4.2689 H   0  0  0  0  0  0  0  0  0  0  0  0
   -2.3685   -3.5747    5.5070 H   0  0  0  0  0  0  0  0  0  0  0  0
   -1.8727   -4.7461    4.2552 H   0  0  0  0  0  0  0  0  0  0  0  0
   -3.1518   -3.3764    1.7885 H   0  0  0  0  0  0  0  0  0  0  0  0
   -1.4658   -3.9535    1.8374 H   0  0  0  0  0  0  0  0  0  0  0  0
   -1.8125   -2.2677    1.3797 H   0  0  0  0  0  0  0  0  0  0  0  0
    4.3134    0.2281    3.3561 H   0  0  0  0  0  0  0  0  0  0  0  0
   -1.5917    0.0626   -1.2033 H   0  0  0  0  0  0  0  0  0  0  0  0
   -0.0567    0.0819   -2.0291 H   0  0  0  0  0  0  0  0  0  0  0  0
  1  2  2  0
  1  6  1  0
  1 18  1  0
  2  3  1  0
  3  4  2  0
  3 17  1  0
  4  5  1  0
  4 14  1  0
  5  6  2  0
  5  7  1  0
  7  8  1  0
  8  9  1  0
  8 19  1  0
  8 20  1  0
  9 10  2  0
  9 11  1  0
 11 12  1  0
 11 13  1  0
 11 21  1  0
 12 22  1  0
 12 23  1  0
 12 24  1  0
 13 25  1  0
 13 26  1  0
 13 27  1  0
 14 15  1  0
 14 16  1  0
 16 17  2  0
 16 28  1  0
 18 29  1  0
 18 30  1  0
M  END

