30

C         -0.09280        0.15010        0.23810
N          1.22720        0.03650        0.10780
C          1.89230       -0.08040        1.26460
C          1.25280       -0.08390        2.52820
C         -0.14030        0.03010        2.54290
N         -0.79410        0.13380        1.40530
O         -0.80770        0.06030        3.71070
C         -2.23140        0.06190        3.62020
C         -2.85100        1.22590        2.83830
O         -3.94380        1.06830        2.34340
C         -2.15150        2.58220        2.84590
C         -2.31330        3.27210        1.49100
C         -2.75590        3.41410        3.99240
N          2.26720       -0.21540        3.45790
H          2.16570       -0.25670        4.46370
C          3.42990       -0.28550        2.73550
N          3.25400       -0.20990        1.43680
N         -0.83960        0.33730       -0.88810
H         -2.58140        0.11570        4.66250
H         -2.60020       -0.86830        3.16390
H         -1.08290        2.43400        3.06060
H         -3.38100        3.38300        1.24950
H         -1.84290        2.68140        0.69110
H         -1.84990        4.27070        1.50580
H         -3.83400        3.56600        3.82760
H         -2.27150        4.40150        4.04560
H         -2.62500        2.92310        4.97040
H          4.39600       -0.39400        3.23080
H         -1.84250        0.23090       -0.82020
H         -0.38350        0.20600       -1.78070
