rmsd122.gzmat
 OpenBabel08211713423D

 30 31  0  0  1  0  0  0  0  0999 V2000
    0.0000    0.0000    0.0000 C   0  0  0  0  0  0  0  0  0  0  0  0
    1.3631    0.0000    0.0000 N   0  0  0  0  0  0  0  0  0  0  0  0
    1.9312    0.0000    1.2251 C   0  0  0  0  0  0  0  0  0  0  0  0
    1.1502   -0.0068    2.4525 C   0  0  2  0  0  0  0  0  0  0  0  0
   -0.2480   -0.0088    2.3204 C   0  0  0  0  0  0  0  0  0  0  0  0
   -0.8294   -0.0101    1.1176 N   0  0  0  0  0  0  0  0  0  0  0  0
   -0.9660   -0.0160    3.4566 O   0  0  0  0  0  0  0  0  0  0  0  0
   -2.3876    0.0469    3.3576 C   0  0  0  0  0  0  0  0  0  0  0  0
   -2.8900    1.4781    3.4684 C   0  0  0  0  0  0  0  0  0  0  0  0
   -4.0668    1.6429    3.6708 O   0  0  0  0  0  0  0  0  0  0  0  0
   -1.9212    2.6296    3.3078 C   0  0  0  0  0  0  0  0  0  0  0  0
   -2.0297    3.1250    1.8629 C   0  0  0  0  0  0  0  0  0  0  0  0
   -2.2827    3.7387    4.2977 C   0  0  0  0  0  0  0  0  0  0  0  0
    2.0727   -0.0044    3.4989 N   0  0  0  0  0  0  0  0  0  0  0  0
    1.8303   -0.0221    4.4640 H   0  0  0  0  0  0  0  0  0  0  0  0
    3.3327    0.0021    2.9130 C   0  0  0  0  0  0  0  0  0  0  0  0
    3.2789    0.0072    1.5675 N   0  0  0  0  0  0  0  0  0  0  0  0
   -0.6330    0.0419   -1.2110 N   0  0  0  0  0  0  0  0  0  0  0  0
   -2.7010   -0.5598    4.2328 H   0  0  0  0  0  0  0  0  0  0  0  0
   -2.7712   -0.4339    2.4340 H   0  0  0  0  0  0  0  0  0  0  0  0
   -0.8739    2.2968    3.5071 H   0  0  0  0  0  0  0  0  0  0  0  0
   -3.0373    3.4985    1.6404 H   0  0  0  0  0  0  0  0  0  0  0  0
   -1.8079    2.3276    1.1413 H   0  0  0  0  0  0  0  0  0  0  0  0
   -1.3254    3.9433    1.6723 H   0  0  0  0  0  0  0  0  0  0  0  0
   -3.3371    4.0343    4.1968 H   0  0  0  0  0  0  0  0  0  0  0  0
   -1.6718    4.6329    4.1303 H   0  0  0  0  0  0  0  0  0  0  0  0
   -2.1329    3.4197    5.3350 H   0  0  0  0  0  0  0  0  0  0  0  0
    4.2502    0.0059    3.4881 H   0  0  0  0  0  0  0  0  0  0  0  0
   -1.6289   -0.0320   -1.2579 H   0  0  0  0  0  0  0  0  0  0  0  0
   -0.0934   -0.0165   -2.0535 H   0  0  0  0  0  0  0  0  0  0  0  0
  1  2  2  0  0  0  0
  1  6  2  0  0  0  0
  2  3  2  0  0  0  0
  3 17  2  0  0  0  0
  4  3  1  6  0  0  0
  4 14  1  0  0  0  0
  5  4  1  0  0  0  0
  5  7  1  0  0  0  0
  6  5  2  0  0  0  0
  8  7  1  0  0  0  0
  8  9  1  0  0  0  0
  8 19  1  0  0  0  0
  9 10  2  0  0  0  0
 11  9  1  0  0  0  0
 11 21  1  0  0  0  0
 11 13  1  0  0  0  0
 12 11  1  0  0  0  0
 13 27  1  0  0  0  0
 14 15  1  0  0  0  0
 16 28  1  0  0  0  0
 16 14  1  0  0  0  0
 17 16  2  0  0  0  0
 18  1  1  0  0  0  0
 20  8  1  0  0  0  0
 22 12  1  0  0  0  0
 23 12  1  0  0  0  0
 24 12  1  0  0  0  0
 25 13  1  0  0  0  0
 26 13  1  0  0  0  0
 29 18  1  0  0  0  0
 30 18  1  0  0  0  0
M  RAD  1   4   2
M  END
$$$$
