rmsd184.gzmat
 OpenBabel08211713423D

 30 31  0  0  1  0  0  0  0  0999 V2000
    0.0000    0.0000    0.0000 C   0  0  0  0  0  0  0  0  0  0  0  0
    1.3631    0.0000    0.0000 N   0  0  0  0  0  0  0  0  0  0  0  0
    1.9307    0.0000    1.2250 C   0  0  0  0  0  0  0  0  0  0  0  0
    1.1509    0.0006    2.4541 C   0  0  2  0  0  0  0  0  0  0  0  0
   -0.2470    0.0030    2.3215 C   0  0  0  0  0  0  0  0  0  0  0  0
   -0.8279    0.0082    1.1187 N   0  0  0  0  0  0  0  0  0  0  0  0
   -0.9762    0.0018    3.4517 O   0  0  0  0  0  0  0  0  0  0  0  0
   -2.3974   -0.0278    3.3227 C   0  0  0  0  0  0  0  0  0  0  0  0
   -2.9357   -1.4446    3.1995 C   0  0  0  0  0  0  0  0  0  0  0  0
   -4.1297   -1.5865    3.1175 O   0  0  0  0  0  0  0  0  0  0  0  0
   -1.9761   -2.6154    3.2011 C   0  0  0  0  0  0  0  0  0  0  0  0
   -2.4746   -3.6599    4.2021 C   0  0  0  0  0  0  0  0  0  0  0  0
   -1.9367   -3.1862    1.7814 C   0  0  0  0  0  0  0  0  0  0  0  0
    2.0762   -0.0003    3.4984 N   0  0  0  0  0  0  0  0  0  0  0  0
    1.8367    0.0153    4.4637 H   0  0  0  0  0  0  0  0  0  0  0  0
    3.3354    0.0026    2.9102 C   0  0  0  0  0  0  0  0  0  0  0  0
    3.2793   -0.0004    1.5651 N   0  0  0  0  0  0  0  0  0  0  0  0
   -0.6351   -0.0365   -1.2092 N   0  0  0  0  0  0  0  0  0  0  0  0
   -2.7463    0.6016    2.4780 H   0  0  0  0  0  0  0  0  0  0  0  0
   -2.7156    0.4396    4.2774 H   0  0  0  0  0  0  0  0  0  0  0  0
   -0.9494   -2.2925    3.4977 H   0  0  0  0  0  0  0  0  0  0  0  0
   -3.4785   -4.0183    3.9334 H   0  0  0  0  0  0  0  0  0  0  0  0
   -2.5351   -3.2523    5.2170 H   0  0  0  0  0  0  0  0  0  0  0  0
   -1.8082   -4.5294    4.2306 H   0  0  0  0  0  0  0  0  0  0  0  0
   -2.9269   -3.5368    1.4627 H   0  0  0  0  0  0  0  0  0  0  0  0
   -1.2473   -4.0345    1.7146 H   0  0  0  0  0  0  0  0  0  0  0  0
   -1.6065   -2.4350    1.0520 H   0  0  0  0  0  0  0  0  0  0  0  0
    4.2544    0.0047    3.4833 H   0  0  0  0  0  0  0  0  0  0  0  0
   -1.6325    0.0242   -1.2518 H   0  0  0  0  0  0  0  0  0  0  0  0
   -0.0980    0.0107   -2.0533 H   0  0  0  0  0  0  0  0  0  0  0  0
  1  2  2  0  0  0  0
  1  6  2  0  0  0  0
  2  3  2  0  0  0  0
  3 17  2  0  0  0  0
  4  3  1  6  0  0  0
  4 14  1  0  0  0  0
  5  4  1  0  0  0  0
  5  7  1  0  0  0  0
  6  5  2  0  0  0  0
  8  7  1  0  0  0  0
  8 20  1  0  0  0  0
  9 11  1  0  0  0  0
  9  8  1  0  0  0  0
 10  9  2  0  0  0  0
 11 21  1  0  0  0  0
 11 12  1  0  0  0  0
 12 24  1  0  0  0  0
 12 23  1  0  0  0  0
 13 11  1  0  0  0  0
 14 15  1  0  0  0  0
 16 28  1  0  0  0  0
 16 14  1  0  0  0  0
 17 16  2  0  0  0  0
 18  1  1  0  0  0  0
 19  8  1  0  0  0  0
 22 12  1  0  0  0  0
 25 13  1  0  0  0  0
 26 13  1  0  0  0  0
 27 13  1  0  0  0  0
 29 18  1  0  0  0  0
 30 18  1  0  0  0  0
M  RAD  1   4   2
M  END
$$$$
