30
rmsd238.gzmat
C          0.00000        0.00000        0.00000
N          1.36300        0.00000        0.00000
C          1.93130        0.00000        1.22480
C          1.15050        0.00490        2.45220
C         -0.24800        0.00980        2.32030
N         -0.83010        0.00550        1.11780
O         -0.96330        0.03250        3.45770
C         -2.38620       -0.02720        3.36910
C         -2.87990       -1.44420        3.61730
O         -4.02910       -1.58990        3.94990
C         -1.93030       -2.60480        3.41780
C         -2.23540       -3.69630        4.44460
C         -2.12470       -3.11760        1.98860
N          2.07390        0.00500        3.49810
H          1.83240        0.02090        4.46330
C          3.33370        0.00290        2.91160
N          3.27920       -0.00220        1.56640
N         -0.63070       -0.02810       -1.21180
H         -2.77740        0.36220        2.40670
H         -2.69590        0.66040        4.18360
H         -0.87120       -2.27350        3.54910
H         -3.29770       -3.97900        4.42300
H         -2.01090       -3.36450        5.46440
H         -1.64780       -4.60000        4.24980
H         -3.13960       -3.50530        1.83420
H         -1.42450       -3.93040        1.76490
H         -1.95440       -2.32650        1.24590
H          4.25190        0.00240        3.48590
H         -1.62680        0.03700       -1.26090
H         -0.08890        0.02340       -2.05270
