30

C          0.06170       -0.01010        0.00220
N          1.39120        0.05750       -0.02230
C          1.96780        0.09360        1.18550
C          1.22920        0.06790        2.39190
C         -0.16420        0.00390        2.29830
N         -0.73180       -0.03340        1.11090
O         -0.88990       -0.02340        3.43320
C         -2.31100       -0.09530        3.35780
C         -2.87750       -1.45970        3.75900
O         -4.00800       -1.50490        4.18960
C         -2.02710       -2.70280        3.53230
C         -2.47380       -3.84360        4.44470
C         -2.11830       -3.09060        2.04200
N          2.16820        0.12200        3.40480
H          1.98540        0.12890        4.39990
C          3.38740        0.17760        2.78120
N          3.31500        0.16280        1.47030
N         -0.59430       -0.09700       -1.19170
H         -2.64290        0.13260        2.33310
H         -2.72370        0.65450        4.04680
H         -0.98080       -2.43390        3.75180
H         -3.53280       -4.08310        4.26890
H         -2.36850       -3.57470        5.50700
H         -1.87270       -4.74610        4.25520
H         -3.15180       -3.37640        1.78850
H         -1.46580       -3.95350        1.83740
H         -1.81250       -2.26770        1.37970
H          4.31340        0.22810        3.35610
H         -1.59170        0.06260       -1.20330
H         -0.05670        0.08190       -2.02910
