rmsd166.gzmat
 OpenBabel08211713423D

 30 31  0  0  1  0  0  0  0  0999 V2000
    0.0000    0.0000    0.0000 C   0  0  0  0  0  0  0  0  0  0  0  0
    1.3628    0.0000    0.0000 N   0  0  0  0  0  0  0  0  0  0  0  0
    1.9316    0.0000    1.2248 C   0  0  0  0  0  0  0  0  0  0  0  0
    1.1508    0.0021    2.4522 C   0  0  1  0  0  0  0  0  0  0  0  0
   -0.2475   -0.0023    2.3203 C   0  0  0  0  0  0  0  0  0  0  0  0
   -0.8296   -0.0104    1.1179 N   0  0  0  0  0  0  0  0  0  0  0  0
   -0.9675   -0.0032    3.4556 O   0  0  0  0  0  0  0  0  0  0  0  0
   -2.3892   -0.0435    3.3507 C   0  0  0  0  0  0  0  0  0  0  0  0
   -3.0035    1.3470    3.3340 C   0  0  0  0  0  0  0  0  0  0  0  0
   -4.1952    1.4308    3.4976 O   0  0  0  0  0  0  0  0  0  0  0  0
   -2.1292    2.5600    3.1044 C   0  0  0  0  0  0  0  0  0  0  0  0
   -2.3516    3.0200    1.6607 C   0  0  0  0  0  0  0  0  0  0  0  0
   -2.5243    3.6525    4.0998 C   0  0  0  0  0  0  0  0  0  0  0  0
    2.0743   -0.0049    3.4978 N   0  0  0  0  0  0  0  0  0  0  0  0
    1.8323   -0.0137    4.4629 H   0  0  0  0  0  0  0  0  0  0  0  0
    3.3340   -0.0148    2.9117 C   0  0  0  0  0  0  0  0  0  0  0  0
    3.2793   -0.0094    1.5664 N   0  0  0  0  0  0  0  0  0  0  0  0
   -0.6329    0.0393   -1.2110 N   0  0  0  0  0  0  0  0  0  0  0  0
   -2.6624   -0.5933    4.2757 H   0  0  0  0  0  0  0  0  0  0  0  0
   -2.7281   -0.6283    2.4701 H   0  0  0  0  0  0  0  0  0  0  0  0
   -1.0510    2.3104    3.2499 H   0  0  0  0  0  0  0  0  0  0  0  0
   -3.4040    3.2733    1.4799 H   0  0  0  0  0  0  0  0  0  0  0  0
   -2.0684    2.2406    0.9409 H   0  0  0  0  0  0  0  0  0  0  0  0
   -1.7536    3.9088    1.4314 H   0  0  0  0  0  0  0  0  0  0  0  0
   -3.5882    3.9125    4.0041 H   0  0  0  0  0  0  0  0  0  0  0  0
   -1.9435    4.5666    3.9341 H   0  0  0  0  0  0  0  0  0  0  0  0
   -2.3586    3.3342    5.1349 H   0  0  0  0  0  0  0  0  0  0  0  0
    4.2521   -0.0250    3.4860 H   0  0  0  0  0  0  0  0  0  0  0  0
   -1.6279   -0.0462   -1.2583 H   0  0  0  0  0  0  0  0  0  0  0  0
   -0.0921   -0.0122   -2.0530 H   0  0  0  0  0  0  0  0  0  0  0  0
  1  2  2  0  0  0  0
  1  6  2  0  0  0  0
  2  3  2  0  0  0  0
  3 17  2  0  0  0  0
  4  3  1  6  0  0  0
  4 14  1  0  0  0  0
  5  4  1  0  0  0  0
  5  7  1  0  0  0  0
  6  5  2  0  0  0  0
  8  7  1  0  0  0  0
  8 19  1  0  0  0  0
  9  8  1  0  0  0  0
  9 10  2  0  0  0  0
 11 21  1  0  0  0  0
 11  9  1  0  0  0  0
 11 13  1  0  0  0  0
 12 11  1  0  0  0  0
 13 27  1  0  0  0  0
 14 15  1  0  0  0  0
 16 28  1  0  0  0  0
 16 14  1  0  0  0  0
 17 16  2  0  0  0  0
 18  1  1  0  0  0  0
 20  8  1  0  0  0  0
 22 12  1  0  0  0  0
 23 12  1  0  0  0  0
 24 12  1  0  0  0  0
 25 13  1  0  0  0  0
 26 13  1  0  0  0  0
 29 18  1  0  0  0  0
 30 18  1  0  0  0  0
M  RAD  1   4   2
M  END
$$$$
