
     RDKit          3D

 36 38  0  0  0  0  0  0  0  0999 V2000
    0.2553   -0.0327   -0.1098 S   0  0  0  0  0  0  0  0  0  0  0  0
    1.7138   -0.1680   -0.1095 O   0  0  0  0  0  0  0  0  0  0  0  0
   -0.5399   -0.0604   -1.3389 O   0  0  0  0  0  0  0  0  0  0  0  0
   -0.1349    1.4157    0.6689 N   0  0  0  0  0  0  0  0  0  0  0  0
   -0.3987   -1.2766    0.9950 C   0  0  0  0  0  0  0  0  0  0  0  0
   -1.7490   -1.6262    0.9063 C   0  0  0  0  0  0  0  0  0  0  0  0
   -2.2565   -2.5894    1.7722 C   0  0  0  0  0  0  0  0  0  0  0  0
   -1.4278   -3.2104    2.7276 C   0  0  0  0  0  0  0  0  0  0  0  0
   -0.0716   -2.8442    2.7866 C   0  0  0  0  0  0  0  0  0  0  0  0
    0.4500   -1.8835    1.9197 C   0  0  0  0  0  0  0  0  0  0  0  0
   -1.9705   -4.2394    3.6285 C   0  0  0  0  0  0  0  0  0  0  0  0
   -1.4501   -5.4862    3.8833 C   0  0  0  0  0  0  0  0  0  0  0  0
   -0.2349   -6.2012    3.4138 C   0  0  0  0  0  0  0  0  0  0  0  0
   -2.2788   -6.1544    4.7035 O   0  0  0  0  0  0  0  0  0  0  0  0
   -3.3681   -5.3687    5.0233 N   0  0  0  0  0  0  0  0  0  0  0  0
   -3.1993   -4.2291    4.3867 C   0  0  0  0  0  0  0  0  0  0  0  0
   -4.1985   -3.1524    4.5236 C   0  0  0  0  0  0  0  0  0  0  0  0
   -5.5573   -3.4759    4.6782 C   0  0  0  0  0  0  0  0  0  0  0  0
   -6.5097   -2.4673    4.8234 C   0  0  0  0  0  0  0  0  0  0  0  0
   -6.1191   -1.1246    4.8173 C   0  0  0  0  0  0  0  0  0  0  0  0
   -4.7683   -0.7956    4.6730 C   0  0  0  0  0  0  0  0  0  0  0  0
   -3.8122   -1.8017    4.5280 C   0  0  0  0  0  0  0  0  0  0  0  0
   -0.6424    2.0181    0.0208 H   0  0  0  0  0  0  0  0  0  0  0  0
    0.7094    1.8646    1.0234 H   0  0  0  0  0  0  0  0  0  0  0  0
   -2.3817   -1.1565    0.1519 H   0  0  0  0  0  0  0  0  0  0  0  0
   -3.3071   -2.8763    1.7077 H   0  0  0  0  0  0  0  0  0  0  0  0
    0.5779   -3.3071    3.5320 H   0  0  0  0  0  0  0  0  0  0  0  0
    1.5036   -1.6028    1.9502 H   0  0  0  0  0  0  0  0  0  0  0  0
    0.5384   -6.2313    4.1993 H   0  0  0  0  0  0  0  0  0  0  0  0
    0.1873   -5.6981    2.5338 H   0  0  0  0  0  0  0  0  0  0  0  0
   -0.4819   -7.2410    3.1517 H   0  0  0  0  0  0  0  0  0  0  0  0
   -5.8519   -4.5265    4.6812 H   0  0  0  0  0  0  0  0  0  0  0  0
   -7.5638   -2.7302    4.9393 H   0  0  0  0  0  0  0  0  0  0  0  0
   -6.8666   -0.3354    4.9274 H   0  0  0  0  0  0  0  0  0  0  0  0
   -4.4552    0.2511    4.6777 H   0  0  0  0  0  0  0  0  0  0  0  0
   -2.7585   -1.5377    4.4302 H   0  0  0  0  0  0  0  0  0  0  0  0
  1  2  2  0
  1  3  2  0
  1  4  1  0
  1  5  1  0
  4 23  1  0
  4 24  1  0
  5  6  2  0
  5 10  1  0
  6  7  1  0
  6 25  1  0
  7  8  2  0
  7 26  1  0
  8  9  1  0
  8 11  1  0
  9 10  2  0
  9 27  1  0
 10 28  1  0
 11 12  2  0
 11 16  1  0
 12 13  1  0
 12 14  1  0
 13 29  1  0
 13 30  1  0
 13 31  1  0
 14 15  1  0
 15 16  2  0
 16 17  1  0
 17 18  2  0
 17 22  1  0
 18 19  1  0
 18 32  1  0
 19 20  2  0
 19 33  1  0
 20 21  1  0
 20 34  1  0
 21 22  2  0
 21 35  1  0
 22 36  1  0
M  END

