36
rmsd13.gzmat
S          0.00000        0.00000        0.00000
O          1.44450        0.00000        0.00000
O         -0.77270        0.00000       -1.21990
N         -0.46360        1.45160        0.84010
C         -0.56540       -1.28980        1.04040
C         -1.85910       -1.78740        0.88910
C         -2.32240       -2.78140        1.74480
C         -1.49090       -3.28000        2.75460
C         -0.18090       -2.80560        2.87790
C          0.27880       -1.81000        2.02030
C         -2.00110       -4.26700        3.67670
C         -1.48110       -5.48720        4.04000
C         -0.27820       -6.24130        3.69170
O         -2.33690       -6.09890        4.93480
N         -3.40720       -5.26330        5.15540
C         -3.24810       -4.16240        4.42680
C         -4.17400       -3.03940        4.39830
C         -5.54420       -3.26190        4.24190
C         -6.41560       -2.17720        4.17380
C         -5.92320       -0.87700        4.26930
C         -4.55720       -0.65660        4.44420
C         -3.68030       -1.73530        4.50850
H         -1.15900        2.02540        0.39260
H          0.28480        2.02240        1.19660
H         -2.52260       -1.41000        0.10200
H         -3.33470       -3.16910        1.63930
H          0.46930       -3.20390        3.65300
H          1.30790       -1.44780        2.12730
H          0.49310       -6.16640        4.47990
H          0.17920       -5.87230        2.75640
H         -0.48360       -7.31700        3.54760
H         -5.92490       -4.28180        4.17620
H         -7.48330       -2.34830        4.04860
H         -6.60530       -0.03070        4.20990
H         -4.17380        0.35880        4.52730
H         -2.61170       -1.56640        4.64060
