rmsd10.gzmat
 OpenBabel08211713433D

 36 38  0  0  0  0  0  0  0  0999 V2000
    0.0000    0.0000    0.0000 S   0  0  0  0  0  0  0  0  0  0  0  0
    1.4450    0.0000    0.0000 O   0  0  0  0  0  0  0  0  0  0  0  0
   -0.7697    0.0000   -1.2219 O   0  0  0  0  0  0  0  0  0  0  0  0
   -0.4653    1.4512    0.8395 N   0  0  0  0  0  0  0  0  0  0  0  0
   -0.5597   -1.2975    1.0343 C   0  0  0  0  0  0  0  0  0  0  0  0
   -1.8746   -1.7507    0.9345 C   0  0  0  0  0  0  0  0  0  0  0  0
   -2.3138   -2.7883    1.7506 C   0  0  0  0  0  0  0  0  0  0  0  0
   -1.4352   -3.3818    2.6646 C   0  0  0  0  0  0  0  0  0  0  0  0
   -0.1154   -2.9262    2.7583 C   0  0  0  0  0  0  0  0  0  0  0  0
    0.3192   -1.8858    1.9425 C   0  0  0  0  0  0  0  0  0  0  0  0
   -1.8870   -4.4664    3.5031 C   0  0  0  0  0  0  0  0  0  0  0  0
   -1.7238   -4.6446    4.8581 C   0  0  0  0  0  0  0  0  0  0  0  0
   -1.0696   -3.8935    5.9284 C   0  0  0  0  0  0  0  0  0  0  0  0
   -2.3512   -5.8121    5.2435 O   0  0  0  0  0  0  0  0  0  0  0  0
   -2.9112   -6.3935    4.1297 N   0  0  0  0  0  0  0  0  0  0  0  0
   -2.6587   -5.6268    3.0728 C   0  0  0  0  0  0  0  0  0  0  0  0
   -3.0831   -5.9259    1.7128 C   0  0  0  0  0  0  0  0  0  0  0  0
   -2.1626   -5.8208    0.6650 C   0  0  0  0  0  0  0  0  0  0  0  0
   -2.5693   -6.0762   -0.6411 C   0  0  0  0  0  0  0  0  0  0  0  0
   -3.8901   -6.4408   -0.9015 C   0  0  0  0  0  0  0  0  0  0  0  0
   -4.8031   -6.5584    0.1452 C   0  0  0  0  0  0  0  0  0  0  0  0
   -4.4028   -6.3040    1.4550 C   0  0  0  0  0  0  0  0  0  0  0  0
   -1.1358    2.0421    0.3757 H   0  0  0  0  0  0  0  0  0  0  0  0
    0.2814    2.0038    1.2268 H   0  0  0  0  0  0  0  0  0  0  0  0
   -2.5720   -1.3107    0.2126 H   0  0  0  0  0  0  0  0  0  0  0  0
   -3.3397   -3.1466    1.6766 H   0  0  0  0  0  0  0  0  0  0  0  0
    0.5720   -3.3980    3.4563 H   0  0  0  0  0  0  0  0  0  0  0  0
    1.3605   -1.5509    2.0172 H   0  0  0  0  0  0  0  0  0  0  0  0
   -0.8820   -2.8447    5.6376 H   0  0  0  0  0  0  0  0  0  0  0  0
   -0.0922   -4.3344    6.1987 H   0  0  0  0  0  0  0  0  0  0  0  0
   -1.6743   -3.8702    6.8529 H   0  0  0  0  0  0  0  0  0  0  0  0
   -1.1309   -5.5397    0.8747 H   0  0  0  0  0  0  0  0  0  0  0  0
   -1.8547   -5.9888   -1.4580 H   0  0  0  0  0  0  0  0  0  0  0  0
   -4.2071   -6.6374   -1.9245 H   0  0  0  0  0  0  0  0  0  0  0  0
   -5.8311   -6.8518   -0.0585 H   0  0  0  0  0  0  0  0  0  0  0  0
   -5.1106   -6.4025    2.2784 H   0  0  0  0  0  0  0  0  0  0  0  0
  1  2  2  0  0  0  0
  1  4  1  0  0  0  0
  1  5  1  0  0  0  0
  3  1  2  0  0  0  0
  4 24  1  0  0  0  0
  5 10  1  0  0  0  0
  6  5  2  0  0  0  0
  6  7  1  0  0  0  0
  7  8  2  0  0  0  0
  8  9  1  0  0  0  0
  8 11  1  0  0  0  0
  9 27  1  0  0  0  0
 10 28  1  0  0  0  0
 10  9  2  0  0  0  0
 11 12  2  0  0  0  0
 12 14  1  0  0  0  0
 12 13  1  0  0  0  0
 13 30  1  0  0  0  0
 13 31  1  0  0  0  0
 15 14  1  0  0  0  0
 16 11  1  0  0  0  0
 16 15  2  0  0  0  0
 17 16  1  0  0  0  0
 18 32  1  0  0  0  0
 18 17  2  0  0  0  0
 19 18  1  0  0  0  0
 20 19  2  0  0  0  0
 20 21  1  0  0  0  0
 21 22  2  0  0  0  0
 22 17  1  0  0  0  0
 22 36  1  0  0  0  0
 23  4  1  0  0  0  0
 25  6  1  0  0  0  0
 26  7  1  0  0  0  0
 29 13  1  0  0  0  0
 33 19  1  0  0  0  0
 34 20  1  0  0  0  0
 35 21  1  0  0  0  0
M  END
$$$$
