rmsd24.gzmat
 OpenBabel08211713433D

 36 38  0  0  0  0  0  0  0  0999 V2000
    0.0000    0.0000    0.0000 S   0  0  0  0  0  0  0  0  0  0  0  0
    1.4447    0.0000    0.0000 O   0  0  0  0  0  0  0  0  0  0  0  0
   -0.7715    0.0000   -1.2205 O   0  0  0  0  0  0  0  0  0  0  0  0
   -0.4652    1.4502    0.8407 N   0  0  0  0  0  0  0  0  0  0  0  0
   -0.5651   -1.2953    1.0337 C   0  0  0  0  0  0  0  0  0  0  0  0
   -1.8765   -1.7548    0.9159 C   0  0  0  0  0  0  0  0  0  0  0  0
   -2.3290   -2.7795    1.7409 C   0  0  0  0  0  0  0  0  0  0  0  0
   -1.4658   -3.3551    2.6808 C   0  0  0  0  0  0  0  0  0  0  0  0
   -0.1476   -2.8972    2.7875 C   0  0  0  0  0  0  0  0  0  0  0  0
    0.3003   -1.8687    1.9637 C   0  0  0  0  0  0  0  0  0  0  0  0
   -1.9320   -4.4216    3.5347 C   0  0  0  0  0  0  0  0  0  0  0  0
   -1.7882   -4.5679    4.8958 C   0  0  0  0  0  0  0  0  0  0  0  0
   -1.1533   -3.7834    5.9532 C   0  0  0  0  0  0  0  0  0  0  0  0
   -2.4158   -5.7286    5.2997 O   0  0  0  0  0  0  0  0  0  0  0  0
   -2.9595   -6.3373    4.1918 N   0  0  0  0  0  0  0  0  0  0  0  0
   -2.6963   -5.5935    3.1214 C   0  0  0  0  0  0  0  0  0  0  0  0
   -3.1057   -5.9157    1.7624 C   0  0  0  0  0  0  0  0  0  0  0  0
   -2.1766   -5.8123    0.7221 C   0  0  0  0  0  0  0  0  0  0  0  0
   -2.5720   -6.0743   -0.5859 C   0  0  0  0  0  0  0  0  0  0  0  0
   -3.8898   -6.4423   -0.8556 C   0  0  0  0  0  0  0  0  0  0  0  0
   -4.8107   -6.5609    0.1836 C   0  0  0  0  0  0  0  0  0  0  0  0
   -4.4212   -6.3028    1.4960 C   0  0  0  0  0  0  0  0  0  0  0  0
   -1.1749    2.0147    0.4039 H   0  0  0  0  0  0  0  0  0  0  0  0
    0.2816    2.0297    1.1862 H   0  0  0  0  0  0  0  0  0  0  0  0
   -2.5598   -1.3282    0.1724 H   0  0  0  0  0  0  0  0  0  0  0  0
   -3.3530   -3.1415    1.6550 H   0  0  0  0  0  0  0  0  0  0  0  0
    0.5279   -3.3574    3.5051 H   0  0  0  0  0  0  0  0  0  0  0  0
    1.3394   -1.5298    2.0516 H   0  0  0  0  0  0  0  0  0  0  0  0
   -1.0052   -2.7326    5.6468 H   0  0  0  0  0  0  0  0  0  0  0  0
   -0.1593   -4.1867    6.2203 H   0  0  0  0  0  0  0  0  0  0  0  0
   -1.7511   -3.7682    6.8816 H   0  0  0  0  0  0  0  0  0  0  0  0
   -1.1479   -5.5244    0.9383 H   0  0  0  0  0  0  0  0  0  0  0  0
   -1.8513   -5.9881   -1.3977 H   0  0  0  0  0  0  0  0  0  0  0  0
   -4.1980   -6.6396   -1.8811 H   0  0  0  0  0  0  0  0  0  0  0  0
   -5.8366   -6.8566   -0.0281 H   0  0  0  0  0  0  0  0  0  0  0  0
   -5.1345   -6.4033    2.3148 H   0  0  0  0  0  0  0  0  0  0  0  0
  1  2  2  0  0  0  0
  1  4  1  0  0  0  0
  1  5  1  0  0  0  0
  3  1  2  0  0  0  0
  4 24  1  0  0  0  0
  5 10  1  0  0  0  0
  6  5  2  0  0  0  0
  6  7  1  0  0  0  0
  7  8  2  0  0  0  0
  8  9  1  0  0  0  0
  8 11  1  0  0  0  0
  9 27  1  0  0  0  0
 10 28  1  0  0  0  0
 10  9  2  0  0  0  0
 11 12  2  0  0  0  0
 12 14  1  0  0  0  0
 12 13  1  0  0  0  0
 13 30  1  0  0  0  0
 13 31  1  0  0  0  0
 15 14  1  0  0  0  0
 16 11  1  0  0  0  0
 16 15  2  0  0  0  0
 17 16  1  0  0  0  0
 18 32  1  0  0  0  0
 18 17  2  0  0  0  0
 19 18  1  0  0  0  0
 20 19  2  0  0  0  0
 20 21  1  0  0  0  0
 21 22  2  0  0  0  0
 22 17  1  0  0  0  0
 22 36  1  0  0  0  0
 23  4  1  0  0  0  0
 25  6  1  0  0  0  0
 26  7  1  0  0  0  0
 29 13  1  0  0  0  0
 33 19  1  0  0  0  0
 34 20  1  0  0  0  0
 35 21  1  0  0  0  0
M  END
$$$$
