rmsd21.gzmat
 OpenBabel08211713433D

 36 38  0  0  0  0  0  0  0  0999 V2000
    0.0000    0.0000    0.0000 S   0  0  0  0  0  0  0  0  0  0  0  0
    1.4448    0.0000    0.0000 O   0  0  0  0  0  0  0  0  0  0  0  0
   -0.7721    0.0000   -1.2205 O   0  0  0  0  0  0  0  0  0  0  0  0
   -0.4603    1.4511    0.8422 N   0  0  0  0  0  0  0  0  0  0  0  0
   -0.5669   -1.2945    1.0337 C   0  0  0  0  0  0  0  0  0  0  0  0
   -1.8593   -1.7950    0.8783 C   0  0  0  0  0  0  0  0  0  0  0  0
   -2.3147   -2.8101    1.7135 C   0  0  0  0  0  0  0  0  0  0  0  0
   -1.4747   -3.3338    2.7035 C   0  0  0  0  0  0  0  0  0  0  0  0
   -0.1703   -2.8445    2.8390 C   0  0  0  0  0  0  0  0  0  0  0  0
    0.2803   -1.8257    2.0046 C   0  0  0  0  0  0  0  0  0  0  0  0
   -1.9570   -4.3652    3.5909 C   0  0  0  0  0  0  0  0  0  0  0  0
   -1.8533   -4.4341    4.9624 C   0  0  0  0  0  0  0  0  0  0  0  0
   -1.2451   -3.5925    5.9916 C   0  0  0  0  0  0  0  0  0  0  0  0
   -2.4950   -5.5692    5.4132 O   0  0  0  0  0  0  0  0  0  0  0  0
   -3.0053   -6.2400    4.3263 N   0  0  0  0  0  0  0  0  0  0  0  0
   -2.7090   -5.5589    3.2221 C   0  0  0  0  0  0  0  0  0  0  0  0
   -3.0880   -5.9703    1.8783 C   0  0  0  0  0  0  0  0  0  0  0  0
   -2.1572   -5.8920    0.8373 C   0  0  0  0  0  0  0  0  0  0  0  0
   -2.5303   -6.2614   -0.4518 C   0  0  0  0  0  0  0  0  0  0  0  0
   -3.8271   -6.7099   -0.7026 C   0  0  0  0  0  0  0  0  0  0  0  0
   -4.7498   -6.8008    0.3378 C   0  0  0  0  0  0  0  0  0  0  0  0
   -4.3831   -6.4355    1.6309 C   0  0  0  0  0  0  0  0  0  0  0  0
   -1.1737    2.0146    0.4102 H   0  0  0  0  0  0  0  0  0  0  0  0
    0.2895    2.0316    1.1798 H   0  0  0  0  0  0  0  0  0  0  0  0
   -2.5266   -1.4067    0.0998 H   0  0  0  0  0  0  0  0  0  0  0  0
   -3.3249   -3.2014    1.5993 H   0  0  0  0  0  0  0  0  0  0  0  0
    0.4939   -3.2691    3.5881 H   0  0  0  0  0  0  0  0  0  0  0  0
    1.3071   -1.4595    2.1188 H   0  0  0  0  0  0  0  0  0  0  0  0
   -1.0629   -2.5667    5.6239 H   0  0  0  0  0  0  0  0  0  0  0  0
   -0.2705   -3.9945    6.3243 H   0  0  0  0  0  0  0  0  0  0  0  0
   -1.8769   -3.5068    6.8935 H   0  0  0  0  0  0  0  0  0  0  0  0
   -1.1442   -5.5425    1.0370 H   0  0  0  0  0  0  0  0  0  0  0  0
   -1.8082   -6.1989   -1.2642 H   0  0  0  0  0  0  0  0  0  0  0  0
   -4.1177   -6.9915   -1.7134 H   0  0  0  0  0  0  0  0  0  0  0  0
   -5.7587   -7.1601    0.1429 H   0  0  0  0  0  0  0  0  0  0  0  0
   -5.0977   -6.5133    2.4510 H   0  0  0  0  0  0  0  0  0  0  0  0
  1  2  2  0  0  0  0
  1  4  1  0  0  0  0
  1  5  1  0  0  0  0
  3  1  2  0  0  0  0
  4 24  1  0  0  0  0
  5 10  1  0  0  0  0
  6  5  2  0  0  0  0
  6  7  1  0  0  0  0
  7  8  2  0  0  0  0
  8  9  1  0  0  0  0
  8 11  1  0  0  0  0
  9 27  1  0  0  0  0
 10 28  1  0  0  0  0
 10  9  2  0  0  0  0
 11 12  2  0  0  0  0
 12 14  1  0  0  0  0
 12 13  1  0  0  0  0
 13 30  1  0  0  0  0
 13 31  1  0  0  0  0
 15 14  1  0  0  0  0
 16 11  1  0  0  0  0
 16 15  2  0  0  0  0
 17 16  1  0  0  0  0
 18 32  1  0  0  0  0
 18 17  2  0  0  0  0
 19 18  1  0  0  0  0
 20 19  2  0  0  0  0
 20 21  1  0  0  0  0
 21 22  2  0  0  0  0
 22 17  1  0  0  0  0
 22 36  1  0  0  0  0
 23  4  1  0  0  0  0
 25  6  1  0  0  0  0
 26  7  1  0  0  0  0
 29 13  1  0  0  0  0
 33 19  1  0  0  0  0
 34 20  1  0  0  0  0
 35 21  1  0  0  0  0
M  END
$$$$
