36
rmsd24.gzmat
S          0.00000        0.00000        0.00000
O          1.44470        0.00000        0.00000
O         -0.77150        0.00000       -1.22050
N         -0.46520        1.45020        0.84070
C         -0.56510       -1.29530        1.03370
C         -1.87650       -1.75480        0.91590
C         -2.32900       -2.77950        1.74090
C         -1.46580       -3.35510        2.68080
C         -0.14760       -2.89720        2.78750
C          0.30030       -1.86870        1.96370
C         -1.93200       -4.42160        3.53470
C         -1.78820       -4.56790        4.89580
C         -1.15330       -3.78340        5.95320
O         -2.41580       -5.72860        5.29970
N         -2.95950       -6.33730        4.19180
C         -2.69630       -5.59350        3.12140
C         -3.10570       -5.91570        1.76240
C         -2.17660       -5.81230        0.72210
C         -2.57200       -6.07430       -0.58590
C         -3.88980       -6.44230       -0.85560
C         -4.81070       -6.56090        0.18360
C         -4.42120       -6.30280        1.49600
H         -1.17490        2.01470        0.40390
H          0.28160        2.02970        1.18620
H         -2.55980       -1.32820        0.17240
H         -3.35300       -3.14150        1.65500
H          0.52790       -3.35740        3.50510
H          1.33940       -1.52980        2.05160
H         -1.00520       -2.73260        5.64680
H         -0.15930       -4.18670        6.22030
H         -1.75110       -3.76820        6.88160
H         -1.14790       -5.52440        0.93830
H         -1.85130       -5.98810       -1.39770
H         -4.19800       -6.63960       -1.88110
H         -5.83660       -6.85660       -0.02810
H         -5.13450       -6.40330        2.31480
