36
rmsd22.gzmat
S          0.00000        0.00000        0.00000
O          1.44440        0.00000        0.00000
O         -0.77010        0.00000       -1.22190
N         -0.45820        1.44920        0.84650
C         -0.57230       -1.29470        1.03170
C         -1.79840       -1.90310        0.76470
C         -2.25450       -2.93180        1.58250
C         -1.48240       -3.35790        2.67000
C         -0.25060       -2.74720        2.93060
C          0.20330       -1.71960        2.10820
C         -1.95660       -4.43130        3.51180
C         -2.05510       -4.48510        4.88330
C         -1.72550       -3.57770        5.98090
O         -2.60220       -5.69690        5.25520
N         -2.84490       -6.43140        4.11850
C         -2.47540       -5.71730        3.05860
C         -2.57240       -6.17840        1.68170
C         -1.50800       -5.95770        0.80200
C         -1.60550       -6.37990       -0.52030
C         -2.76030       -7.02390       -0.96370
C         -3.81650       -7.25360       -0.08390
C         -3.72520       -6.83440        1.24150
H         -1.17790        2.01090        0.42360
H          0.29220        2.03200        1.17910
H         -2.41030       -1.59130       -0.09070
H         -3.20970       -3.41350        1.37630
H          0.35710       -3.08760        3.76590
H          1.17850       -1.26490        2.31440
H         -1.55370       -2.54780        5.62290
H         -0.80910       -3.89650        6.51070
H         -2.52740       -3.52770        6.73920
H         -0.60570       -5.45690        1.15350
H         -0.77920       -6.20560       -1.20780
H         -2.83370       -7.34990       -1.99990
H         -4.71400       -7.76410       -0.42930
H         -4.54420       -7.01940        1.93780
