36

S          0.14490        0.18040        0.11660
O          1.60840        0.15380        0.17140
O         -0.59700        0.18770       -1.14560
N         -0.38960        1.53150        0.97900
C         -0.45310       -1.18950        1.09730
C         -1.77410       -1.61720        0.93790
C         -2.23730       -2.68240        1.70330
C         -1.38990       -3.33530        2.62040
C         -0.06150       -2.89240        2.74700
C          0.41200       -1.81960        1.99060
C         -1.89170       -4.45430        3.43340
C         -1.76650       -4.62080        4.79230
C         -1.11160       -3.82500        5.86300
O         -2.42430       -5.73120        5.16680
N         -2.99710       -6.33870        4.06700
C         -2.69180       -5.58720        3.03050
C         -3.15220       -5.96800        1.68160
C         -2.35720       -5.72450        0.54910
C         -2.80130       -6.10340       -0.71840
C         -4.04080       -6.73110       -0.87050
C         -4.83290       -6.98570        0.25350
C         -4.39310       -6.60800        1.52210
H         -0.90130        2.14940        0.34900
H          0.39830        2.00560        1.42000
H         -2.42140       -1.12020        0.21400
H         -3.26780       -3.02230        1.59090
H          0.61590       -3.41350        3.42620
H          1.44660       -1.48280        2.06730
H         -0.88080       -2.81480        5.49960
H         -0.17100       -4.29750        6.19180
H         -1.77070       -3.75180        6.74110
H         -1.38260       -5.24810        0.66130
H         -2.17320       -5.91020       -1.59110
H         -4.38830       -7.02370       -1.86420
H         -5.80100       -7.47940        0.14050
H         -5.00390       -6.80160        2.40520
