rmsd54.gzmat
 OpenBabel08211713373D

 43 44  0  0  0  0  0  0  0  0999 V2000
    0.0000    0.0000    0.0000 C   0  0  0  0  0  0  0  0  0  0  0  0
    1.2009    0.0000    0.0000 O   0  0  0  0  0  0  0  0  0  0  0  0
   -0.9538    0.0000   -1.1062 C   0  0  0  0  0  0  0  0  0  0  0  0
   -2.2620    0.0009   -0.5747 C   0  0  0  0  0  0  0  0  0  0  0  0
   -2.1262    0.0056    0.9198 C   0  0  0  0  0  0  0  0  0  0  0  0
   -0.7062   -0.0017    1.1912 O   0  0  0  0  0  0  0  0  0  0  0  0
   -3.3658   -0.0040   -1.3915 C   0  0  0  0  0  0  0  0  0  0  0  0
   -4.7590    0.0100   -0.8804 C   0  0  0  0  0  0  0  0  0  0  0  0
   -3.1238   -0.0051   -2.7942 C   0  0  0  0  0  0  0  0  0  0  0  0
   -1.8498    0.0104   -3.3541 C   0  0  0  0  0  0  0  0  0  0  0  0
   -0.7436    0.0066   -2.4739 C   0  0  0  0  0  0  0  0  0  0  0  0
    0.4853    0.0088   -3.0213 O   0  0  0  0  0  0  0  0  0  0  0  0
   -1.6174    0.0428   -4.8293 C   0  0  0  0  0  0  0  0  0  0  0  0
   -1.3028   -1.3283   -5.3349 C   0  0  0  0  0  0  0  0  0  0  0  0
   -1.7583   -1.8594   -6.4764 C   0  0  0  0  0  0  0  0  0  0  0  0
   -1.3936   -3.2720   -6.8473 C   0  0  0  0  0  0  0  0  0  0  0  0
   -2.1684   -4.2866   -5.9916 C   0  0  0  0  0  0  0  0  0  0  0  0
   -3.6330   -4.1892   -6.2780 C   0  0  0  0  0  0  0  0  0  0  0  0
   -4.4985   -3.6652   -5.6253 O   0  0  0  0  0  0  0  0  0  0  0  0
   -3.9384   -4.8065   -7.4497 O   0  0  0  0  0  0  0  0  0  0  0  0
   -2.6299   -1.1570   -7.4587 C   0  0  0  0  0  0  0  0  0  0  0  0
   -4.2321    0.0989   -3.5907 O   0  0  0  0  0  0  0  0  0  0  0  0
   -4.6134   -1.1384   -4.1949 C   0  0  0  0  0  0  0  0  0  0  0  0
   -2.5191    0.9189    1.4001 H   0  0  0  0  0  0  0  0  0  0  0  0
   -2.5301   -0.8972    1.4097 H   0  0  0  0  0  0  0  0  0  0  0  0
   -5.2414    0.9811   -1.0830 H   0  0  0  0  0  0  0  0  0  0  0  0
   -4.8227   -0.1729    0.1988 H   0  0  0  0  0  0  0  0  0  0  0  0
   -5.3814   -0.7491   -1.3810 H   0  0  0  0  0  0  0  0  0  0  0  0
    1.1940    0.0249   -2.3076 H   0  0  0  0  0  0  0  0  0  0  0  0
   -0.7641    0.7242   -5.0683 H   0  0  0  0  0  0  0  0  0  0  0  0
   -2.4946    0.4925   -5.3464 H   0  0  0  0  0  0  0  0  0  0  0  0
   -0.6430   -1.8968   -4.6750 H   0  0  0  0  0  0  0  0  0  0  0  0
   -0.3034   -3.4348   -6.7130 H   0  0  0  0  0  0  0  0  0  0  0  0
   -1.5819   -3.4667   -7.9236 H   0  0  0  0  0  0  0  0  0  0  0  0
   -1.9894   -4.0971   -4.9099 H   0  0  0  0  0  0  0  0  0  0  0  0
   -1.8026   -5.3154   -6.1983 H   0  0  0  0  0  0  0  0  0  0  0  0
   -4.8984   -4.7659   -7.6819 H   0  0  0  0  0  0  0  0  0  0  0  0
   -3.0239   -0.2025   -7.0823 H   0  0  0  0  0  0  0  0  0  0  0  0
   -3.4998   -1.7685   -7.7395 H   0  0  0  0  0  0  0  0  0  0  0  0
   -2.0769   -0.9305   -8.3824 H   0  0  0  0  0  0  0  0  0  0  0  0
   -3.8269   -1.5121   -4.8607 H   0  0  0  0  0  0  0  0  0  0  0  0
   -4.8551   -1.8850   -3.4336 H   0  0  0  0  0  0  0  0  0  0  0  0
   -5.5056   -0.8595   -4.7664 H   0  0  0  0  0  0  0  0  0  0  0  0
  1  6  1  0  0  0  0
  2  1  2  0  0  0  0
  3  4  1  0  0  0  0
  3  1  1  0  0  0  0
  4  5  1  0  0  0  0
  5  6  1  0  0  0  0
  5 24  1  0  0  0  0
  5 25  1  0  0  0  0
  7  8  1  0  0  0  0
  7  4  2  0  0  0  0
  8 27  1  0  0  0  0
  9  7  1  0  0  0  0
 10  9  2  0  0  0  0
 10 11  1  0  0  0  0
 11  3  2  0  0  0  0
 12 11  1  0  0  0  0
 12 29  1  0  0  0  0
 13 10  1  0  0  0  0
 14 13  1  0  0  0  0
 14 32  1  0  0  0  0
 15 14  2  0  0  0  0
 16 33  1  0  0  0  0
 16 15  1  0  0  0  0
 16 17  1  0  0  0  0
 17 35  1  0  0  0  0
 18 17  1  0  0  0  0
 18 19  2  0  0  0  0
 20 18  1  0  0  0  0
 21 38  1  0  0  0  0
 21 15  1  0  0  0  0
 22  9  1  0  0  0  0
 23 22  1  0  0  0  0
 23 42  1  0  0  0  0
 26  8  1  0  0  0  0
 28  8  1  0  0  0  0
 30 13  1  0  0  0  0
 31 13  1  0  0  0  0
 34 16  1  0  0  0  0
 36 17  1  0  0  0  0
 37 20  1  0  0  0  0
 39 21  1  0  0  0  0
 40 21  1  0  0  0  0
 41 23  1  0  0  0  0
 43 23  1  0  0  0  0
M  END
$$$$
