
     RDKit          3D

 43 44  0  0  0  0  0  0  0  0999 V2000
   -0.0108   -0.1435    0.0345 C   0  0  0  0  0  0  0  0  0  0  0  0
    1.1991   -0.1873   -0.0175 O   0  0  0  0  0  0  0  0  0  0  0  0
   -0.9578   -0.0852   -1.0715 C   0  0  0  0  0  0  0  0  0  0  0  0
   -2.2567   -0.0527   -0.5773 C   0  0  0  0  0  0  0  0  0  0  0  0
   -2.1361   -0.0900    0.9270 C   0  0  0  0  0  0  0  0  0  0  0  0
   -0.7234   -0.1443    1.1962 O   0  0  0  0  0  0  0  0  0  0  0  0
   -3.3554   -0.0074   -1.4292 C   0  0  0  0  0  0  0  0  0  0  0  0
   -4.7743   -0.0070   -0.9275 C   0  0  0  0  0  0  0  0  0  0  0  0
   -3.0544    0.0160   -2.8172 C   0  0  0  0  0  0  0  0  0  0  0  0
   -1.7425   -0.0474   -3.3383 C   0  0  0  0  0  0  0  0  0  0  0  0
   -0.6646   -0.0872   -2.4370 C   0  0  0  0  0  0  0  0  0  0  0  0
    0.6058   -0.1261   -2.8788 O   0  0  0  0  0  0  0  0  0  0  0  0
   -1.4848   -0.0558   -4.8288 C   0  0  0  0  0  0  0  0  0  0  0  0
   -1.2208    1.3269   -5.3673 C   0  0  0  0  0  0  0  0  0  0  0  0
   -1.8912    1.9849   -6.3284 C   0  0  0  0  0  0  0  0  0  0  0  0
   -1.4797    3.3998   -6.6893 C   0  0  0  0  0  0  0  0  0  0  0  0
   -2.2373    4.4928   -5.9001 C   0  0  0  0  0  0  0  0  0  0  0  0
   -3.7212    4.5168   -6.1666 C   0  0  0  0  0  0  0  0  0  0  0  0
   -4.5896    4.2352   -5.3753 O   0  0  0  0  0  0  0  0  0  0  0  0
   -3.9993    4.8789   -7.4373 O   0  0  0  0  0  0  0  0  0  0  0  0
   -3.0588    1.4202   -7.0953 C   0  0  0  0  0  0  0  0  0  0  0  0
   -4.0875    0.0521   -3.7129 O   0  0  0  0  0  0  0  0  0  0  0  0
   -4.6489    1.3422   -3.9487 C   0  0  0  0  0  0  0  0  0  0  0  0
   -2.5513    0.8064    1.4167 H   0  0  0  0  0  0  0  0  0  0  0  0
   -2.6132   -0.9775    1.3760 H   0  0  0  0  0  0  0  0  0  0  0  0
   -5.1358    1.0121   -0.7046 H   0  0  0  0  0  0  0  0  0  0  0  0
   -4.8660   -0.5924    0.0006 H   0  0  0  0  0  0  0  0  0  0  0  0
   -5.4502   -0.4412   -1.6770 H   0  0  0  0  0  0  0  0  0  0  0  0
    1.1939   -0.1605   -2.0963 H   0  0  0  0  0  0  0  0  0  0  0  0
   -2.3363   -0.5250   -5.3344 H   0  0  0  0  0  0  0  0  0  0  0  0
   -0.5943   -0.6793   -5.0132 H   0  0  0  0  0  0  0  0  0  0  0  0
   -0.3743    1.8387   -4.8930 H   0  0  0  0  0  0  0  0  0  0  0  0
   -1.6267    3.5776   -7.7672 H   0  0  0  0  0  0  0  0  0  0  0  0
   -0.4069    3.5359   -6.4847 H   0  0  0  0  0  0  0  0  0  0  0  0
   -1.8304    5.4789   -6.1783 H   0  0  0  0  0  0  0  0  0  0  0  0
   -2.0975    4.3463   -4.8209 H   0  0  0  0  0  0  0  0  0  0  0  0
   -4.9670    4.8512   -7.5311 H   0  0  0  0  0  0  0  0  0  0  0  0
   -3.3552    0.4229   -6.7479 H   0  0  0  0  0  0  0  0  0  0  0  0
   -2.8133    1.3514   -8.1695 H   0  0  0  0  0  0  0  0  0  0  0  0
   -3.9443    2.0709   -7.0199 H   0  0  0  0  0  0  0  0  0  0  0  0
   -5.3766    1.2321   -4.7626 H   0  0  0  0  0  0  0  0  0  0  0  0
   -5.1672    1.7311   -3.0562 H   0  0  0  0  0  0  0  0  0  0  0  0
   -3.8792    2.0642   -4.2531 H   0  0  0  0  0  0  0  0  0  0  0  0
  1  2  2  0
  1  3  1  0
  1  6  1  0
  3  4  2  0
  3 11  1  0
  4  5  1  0
  4  7  1  0
  5  6  1  0
  5 24  1  0
  5 25  1  0
  7  8  1  0
  7  9  2  0
  8 26  1  0
  8 27  1  0
  8 28  1  0
  9 10  1  0
  9 22  1  0
 10 11  2  0
 10 13  1  0
 11 12  1  0
 12 29  1  0
 13 14  1  0
 13 30  1  0
 13 31  1  0
 14 15  2  0
 14 32  1  0
 15 16  1  0
 15 21  1  0
 16 17  1  0
 16 33  1  0
 16 34  1  0
 17 18  1  0
 17 35  1  0
 17 36  1  0
 18 19  2  0
 18 20  1  0
 20 37  1  0
 21 38  1  0
 21 39  1  0
 21 40  1  0
 22 23  1  0
 23 41  1  0
 23 42  1  0
 23 43  1  0
M  END

