43

C         -0.03330        0.01430        0.05980
O          1.17820        0.03260        0.04140
C         -0.95070        0.01960       -1.07230
C         -2.26310       -0.00230       -0.61430
C         -2.18270       -0.02480        0.89300
O         -0.77710       -0.01280        1.20130
C         -3.33880        0.00960       -1.49600
C         -4.77060        0.02200       -1.03240
C         -3.00060        0.03230       -2.87540
C         -1.67390        0.08620       -3.35880
C         -0.62050        0.06710       -2.42850
O          0.66210        0.09400       -2.83470
C         -1.37560        0.14650       -4.84050
C         -1.13180       -1.22030       -5.42680
C         -1.79190       -1.82200       -6.43110
C         -1.40670       -3.23210       -6.83680
C         -2.21780       -4.33480       -6.11720
C         -3.69210       -4.30940       -6.43240
O         -4.57930       -4.03850       -5.65840
O         -3.93630       -4.61170       -7.72540
C         -2.92310       -1.19680       -7.20540
O         -4.00950        0.05340       -3.79890
C         -4.59120       -1.21410       -4.09920
H         -2.65260        0.85560        1.36300
H         -2.63060       -0.92950        1.33680
H         -5.41650        0.49840       -1.78270
H         -4.87510        0.57470       -0.08580
H         -5.15940       -0.99640       -0.85750
H          1.22920        0.08530       -2.03610
H         -0.46520        0.75340       -4.97640
H         -2.20100        0.65720       -5.34920
H         -0.31210       -1.77270       -4.95090
H         -0.34510       -3.40590       -6.60480
H         -1.52350       -3.36230       -7.92530
H         -2.11040       -4.23490       -5.02900
H         -1.82680       -5.31960       -6.42160
H         -4.89940       -4.55530       -7.84930
H         -3.19910       -0.20370       -6.83030
H         -3.82880       -1.82270       -7.17360
H         -2.64910       -1.09840       -8.27030
H         -3.82910       -1.93950       -4.41460
H         -5.13850       -1.62690       -3.23520
H         -5.29680       -1.05650       -4.92460
