rmsd80.gzmat
 OpenBabel08211713373D

 43 44  0  0  0  0  0  0  0  0999 V2000
    0.0000    0.0000    0.0000 C   0  0  0  0  0  0  0  0  0  0  0  0
    1.2006    0.0000    0.0000 O   0  0  0  0  0  0  0  0  0  0  0  0
   -0.9532    0.0000   -1.1079 C   0  0  0  0  0  0  0  0  0  0  0  0
   -2.2610   -0.0037   -0.5787 C   0  0  0  0  0  0  0  0  0  0  0  0
   -2.1279    0.0021    0.9161 C   0  0  0  0  0  0  0  0  0  0  0  0
   -0.7083    0.0019    1.1900 O   0  0  0  0  0  0  0  0  0  0  0  0
   -3.3663   -0.0142   -1.3962 C   0  0  0  0  0  0  0  0  0  0  0  0
   -4.7513   -0.0249   -0.8623 C   0  0  0  0  0  0  0  0  0  0  0  0
   -3.1202   -0.0175   -2.7959 C   0  0  0  0  0  0  0  0  0  0  0  0
   -1.8456   -0.0046   -3.3550 C   0  0  0  0  0  0  0  0  0  0  0  0
   -0.7396   -0.0024   -2.4756 C   0  0  0  0  0  0  0  0  0  0  0  0
    0.4895    0.0008   -3.0202 O   0  0  0  0  0  0  0  0  0  0  0  0
   -1.6263    0.0168   -4.8323 C   0  0  0  0  0  0  0  0  0  0  0  0
   -1.4653    1.4249   -5.3078 C   0  0  0  0  0  0  0  0  0  0  0  0
   -1.9352    1.8985   -6.4690 C   0  0  0  0  0  0  0  0  0  0  0  0
   -1.7396    3.3467   -6.8245 C   0  0  0  0  0  0  0  0  0  0  0  0
   -2.8360    4.2092   -6.1820 C   0  0  0  0  0  0  0  0  0  0  0  0
   -4.1383    3.9841   -6.8798 C   0  0  0  0  0  0  0  0  0  0  0  0
   -4.3920    4.0251   -8.0540 O   0  0  0  0  0  0  0  0  0  0  0  0
   -5.1221    3.7126   -5.9761 O   0  0  0  0  0  0  0  0  0  0  0  0
   -2.6597    1.0769   -7.4777 C   0  0  0  0  0  0  0  0  0  0  0  0
   -4.2033   -0.1573   -3.6265 O   0  0  0  0  0  0  0  0  0  0  0  0
   -4.7342    1.0903   -4.0699 C   0  0  0  0  0  0  0  0  0  0  0  0
   -2.5261    0.9128    1.3961 H   0  0  0  0  0  0  0  0  0  0  0  0
   -2.5288   -0.9029    1.4053 H   0  0  0  0  0  0  0  0  0  0  0  0
   -5.1089    0.9943   -0.6518 H   0  0  0  0  0  0  0  0  0  0  0  0
   -4.8340   -0.6015    0.0697 H   0  0  0  0  0  0  0  0  0  0  0  0
   -5.4617   -0.4745   -1.5763 H   0  0  0  0  0  0  0  0  0  0  0  0
    1.1976   -0.0188   -2.3053 H   0  0  0  0  0  0  0  0  0  0  0  0
   -2.4619   -0.5049   -5.3520 H   0  0  0  0  0  0  0  0  0  0  0  0
   -0.7124   -0.5671   -5.1013 H   0  0  0  0  0  0  0  0  0  0  0  0
   -0.9098    2.0645   -4.6203 H   0  0  0  0  0  0  0  0  0  0  0  0
   -1.7369    3.4900   -7.9265 H   0  0  0  0  0  0  0  0  0  0  0  0
   -0.7444    3.7020   -6.4850 H   0  0  0  0  0  0  0  0  0  0  0  0
   -2.5705    5.2868   -6.2520 H   0  0  0  0  0  0  0  0  0  0  0  0
   -2.9177    3.9868   -5.0947 H   0  0  0  0  0  0  0  0  0  0  0  0
   -6.0118    3.5847   -6.3853 H   0  0  0  0  0  0  0  0  0  0  0  0
   -3.2895    0.3017   -7.0178 H   0  0  0  0  0  0  0  0  0  0  0  0
   -1.9498    0.5621   -8.1432 H   0  0  0  0  0  0  0  0  0  0  0  0
   -3.3178    1.6795   -8.1215 H   0  0  0  0  0  0  0  0  0  0  0  0
   -5.5604    0.7778   -4.7194 H   0  0  0  0  0  0  0  0  0  0  0  0
   -5.1022    1.6745   -3.2228 H   0  0  0  0  0  0  0  0  0  0  0  0
   -3.9870    1.6534   -4.6428 H   0  0  0  0  0  0  0  0  0  0  0  0
  1  6  1  0  0  0  0
  2  1  2  0  0  0  0
  3  4  1  0  0  0  0
  3  1  1  0  0  0  0
  4  5  1  0  0  0  0
  5  6  1  0  0  0  0
  5 24  1  0  0  0  0
  5 25  1  0  0  0  0
  7  8  1  0  0  0  0
  7  4  2  0  0  0  0
  8 26  1  0  0  0  0
  8 27  1  0  0  0  0
  9  7  1  0  0  0  0
 10  9  2  0  0  0  0
 10 11  1  0  0  0  0
 11  3  2  0  0  0  0
 12 11  1  0  0  0  0
 12 29  1  0  0  0  0
 13 10  1  0  0  0  0
 14 13  1  0  0  0  0
 14 32  1  0  0  0  0
 15 14  2  0  0  0  0
 16 34  1  0  0  0  0
 16 15  1  0  0  0  0
 16 17  1  0  0  0  0
 17 36  1  0  0  0  0
 18 17  1  0  0  0  0
 18 20  1  0  0  0  0
 19 18  2  0  0  0  0
 21 38  1  0  0  0  0
 21 15  1  0  0  0  0
 22  9  1  0  0  0  0
 23 22  1  0  0  0  0
 23 42  1  0  0  0  0
 28  8  1  0  0  0  0
 30 13  1  0  0  0  0
 31 13  1  0  0  0  0
 33 16  1  0  0  0  0
 35 17  1  0  0  0  0
 37 20  1  0  0  0  0
 39 21  1  0  0  0  0
 40 21  1  0  0  0  0
 41 23  1  0  0  0  0
 43 23  1  0  0  0  0
M  END
$$$$
