43
rmsd80.gzmat
C          0.00000        0.00000        0.00000
O          1.20060        0.00000        0.00000
C         -0.95320        0.00000       -1.10790
C         -2.26100       -0.00370       -0.57870
C         -2.12790        0.00210        0.91610
O         -0.70830        0.00190        1.19000
C         -3.36630       -0.01420       -1.39620
C         -4.75130       -0.02490       -0.86230
C         -3.12020       -0.01750       -2.79590
C         -1.84560       -0.00460       -3.35500
C         -0.73960       -0.00240       -2.47560
O          0.48950        0.00080       -3.02020
C         -1.62630        0.01680       -4.83230
C         -1.46530        1.42490       -5.30780
C         -1.93520        1.89850       -6.46900
C         -1.73960        3.34670       -6.82450
C         -2.83600        4.20920       -6.18200
C         -4.13830        3.98410       -6.87980
O         -4.39200        4.02510       -8.05400
O         -5.12210        3.71260       -5.97610
C         -2.65970        1.07690       -7.47770
O         -4.20330       -0.15730       -3.62650
C         -4.73420        1.09030       -4.06990
H         -2.52610        0.91280        1.39610
H         -2.52880       -0.90290        1.40530
H         -5.10890        0.99430       -0.65180
H         -4.83400       -0.60150        0.06970
H         -5.46170       -0.47450       -1.57630
H          1.19760       -0.01880       -2.30530
H         -2.46190       -0.50490       -5.35200
H         -0.71240       -0.56710       -5.10130
H         -0.90980        2.06450       -4.62030
H         -1.73690        3.49000       -7.92650
H         -0.74440        3.70200       -6.48500
H         -2.57050        5.28680       -6.25200
H         -2.91770        3.98680       -5.09470
H         -6.01180        3.58470       -6.38530
H         -3.28950        0.30170       -7.01780
H         -1.94980        0.56210       -8.14320
H         -3.31780        1.67950       -8.12150
H         -5.56040        0.77780       -4.71940
H         -5.10220        1.67450       -3.22280
H         -3.98700        1.65340       -4.64280
