43
rmsd18.gzmat
C          0.00000        0.00000        0.00000
O          1.20080        0.00000        0.00000
C         -0.95370        0.00000       -1.10650
C         -2.26100        0.00350       -0.57490
C         -2.12630        0.00030        0.91950
O         -0.70650        0.00230        1.19130
C         -3.36760        0.00940       -1.38990
C         -4.75230        0.02280       -0.85560
C         -3.12570        0.00340       -2.79070
C         -1.85170       -0.01340       -3.35210
C         -0.74410       -0.00860       -2.47490
O          0.48410       -0.01050       -3.02310
C         -1.63430       -0.04400       -4.82920
C         -1.34170        1.32830       -5.34400
C         -1.82630        1.84130       -6.48200
C         -1.46440        3.24220       -6.89340
C         -2.23580        4.28150       -6.06600
C         -3.70160        4.19080       -6.34950
O         -4.57430        3.70570       -5.67720
O         -3.99820        4.77560       -7.54000
C         -2.71800        1.10740       -7.42320
O         -4.22040       -0.10330       -3.60810
C         -4.66360        1.15830       -4.11110
H         -2.52710        0.90540        1.40760
H         -2.52400       -0.91020        1.40150
H         -5.06880        1.04240       -0.58770
H         -4.85830       -0.60460        0.04010
H         -5.48120       -0.35450       -1.59290
H          1.19280       -0.02490       -2.30920
H         -2.51360       -0.50280       -5.33590
H         -0.77770       -0.71650       -5.08030
H         -0.67040        1.90500       -4.70510
H         -1.65460        3.40570       -7.97480
H         -0.37360        3.40860       -6.76690
H         -1.86360        5.30270       -6.29920
H         -2.05890        4.11830       -4.97990
H         -4.95910        4.74570       -7.76980
H         -3.33660        0.35020       -6.91760
H         -2.12730        0.58040       -8.18750
H         -3.41230        1.77640       -7.95000
H         -4.92540        1.83530       -3.29380
H         -3.89990        1.60820       -4.75760
H         -5.55220        0.88490       -4.69130
