rmsd148.gzmat
 OpenBabel08211713373D

 43 44  0  0  0  0  0  0  0  0999 V2000
    0.0000    0.0000    0.0000 C   0  0  0  0  0  0  0  0  0  0  0  0
    1.2013    0.0000    0.0000 O   0  0  0  0  0  0  0  0  0  0  0  0
   -0.9533    0.0000   -1.1020 C   0  0  0  0  0  0  0  0  0  0  0  0
   -2.2627    0.0075   -0.5714 C   0  0  0  0  0  0  0  0  0  0  0  0
   -2.1249   -0.0067    0.9238 C   0  0  0  0  0  0  0  0  0  0  0  0
   -0.7051    0.0021    1.1936 O   0  0  0  0  0  0  0  0  0  0  0  0
   -3.3622    0.0334   -1.3861 C   0  0  0  0  0  0  0  0  0  0  0  0
   -4.7552    0.0554   -0.8723 C   0  0  0  0  0  0  0  0  0  0  0  0
   -3.1303    0.0382   -2.8024 C   0  0  0  0  0  0  0  0  0  0  0  0
   -1.8529   -0.0231   -3.3580 C   0  0  0  0  0  0  0  0  0  0  0  0
   -0.7513   -0.0172   -2.4704 C   0  0  0  0  0  0  0  0  0  0  0  0
    0.4797   -0.0417   -3.0125 O   0  0  0  0  0  0  0  0  0  0  0  0
   -1.5587   -0.1503   -4.8178 C   0  0  0  0  0  0  0  0  0  0  0  0
   -1.3607    1.1848   -5.4589 C   0  0  0  0  0  0  0  0  0  0  0  0
   -1.6094    1.4614   -6.7451 C   0  0  0  0  0  0  0  0  0  0  0  0
   -1.4018    2.8553   -7.2731 C   0  0  0  0  0  0  0  0  0  0  0  0
   -2.5116    3.8024   -6.7891 C   0  0  0  0  0  0  0  0  0  0  0  0
   -3.8343    3.3525   -7.3237 C   0  0  0  0  0  0  0  0  0  0  0  0
   -4.6719    2.6679   -6.7945 O   0  0  0  0  0  0  0  0  0  0  0  0
   -4.0343    3.8344   -8.5779 O   0  0  0  0  0  0  0  0  0  0  0  0
   -2.1163    0.4783   -7.7433 C   0  0  0  0  0  0  0  0  0  0  0  0
   -4.3024    0.0248   -3.4753 O   0  0  0  0  0  0  0  0  0  0  0  0
   -4.4015    0.7411   -4.7031 C   0  0  0  0  0  0  0  0  0  0  0  0
   -2.5316    0.8901    1.4218 H   0  0  0  0  0  0  0  0  0  0  0  0
   -2.5145   -0.9264    1.3952 H   0  0  0  0  0  0  0  0  0  0  0  0
   -5.3524    0.8406   -1.3649 H   0  0  0  0  0  0  0  0  0  0  0  0
   -4.8102    0.2324    0.2086 H   0  0  0  0  0  0  0  0  0  0  0  0
   -5.2691   -0.8974   -1.0801 H   0  0  0  0  0  0  0  0  0  0  0  0
    1.1874   -0.0496   -2.2971 H   0  0  0  0  0  0  0  0  0  0  0  0
   -2.3481   -0.7478   -5.3218 H   0  0  0  0  0  0  0  0  0  0  0  0
   -0.6265   -0.7549   -4.9650 H   0  0  0  0  0  0  0  0  0  0  0  0
   -0.9694    1.9478   -4.7841 H   0  0  0  0  0  0  0  0  0  0  0  0
   -1.3570    2.8643   -8.3820 H   0  0  0  0  0  0  0  0  0  0  0  0
   -0.4156    3.2465   -6.9445 H   0  0  0  0  0  0  0  0  0  0  0  0
   -2.2941    4.8419   -7.1173 H   0  0  0  0  0  0  0  0  0  0  0  0
   -2.5449    3.8219   -5.6775 H   0  0  0  0  0  0  0  0  0  0  0  0
   -4.8974    3.5623   -8.9762 H   0  0  0  0  0  0  0  0  0  0  0  0
   -2.0971   -0.5577   -7.3807 H   0  0  0  0  0  0  0  0  0  0  0  0
   -1.5200    0.4950   -8.6667 H   0  0  0  0  0  0  0  0  0  0  0  0
   -3.1578    0.7039   -8.0213 H   0  0  0  0  0  0  0  0  0  0  0  0
   -5.4626    1.0251   -4.7308 H   0  0  0  0  0  0  0  0  0  0  0  0
   -3.7712    1.6348   -4.7221 H   0  0  0  0  0  0  0  0  0  0  0  0
   -4.1646    0.0738   -5.5358 H   0  0  0  0  0  0  0  0  0  0  0  0
  1  2  2  0  0  0  0
  1  6  1  0  0  0  0
  3  4  1  0  0  0  0
  3  1  1  0  0  0  0
  4  5  1  0  0  0  0
  5  6  1  0  0  0  0
  5 25  1  0  0  0  0
  5 24  1  0  0  0  0
  7  8  1  0  0  0  0
  7  4  2  0  0  0  0
  8 27  1  0  0  0  0
  9  7  1  0  0  0  0
 10  9  2  0  0  0  0
 10 11  1  0  0  0  0
 11  3  2  0  0  0  0
 12 11  1  0  0  0  0
 12 29  1  0  0  0  0
 13 10  1  0  0  0  0
 14 13  1  0  0  0  0
 14 32  1  0  0  0  0
 15 14  2  0  0  0  0
 16 34  1  0  0  0  0
 16 17  1  0  0  0  0
 16 15  1  0  0  0  0
 17 36  1  0  0  0  0
 18 19  2  0  0  0  0
 18 17  1  0  0  0  0
 20 18  1  0  0  0  0
 21 38  1  0  0  0  0
 21 15  1  0  0  0  0
 22  9  1  0  0  0  0
 23 22  1  0  0  0  0
 26  8  1  0  0  0  0
 28  8  1  0  0  0  0
 30 13  1  0  0  0  0
 31 13  1  0  0  0  0
 33 16  1  0  0  0  0
 35 17  1  0  0  0  0
 37 20  1  0  0  0  0
 39 21  1  0  0  0  0
 40 21  1  0  0  0  0
 41 23  1  0  0  0  0
 42 23  1  0  0  0  0
 43 23  1  0  0  0  0
M  END
$$$$
