43
rmsd54.gzmat
C          0.00000        0.00000        0.00000
O          1.20090        0.00000        0.00000
C         -0.95380        0.00000       -1.10620
C         -2.26200        0.00090       -0.57470
C         -2.12620        0.00560        0.91980
O         -0.70620       -0.00170        1.19120
C         -3.36580       -0.00400       -1.39150
C         -4.75900        0.01000       -0.88040
C         -3.12380       -0.00510       -2.79420
C         -1.84980        0.01040       -3.35410
C         -0.74360        0.00660       -2.47390
O          0.48530        0.00880       -3.02130
C         -1.61740        0.04280       -4.82930
C         -1.30280       -1.32830       -5.33490
C         -1.75830       -1.85940       -6.47640
C         -1.39360       -3.27200       -6.84730
C         -2.16840       -4.28660       -5.99160
C         -3.63300       -4.18920       -6.27800
O         -4.49850       -3.66520       -5.62530
O         -3.93840       -4.80650       -7.44970
C         -2.62990       -1.15700       -7.45870
O         -4.23210        0.09890       -3.59070
C         -4.61340       -1.13840       -4.19490
H         -2.51910        0.91890        1.40010
H         -2.53010       -0.89720        1.40970
H         -5.24140        0.98110       -1.08300
H         -4.82270       -0.17290        0.19880
H         -5.38140       -0.74910       -1.38100
H          1.19400        0.02490       -2.30760
H         -0.76410        0.72420       -5.06830
H         -2.49460        0.49250       -5.34640
H         -0.64300       -1.89680       -4.67500
H         -0.30340       -3.43480       -6.71300
H         -1.58190       -3.46670       -7.92360
H         -1.98940       -4.09710       -4.90990
H         -1.80260       -5.31540       -6.19830
H         -4.89840       -4.76590       -7.68190
H         -3.02390       -0.20250       -7.08230
H         -3.49980       -1.76850       -7.73950
H         -2.07690       -0.93050       -8.38240
H         -3.82690       -1.51210       -4.86070
H         -4.85510       -1.88500       -3.43360
H         -5.50560       -0.85950       -4.76640
