43
rmsd88.gzmat
C          0.00000        0.00000        0.00000
O          1.20090        0.00000        0.00000
C         -0.95340        0.00000       -1.10690
C         -2.26100        0.00370       -0.57620
C         -2.12660        0.00040        0.91830
O         -0.70700        0.00330        1.19080
C         -3.36690        0.00790       -1.39240
C         -4.75290        0.01620       -0.86120
C         -3.12300        0.00310       -2.79290
C         -1.84880       -0.01210       -3.35340
C         -0.74190       -0.01050       -2.47490
O          0.48730       -0.01540       -3.02120
C         -1.62970       -0.03020       -4.83100
C         -1.31110        1.34770       -5.31580
C         -1.88550        1.95940       -6.35860
C         -1.49450        3.37100       -6.70730
C         -2.15670        4.37660       -5.75210
C         -3.62950        4.43200       -6.00580
O         -4.52310        3.87390       -5.42320
O         -3.90410        5.25700       -7.04990
C         -2.92390        1.35980       -7.24130
O         -4.21100       -0.10120       -3.62050
C         -4.69500        1.17050       -4.05630
H         -2.52800        0.90480        1.40710
H         -2.52420       -0.91060        1.39970
H         -5.08750        1.03890       -0.62970
H         -4.85180       -0.58040        0.05580
H         -5.47230       -0.39920       -1.58730
H          1.19510       -0.03180       -2.30660
H         -2.51660       -0.46360       -5.34550
H         -0.78420       -0.71400       -5.08730
H         -0.53710        1.84690       -4.72770
H         -1.75870        3.61520       -7.75710
H         -0.39120        3.48800       -6.65630
H         -1.70380        5.38300       -5.88550
H         -1.97240        4.08400       -4.69450
H         -4.86720        5.33110       -7.25690
H         -3.25170        0.36460       -6.90890
H         -2.55330        1.24500       -8.26980
H         -3.82600        1.98860       -7.28420
H         -5.52780        0.89760       -4.71450
H         -5.04490        1.76320       -3.20720
H         -3.92090        1.71140       -4.61510
