43
rmsd149.gzmat
C          0.00000        0.00000        0.00000
O          1.20090        0.00000        0.00000
C         -0.95570        0.00000       -1.10520
C         -2.26220       -0.00050       -0.57120
C         -2.12540       -0.00050        0.92290
O         -0.70490        0.00170        1.19240
C         -3.37090        0.00150       -1.38300
C         -4.75510        0.01260       -0.84780
C         -3.13210        0.00040       -2.78420
C         -1.85990       -0.00200       -3.34820
C         -0.74940       -0.00160       -2.47400
O          0.47650        0.00220       -3.02700
C         -1.64590        0.00860       -4.82620
C         -1.34390        1.39850       -5.28690
C         -1.80870        1.94710       -6.41620
C         -1.46370        3.36720       -6.76460
C         -2.65520        4.30070       -6.50150
C         -2.93150        4.39410       -5.03320
O         -3.88030        3.98070       -4.41780
O         -1.93780        5.06640       -4.39850
C         -2.67100        1.22280       -7.39370
O         -4.22540       -0.11210       -3.60400
C         -4.70240        1.15310       -4.06430
H         -2.52620        0.90640        1.40800
H         -2.52270       -0.90900        1.40860
H         -5.10650        1.04140       -0.67400
H         -4.84120       -0.53260        0.10160
H         -5.46810       -0.45190       -1.54970
H          1.18830       -0.00680       -2.31630
H         -2.53010       -0.42180       -5.34730
H         -0.79460       -0.66160       -5.09960
H         -0.68920        1.95570       -4.61330
H         -1.16100        3.43790       -7.82960
H         -0.57860        3.71890       -6.19040
H         -3.56270        3.93150       -7.02670
H         -2.44290        5.31180       -6.91130
H         -2.06720        5.13630       -3.42050
H         -3.56640        0.79970       -6.91290
H         -2.12530        0.38300       -7.85090
H         -3.02030        1.86120       -8.21390
H         -5.58380        0.87740       -4.65250
H         -4.97560        1.79950       -3.22460
H         -3.94690        1.64350       -4.68970
