rmsd18.gzmat
 OpenBabel08211713373D

 43 44  0  0  0  0  0  0  0  0999 V2000
    0.0000    0.0000    0.0000 C   0  0  0  0  0  0  0  0  0  0  0  0
    1.2008    0.0000    0.0000 O   0  0  0  0  0  0  0  0  0  0  0  0
   -0.9537    0.0000   -1.1065 C   0  0  0  0  0  0  0  0  0  0  0  0
   -2.2610    0.0035   -0.5749 C   0  0  0  0  0  0  0  0  0  0  0  0
   -2.1263    0.0003    0.9195 C   0  0  0  0  0  0  0  0  0  0  0  0
   -0.7065    0.0023    1.1913 O   0  0  0  0  0  0  0  0  0  0  0  0
   -3.3676    0.0094   -1.3899 C   0  0  0  0  0  0  0  0  0  0  0  0
   -4.7523    0.0228   -0.8556 C   0  0  0  0  0  0  0  0  0  0  0  0
   -3.1257    0.0034   -2.7907 C   0  0  0  0  0  0  0  0  0  0  0  0
   -1.8517   -0.0134   -3.3521 C   0  0  0  0  0  0  0  0  0  0  0  0
   -0.7441   -0.0086   -2.4749 C   0  0  0  0  0  0  0  0  0  0  0  0
    0.4841   -0.0105   -3.0231 O   0  0  0  0  0  0  0  0  0  0  0  0
   -1.6343   -0.0440   -4.8292 C   0  0  0  0  0  0  0  0  0  0  0  0
   -1.3417    1.3283   -5.3440 C   0  0  0  0  0  0  0  0  0  0  0  0
   -1.8263    1.8413   -6.4820 C   0  0  0  0  0  0  0  0  0  0  0  0
   -1.4644    3.2422   -6.8934 C   0  0  0  0  0  0  0  0  0  0  0  0
   -2.2358    4.2815   -6.0660 C   0  0  0  0  0  0  0  0  0  0  0  0
   -3.7016    4.1908   -6.3495 C   0  0  0  0  0  0  0  0  0  0  0  0
   -4.5743    3.7057   -5.6772 O   0  0  0  0  0  0  0  0  0  0  0  0
   -3.9982    4.7756   -7.5400 O   0  0  0  0  0  0  0  0  0  0  0  0
   -2.7180    1.1074   -7.4232 C   0  0  0  0  0  0  0  0  0  0  0  0
   -4.2204   -0.1033   -3.6081 O   0  0  0  0  0  0  0  0  0  0  0  0
   -4.6636    1.1583   -4.1111 C   0  0  0  0  0  0  0  0  0  0  0  0
   -2.5271    0.9054    1.4076 H   0  0  0  0  0  0  0  0  0  0  0  0
   -2.5240   -0.9102    1.4015 H   0  0  0  0  0  0  0  0  0  0  0  0
   -5.0688    1.0424   -0.5877 H   0  0  0  0  0  0  0  0  0  0  0  0
   -4.8583   -0.6046    0.0401 H   0  0  0  0  0  0  0  0  0  0  0  0
   -5.4812   -0.3545   -1.5929 H   0  0  0  0  0  0  0  0  0  0  0  0
    1.1928   -0.0249   -2.3092 H   0  0  0  0  0  0  0  0  0  0  0  0
   -2.5136   -0.5028   -5.3359 H   0  0  0  0  0  0  0  0  0  0  0  0
   -0.7777   -0.7165   -5.0803 H   0  0  0  0  0  0  0  0  0  0  0  0
   -0.6704    1.9050   -4.7051 H   0  0  0  0  0  0  0  0  0  0  0  0
   -1.6546    3.4057   -7.9748 H   0  0  0  0  0  0  0  0  0  0  0  0
   -0.3736    3.4086   -6.7669 H   0  0  0  0  0  0  0  0  0  0  0  0
   -1.8636    5.3027   -6.2992 H   0  0  0  0  0  0  0  0  0  0  0  0
   -2.0589    4.1183   -4.9799 H   0  0  0  0  0  0  0  0  0  0  0  0
   -4.9591    4.7457   -7.7698 H   0  0  0  0  0  0  0  0  0  0  0  0
   -3.3366    0.3502   -6.9176 H   0  0  0  0  0  0  0  0  0  0  0  0
   -2.1273    0.5804   -8.1875 H   0  0  0  0  0  0  0  0  0  0  0  0
   -3.4123    1.7764   -7.9500 H   0  0  0  0  0  0  0  0  0  0  0  0
   -4.9254    1.8353   -3.2938 H   0  0  0  0  0  0  0  0  0  0  0  0
   -3.8999    1.6082   -4.7576 H   0  0  0  0  0  0  0  0  0  0  0  0
   -5.5522    0.8849   -4.6913 H   0  0  0  0  0  0  0  0  0  0  0  0
  1  6  1  0  0  0  0
  2  1  2  0  0  0  0
  3  4  1  0  0  0  0
  3  1  1  0  0  0  0
  4  5  1  0  0  0  0
  5  6  1  0  0  0  0
  5 25  1  0  0  0  0
  5 24  1  0  0  0  0
  7  8  1  0  0  0  0
  7  4  2  0  0  0  0
  8 26  1  0  0  0  0
  8 27  1  0  0  0  0
  9  7  1  0  0  0  0
 10  9  2  0  0  0  0
 10 11  1  0  0  0  0
 11  3  2  0  0  0  0
 12 11  1  0  0  0  0
 12 29  1  0  0  0  0
 13 10  1  0  0  0  0
 14 13  1  0  0  0  0
 14 32  1  0  0  0  0
 15 14  2  0  0  0  0
 16 34  1  0  0  0  0
 16 15  1  0  0  0  0
 16 17  1  0  0  0  0
 17 36  1  0  0  0  0
 18 17  1  0  0  0  0
 18 19  2  0  0  0  0
 20 18  1  0  0  0  0
 21 38  1  0  0  0  0
 21 15  1  0  0  0  0
 22  9  1  0  0  0  0
 23 22  1  0  0  0  0
 23 41  1  0  0  0  0
 28  8  1  0  0  0  0
 30 13  1  0  0  0  0
 31 13  1  0  0  0  0
 33 16  1  0  0  0  0
 35 17  1  0  0  0  0
 37 20  1  0  0  0  0
 39 21  1  0  0  0  0
 40 21  1  0  0  0  0
 42 23  1  0  0  0  0
 43 23  1  0  0  0  0
M  END
$$$$
