rmsd149.gzmat
 OpenBabel08211713373D

 43 44  0  0  0  0  0  0  0  0999 V2000
    0.0000    0.0000    0.0000 C   0  0  0  0  0  0  0  0  0  0  0  0
    1.2009    0.0000    0.0000 O   0  0  0  0  0  0  0  0  0  0  0  0
   -0.9557    0.0000   -1.1052 C   0  0  0  0  0  0  0  0  0  0  0  0
   -2.2622   -0.0005   -0.5712 C   0  0  0  0  0  0  0  0  0  0  0  0
   -2.1254   -0.0005    0.9229 C   0  0  0  0  0  0  0  0  0  0  0  0
   -0.7049    0.0017    1.1924 O   0  0  0  0  0  0  0  0  0  0  0  0
   -3.3709    0.0015   -1.3830 C   0  0  0  0  0  0  0  0  0  0  0  0
   -4.7551    0.0126   -0.8478 C   0  0  0  0  0  0  0  0  0  0  0  0
   -3.1321    0.0004   -2.7842 C   0  0  0  0  0  0  0  0  0  0  0  0
   -1.8599   -0.0020   -3.3482 C   0  0  0  0  0  0  0  0  0  0  0  0
   -0.7494   -0.0016   -2.4740 C   0  0  0  0  0  0  0  0  0  0  0  0
    0.4765    0.0022   -3.0270 O   0  0  0  0  0  0  0  0  0  0  0  0
   -1.6459    0.0086   -4.8262 C   0  0  0  0  0  0  0  0  0  0  0  0
   -1.3439    1.3985   -5.2869 C   0  0  0  0  0  0  0  0  0  0  0  0
   -1.8087    1.9471   -6.4162 C   0  0  0  0  0  0  0  0  0  0  0  0
   -1.4637    3.3672   -6.7646 C   0  0  0  0  0  0  0  0  0  0  0  0
   -2.6552    4.3007   -6.5015 C   0  0  0  0  0  0  0  0  0  0  0  0
   -2.9315    4.3941   -5.0332 C   0  0  0  0  0  0  0  0  0  0  0  0
   -3.8803    3.9807   -4.4178 O   0  0  0  0  0  0  0  0  0  0  0  0
   -1.9378    5.0664   -4.3985 O   0  0  0  0  0  0  0  0  0  0  0  0
   -2.6710    1.2228   -7.3937 C   0  0  0  0  0  0  0  0  0  0  0  0
   -4.2254   -0.1121   -3.6040 O   0  0  0  0  0  0  0  0  0  0  0  0
   -4.7024    1.1531   -4.0643 C   0  0  0  0  0  0  0  0  0  0  0  0
   -2.5262    0.9064    1.4080 H   0  0  0  0  0  0  0  0  0  0  0  0
   -2.5227   -0.9090    1.4086 H   0  0  0  0  0  0  0  0  0  0  0  0
   -5.1065    1.0414   -0.6740 H   0  0  0  0  0  0  0  0  0  0  0  0
   -4.8412   -0.5326    0.1016 H   0  0  0  0  0  0  0  0  0  0  0  0
   -5.4681   -0.4519   -1.5497 H   0  0  0  0  0  0  0  0  0  0  0  0
    1.1883   -0.0068   -2.3163 H   0  0  0  0  0  0  0  0  0  0  0  0
   -2.5301   -0.4218   -5.3473 H   0  0  0  0  0  0  0  0  0  0  0  0
   -0.7946   -0.6616   -5.0996 H   0  0  0  0  0  0  0  0  0  0  0  0
   -0.6892    1.9557   -4.6133 H   0  0  0  0  0  0  0  0  0  0  0  0
   -1.1610    3.4379   -7.8296 H   0  0  0  0  0  0  0  0  0  0  0  0
   -0.5786    3.7189   -6.1904 H   0  0  0  0  0  0  0  0  0  0  0  0
   -3.5627    3.9315   -7.0267 H   0  0  0  0  0  0  0  0  0  0  0  0
   -2.4429    5.3118   -6.9113 H   0  0  0  0  0  0  0  0  0  0  0  0
   -2.0672    5.1363   -3.4205 H   0  0  0  0  0  0  0  0  0  0  0  0
   -3.5664    0.7997   -6.9129 H   0  0  0  0  0  0  0  0  0  0  0  0
   -2.1253    0.3830   -7.8509 H   0  0  0  0  0  0  0  0  0  0  0  0
   -3.0203    1.8612   -8.2139 H   0  0  0  0  0  0  0  0  0  0  0  0
   -5.5838    0.8774   -4.6525 H   0  0  0  0  0  0  0  0  0  0  0  0
   -4.9756    1.7995   -3.2246 H   0  0  0  0  0  0  0  0  0  0  0  0
   -3.9469    1.6435   -4.6897 H   0  0  0  0  0  0  0  0  0  0  0  0
  1  6  1  0  0  0  0
  2  1  2  0  0  0  0
  3  4  1  0  0  0  0
  3  1  1  0  0  0  0
  4  5  1  0  0  0  0
  5  6  1  0  0  0  0
  5 24  1  0  0  0  0
  5 25  1  0  0  0  0
  7  8  1  0  0  0  0
  7  4  2  0  0  0  0
  8 26  1  0  0  0  0
  8 27  1  0  0  0  0
  9  7  1  0  0  0  0
 10  9  2  0  0  0  0
 10 11  1  0  0  0  0
 11  3  2  0  0  0  0
 12 11  1  0  0  0  0
 12 29  1  0  0  0  0
 13 10  1  0  0  0  0
 14 13  1  0  0  0  0
 14 32  1  0  0  0  0
 15 14  2  0  0  0  0
 16 17  1  0  0  0  0
 16 15  1  0  0  0  0
 16 34  1  0  0  0  0
 17 18  1  0  0  0  0
 18 19  2  0  0  0  0
 18 20  1  0  0  0  0
 20 37  1  0  0  0  0
 21 38  1  0  0  0  0
 21 15  1  0  0  0  0
 22  9  1  0  0  0  0
 23 22  1  0  0  0  0
 23 42  1  0  0  0  0
 28  8  1  0  0  0  0
 30 13  1  0  0  0  0
 31 13  1  0  0  0  0
 33 16  1  0  0  0  0
 35 17  1  0  0  0  0
 36 17  1  0  0  0  0
 39 21  1  0  0  0  0
 40 21  1  0  0  0  0
 41 23  1  0  0  0  0
 43 23  1  0  0  0  0
M  END
$$$$
