rmsd75.gzmat
 OpenBabel08211713373D

 43 44  0  0  0  0  0  0  0  0999 V2000
    0.0000    0.0000    0.0000 C   0  0  0  0  0  0  0  0  0  0  0  0
    1.2008    0.0000    0.0000 O   0  0  0  0  0  0  0  0  0  0  0  0
   -0.9536    0.0000   -1.1067 C   0  0  0  0  0  0  0  0  0  0  0  0
   -2.2610    0.0035   -0.5756 C   0  0  0  0  0  0  0  0  0  0  0  0
   -2.1269    0.0030    0.9189 C   0  0  0  0  0  0  0  0  0  0  0  0
   -0.7068    0.0048    1.1913 O   0  0  0  0  0  0  0  0  0  0  0  0
   -3.3679    0.0082   -1.3905 C   0  0  0  0  0  0  0  0  0  0  0  0
   -4.7524    0.0141   -0.8551 C   0  0  0  0  0  0  0  0  0  0  0  0
   -3.1257    0.0084   -2.7912 C   0  0  0  0  0  0  0  0  0  0  0  0
   -1.8513    0.0030   -3.3519 C   0  0  0  0  0  0  0  0  0  0  0  0
   -0.7435   -0.0046   -2.4752 C   0  0  0  0  0  0  0  0  0  0  0  0
    0.4842   -0.0118   -3.0241 O   0  0  0  0  0  0  0  0  0  0  0  0
   -1.6341    0.0112   -4.8295 C   0  0  0  0  0  0  0  0  0  0  0  0
   -1.3974    1.4078   -5.3092 C   0  0  0  0  0  0  0  0  0  0  0  0
   -1.8337    1.8954   -6.4777 C   0  0  0  0  0  0  0  0  0  0  0  0
   -1.5936    3.3377   -6.8292 C   0  0  0  0  0  0  0  0  0  0  0  0
   -2.5850    4.2533   -6.0927 C   0  0  0  0  0  0  0  0  0  0  0  0
   -3.9774    4.0003   -6.5775 C   0  0  0  0  0  0  0  0  0  0  0  0
   -4.8521    3.3528   -6.0618 O   0  0  0  0  0  0  0  0  0  0  0  0
   -4.1987    4.6366   -7.7569 O   0  0  0  0  0  0  0  0  0  0  0  0
   -2.5937    1.0947   -7.4790 C   0  0  0  0  0  0  0  0  0  0  0  0
   -4.2171   -0.0994   -3.6131 O   0  0  0  0  0  0  0  0  0  0  0  0
   -4.6723    1.1648   -4.0980 C   0  0  0  0  0  0  0  0  0  0  0  0
   -2.5282    0.9093    1.4045 H   0  0  0  0  0  0  0  0  0  0  0  0
   -2.5254   -0.9059    1.4030 H   0  0  0  0  0  0  0  0  0  0  0  0
   -5.0655    1.0271   -0.5608 H   0  0  0  0  0  0  0  0  0  0  0  0
   -4.8593   -0.6346    0.0254 H   0  0  0  0  0  0  0  0  0  0  0  0
   -5.4828   -0.3430   -1.6013 H   0  0  0  0  0  0  0  0  0  0  0  0
    1.1939   -0.0321   -2.3115 H   0  0  0  0  0  0  0  0  0  0  0  0
   -2.5015   -0.4613   -5.3445 H   0  0  0  0  0  0  0  0  0  0  0  0
   -0.7543   -0.6235   -5.0958 H   0  0  0  0  0  0  0  0  0  0  0  0
   -0.8231    2.0251   -4.6173 H   0  0  0  0  0  0  0  0  0  0  0  0
   -1.6668    3.5063   -7.9235 H   0  0  0  0  0  0  0  0  0  0  0  0
   -0.5556    3.6318   -6.5648 H   0  0  0  0  0  0  0  0  0  0  0  0
   -2.3088    5.3177   -6.2530 H   0  0  0  0  0  0  0  0  0  0  0  0
   -2.5350    4.0748   -4.9960 H   0  0  0  0  0  0  0  0  0  0  0  0
   -5.1050    4.4914   -8.1239 H   0  0  0  0  0  0  0  0  0  0  0  0
   -2.2552    0.0496   -7.5182 H   0  0  0  0  0  0  0  0  0  0  0  0
   -2.5004    1.4906   -8.4985 H   0  0  0  0  0  0  0  0  0  0  0  0
   -3.6686    1.0799   -7.2331 H   0  0  0  0  0  0  0  0  0  0  0  0
   -5.4879    0.8851   -4.7764 H   0  0  0  0  0  0  0  0  0  0  0  0
   -5.0411    1.7794   -3.2725 H   0  0  0  0  0  0  0  0  0  0  0  0
   -3.8798    1.6832   -4.6515 H   0  0  0  0  0  0  0  0  0  0  0  0
  1  6  1  0  0  0  0
  2  1  2  0  0  0  0
  3  4  1  0  0  0  0
  3  1  1  0  0  0  0
  4  5  1  0  0  0  0
  5  6  1  0  0  0  0
  5 25  1  0  0  0  0
  5 24  1  0  0  0  0
  7  8  1  0  0  0  0
  7  4  2  0  0  0  0
  8 26  1  0  0  0  0
  8 27  1  0  0  0  0
  9  7  1  0  0  0  0
 10  9  2  0  0  0  0
 10 11  1  0  0  0  0
 11  3  2  0  0  0  0
 12 11  1  0  0  0  0
 12 29  1  0  0  0  0
 13 10  1  0  0  0  0
 14 13  1  0  0  0  0
 14 32  1  0  0  0  0
 15 14  2  0  0  0  0
 16 34  1  0  0  0  0
 16 15  1  0  0  0  0
 16 17  1  0  0  0  0
 17 36  1  0  0  0  0
 18 17  1  0  0  0  0
 18 19  2  0  0  0  0
 20 18  1  0  0  0  0
 21 40  1  0  0  0  0
 21 15  1  0  0  0  0
 22  9  1  0  0  0  0
 23 22  1  0  0  0  0
 23 42  1  0  0  0  0
 28  8  1  0  0  0  0
 30 13  1  0  0  0  0
 31 13  1  0  0  0  0
 33 16  1  0  0  0  0
 35 17  1  0  0  0  0
 37 20  1  0  0  0  0
 38 21  1  0  0  0  0
 39 21  1  0  0  0  0
 41 23  1  0  0  0  0
 43 23  1  0  0  0  0
M  END
$$$$
