21
rmsd10.gzmat
O          0.00000        0.00000        0.00000
C          1.24600        0.00000        0.00000
O          2.02020        0.00000        0.96320
C          1.92390       -0.03880       -1.41430
H          1.40020       -0.76400       -2.06760
O          3.23410       -0.55950       -1.28070
C          2.01620        1.35160       -2.08070
C          2.96950        2.25040       -1.27970
C          2.55660        1.16240       -3.50860
C          0.62570        2.03730       -2.14680
O         -0.40960        1.11150       -2.35170
H          3.50770       -0.45600       -0.33280
H          2.99180        3.26880       -1.66700
H          3.98810        1.84690       -1.30490
H          2.67230        2.28080       -0.22090
H          2.78840        2.11550       -3.98480
H          1.81990        0.63890       -4.12820
H          3.47020        0.55560       -3.49030
H          0.55440        2.72120       -3.00770
H          0.41740        2.59470       -1.21480
H         -0.49430        0.55840       -1.49410
