rmsd56.gzmat
 OpenBabel08211713363D

 21 20  0  0  1  0  0  0  0  0999 V2000
    0.0000    0.0000    0.0000 O   0  0  0  0  0  0  0  0  0  0  0  0
    1.2366    0.0000    0.0000 C   0  0  0  0  0  0  0  0  0  0  0  0
    2.0086    0.0000    0.9764 O   0  0  0  0  0  0  0  0  0  0  0  0
    1.9025    0.0507   -1.4225 C   0  0  2  0  0  0  0  0  0  0  0  0
    2.5086    0.9730   -1.5098 H   0  0  0  0  0  0  0  0  0  0  0  0
    0.8822    0.1922   -2.3937 O   0  0  0  0  0  0  0  0  0  0  0  0
    2.7378   -1.2042   -1.7657 C   0  0  0  0  0  0  0  0  0  0  0  0
    2.0970   -2.4634   -1.1793 C   0  0  0  0  0  0  0  0  0  0  0  0
    2.8350   -1.3375   -3.2971 C   0  0  0  0  0  0  0  0  0  0  0  0
    4.1831   -1.0424   -1.2268 C   0  0  0  0  0  0  0  0  0  0  0  0
    4.2731   -1.0776    0.1678 O   0  0  0  0  0  0  0  0  0  0  0  0
    0.0041    0.0959   -1.9330 H   0  0  0  0  0  0  0  0  0  0  0  0
    2.6310   -3.3683   -1.4732 H   0  0  0  0  0  0  0  0  0  0  0  0
    1.0510   -2.5486   -1.4946 H   0  0  0  0  0  0  0  0  0  0  0  0
    2.1039   -2.4212   -0.0778 H   0  0  0  0  0  0  0  0  0  0  0  0
    3.4300   -2.2032   -3.5902 H   0  0  0  0  0  0  0  0  0  0  0  0
    3.2702   -0.4400   -3.7447 H   0  0  0  0  0  0  0  0  0  0  0  0
    1.8308   -1.4486   -3.7283 H   0  0  0  0  0  0  0  0  0  0  0  0
    4.6264   -0.0895   -1.5693 H   0  0  0  0  0  0  0  0  0  0  0  0
    4.8230   -1.8792   -1.5572 H   0  0  0  0  0  0  0  0  0  0  0  0
    3.4487   -0.6339    0.5880 H   0  0  0  0  0  0  0  0  0  0  0  0
  1  2  2  0  0  0  0
  2  3  1  0  0  0  0
  4  5  1  6  0  0  0
  4  2  1  0  0  0  0
  6 12  1  0  0  0  0
  6  4  1  0  0  0  0
  7  4  1  0  0  0  0
  7 10  1  0  0  0  0
  7  8  1  0  0  0  0
  8 15  1  0  0  0  0
  9  7  1  0  0  0  0
 10 11  1  0  0  0  0
 11 21  1  0  0  0  0
 13  8  1  0  0  0  0
 14  8  1  0  0  0  0
 16  9  1  0  0  0  0
 17  9  1  0  0  0  0
 18  9  1  0  0  0  0
 19 10  1  0  0  0  0
 20 10  1  0  0  0  0
M  RAD  1   3   2
M  END
$$$$
