21
rmsd32.gzmat
O          0.00000        0.00000        0.00000
C          1.23610        0.00000        0.00000
O          2.01680        0.00000        0.97100
C          1.91100        0.03460       -1.41580
H          2.75010        0.75770       -1.42110
O          0.98450        0.55480       -2.35160
C          2.36860       -1.35830       -1.90250
C          1.14670       -2.26070       -2.13040
C          3.13460       -1.17150       -3.22330
C          3.29520       -2.03720       -0.85950
O          4.10730       -1.10700       -0.19160
H          0.07560        0.45960       -1.96490
H          1.43220       -3.28990       -2.34900
H          0.54140       -1.88330       -2.96180
H          0.49460       -2.25730       -1.24360
H          3.37810       -2.12600       -3.69050
H          4.06860       -0.62510       -3.04930
H          2.53500       -0.58370       -3.92930
H          4.00690       -2.72710       -1.33950
H          2.70030       -2.58590       -0.10580
H          3.49510       -0.55140        0.41250
