rmsd63.gzmat
 OpenBabel08211713363D

 21 20  0  0  1  0  0  0  0  0999 V2000
    0.0000    0.0000    0.0000 O   0  0  0  0  0  0  0  0  0  0  0  0
    1.2366    0.0000    0.0000 C   0  0  0  0  0  0  0  0  0  0  0  0
    2.0083    0.0000    0.9768 O   0  0  0  0  0  0  0  0  0  0  0  0
    1.9022    0.0412   -1.4222 C   0  0  2  0  0  0  0  0  0  0  0  0
    2.5152    0.9583   -1.5175 H   0  0  0  0  0  0  0  0  0  0  0  0
    0.8824    0.1836   -2.3941 O   0  0  0  0  0  0  0  0  0  0  0  0
    2.7283   -1.2233   -1.7532 C   0  0  0  0  0  0  0  0  0  0  0  0
    2.0811   -2.4741   -1.1546 C   0  0  0  0  0  0  0  0  0  0  0  0
    2.8186   -1.3706   -3.2836 C   0  0  0  0  0  0  0  0  0  0  0  0
    4.1750   -1.0650   -1.2163 C   0  0  0  0  0  0  0  0  0  0  0  0
    4.2656   -1.1020    0.1785 O   0  0  0  0  0  0  0  0  0  0  0  0
    0.0043    0.0806   -1.9345 H   0  0  0  0  0  0  0  0  0  0  0  0
    2.5867   -3.3861   -1.4747 H   0  0  0  0  0  0  0  0  0  0  0  0
    1.0236   -2.5370   -1.4352 H   0  0  0  0  0  0  0  0  0  0  0  0
    2.1241   -2.4424   -0.0534 H   0  0  0  0  0  0  0  0  0  0  0  0
    3.4191   -2.2334   -3.5728 H   0  0  0  0  0  0  0  0  0  0  0  0
    3.2406   -0.4731   -3.7442 H   0  0  0  0  0  0  0  0  0  0  0  0
    1.8118   -1.4968   -3.7048 H   0  0  0  0  0  0  0  0  0  0  0  0
    4.6192   -0.1122   -1.5579 H   0  0  0  0  0  0  0  0  0  0  0  0
    4.8133   -1.9016   -1.5492 H   0  0  0  0  0  0  0  0  0  0  0  0
    3.4466   -0.6465    0.5975 H   0  0  0  0  0  0  0  0  0  0  0  0
  1  2  2  0  0  0  0
  2  3  1  0  0  0  0
  4  5  1  6  0  0  0
  4  2  1  0  0  0  0
  6 12  1  0  0  0  0
  6  4  1  0  0  0  0
  7  4  1  0  0  0  0
  7 10  1  0  0  0  0
  7  8  1  0  0  0  0
  8 15  1  0  0  0  0
  9  7  1  0  0  0  0
 10 11  1  0  0  0  0
 11 21  1  0  0  0  0
 13  8  1  0  0  0  0
 14  8  1  0  0  0  0
 16  9  1  0  0  0  0
 17  9  1  0  0  0  0
 18  9  1  0  0  0  0
 19 10  1  0  0  0  0
 20 10  1  0  0  0  0
M  RAD  1   3   2
M  END
$$$$
