21
rmsd27.gzmat
O          0.00000        0.00000        0.00000
C          1.23590        0.00000        0.00000
O          2.01540        0.00000        0.97160
C          1.91120        0.03560       -1.41590
H          2.74580        0.76360       -1.42160
O          0.98040        0.54830       -2.35190
C          2.37580       -1.35530       -1.90180
C          1.15440       -2.25580       -2.13680
C          3.14860       -1.17060       -3.21920
C          3.30300       -2.03110       -0.85760
O          4.11000       -1.09630       -0.18960
H          0.07320        0.45070       -1.96190
H          1.43950       -3.27600       -2.39250
H          0.53520       -1.85440       -2.94740
H          0.51590       -2.28100       -1.24100
H          3.38070       -2.12570       -3.69130
H          4.09080       -0.64100       -3.03790
H          2.55930       -0.57150       -3.92380
H          4.01990       -2.71540       -1.33840
H          2.71190       -2.58510       -0.10520
H          3.49670       -0.54670        0.41800
