rmsd10.gzmat
 OpenBabel08211713363D

 21 20  0  0  1  0  0  0  0  0999 V2000
    0.0000    0.0000    0.0000 O   0  0  0  0  0  0  0  0  0  0  0  0
    1.2460    0.0000    0.0000 C   0  0  0  0  0  0  0  0  0  0  0  0
    2.0202    0.0000    0.9632 O   0  0  0  0  0  0  0  0  0  0  0  0
    1.9239   -0.0388   -1.4143 C   0  0  2  0  0  0  0  0  0  0  0  0
    1.4002   -0.7640   -2.0676 H   0  0  0  0  0  0  0  0  0  0  0  0
    3.2341   -0.5595   -1.2807 O   0  0  0  0  0  0  0  0  0  0  0  0
    2.0162    1.3516   -2.0807 C   0  0  0  0  0  0  0  0  0  0  0  0
    2.9695    2.2504   -1.2797 C   0  0  0  0  0  0  0  0  0  0  0  0
    2.5566    1.1624   -3.5086 C   0  0  0  0  0  0  0  0  0  0  0  0
    0.6257    2.0373   -2.1468 C   0  0  0  0  0  0  0  0  0  0  0  0
   -0.4096    1.1115   -2.3517 O   0  0  0  0  0  0  0  0  0  0  0  0
    3.5077   -0.4560   -0.3328 H   0  0  0  0  0  0  0  0  0  0  0  0
    2.9918    3.2688   -1.6670 H   0  0  0  0  0  0  0  0  0  0  0  0
    3.9881    1.8469   -1.3049 H   0  0  0  0  0  0  0  0  0  0  0  0
    2.6723    2.2808   -0.2209 H   0  0  0  0  0  0  0  0  0  0  0  0
    2.7884    2.1155   -3.9848 H   0  0  0  0  0  0  0  0  0  0  0  0
    1.8199    0.6389   -4.1282 H   0  0  0  0  0  0  0  0  0  0  0  0
    3.4702    0.5556   -3.4903 H   0  0  0  0  0  0  0  0  0  0  0  0
    0.5544    2.7212   -3.0077 H   0  0  0  0  0  0  0  0  0  0  0  0
    0.4174    2.5947   -1.2148 H   0  0  0  0  0  0  0  0  0  0  0  0
   -0.4943    0.5584   -1.4941 H   0  0  0  0  0  0  0  0  0  0  0  0
  2  1  2  0  0  0  0
  2  3  1  0  0  0  0
  4  5  1  6  0  0  0
  4  6  1  0  0  0  0
  4  2  1  0  0  0  0
  6 12  1  0  0  0  0
  7  4  1  0  0  0  0
  7  8  1  0  0  0  0
  8 15  1  0  0  0  0
  9 18  1  0  0  0  0
  9  7  1  0  0  0  0
 10  7  1  0  0  0  0
 10 20  1  0  0  0  0
 11 10  1  0  0  0  0
 11 21  1  0  0  0  0
 13  8  1  0  0  0  0
 14  8  1  0  0  0  0
 16  9  1  0  0  0  0
 17  9  1  0  0  0  0
 19 10  1  0  0  0  0
M  RAD  1   3   2
M  END
$$$$
