rmsd25.gzmat
 OpenBabel08211713363D

 21 20  0  0  1  0  0  0  0  0999 V2000
    0.0000    0.0000    0.0000 O   0  0  0  0  0  0  0  0  0  0  0  0
    1.2360    0.0000    0.0000 C   0  0  0  0  0  0  0  0  0  0  0  0
    2.0157    0.0000    0.9719 O   0  0  0  0  0  0  0  0  0  0  0  0
    1.9122    0.0301   -1.4155 C   0  0  2  0  0  0  0  0  0  0  0  0
    2.7517    0.7528   -1.4246 H   0  0  0  0  0  0  0  0  0  0  0  0
    0.9862    0.5444   -2.3557 O   0  0  0  0  0  0  0  0  0  0  0  0
    2.3691   -1.3664   -1.8915 C   0  0  0  0  0  0  0  0  0  0  0  0
    1.1459   -2.2726   -2.0914 C   0  0  0  0  0  0  0  0  0  0  0  0
    3.1124   -1.1999   -3.2283 C   0  0  0  0  0  0  0  0  0  0  0  0
    3.3203   -2.0243   -0.8566 C   0  0  0  0  0  0  0  0  0  0  0  0
    4.1159   -1.0746   -0.1953 O   0  0  0  0  0  0  0  0  0  0  0  0
    0.0773    0.4569   -1.9675 H   0  0  0  0  0  0  0  0  0  0  0  0
    1.4297   -3.2947   -2.3420 H   0  0  0  0  0  0  0  0  0  0  0  0
    0.5098   -1.8814   -2.8943 H   0  0  0  0  0  0  0  0  0  0  0  0
    0.5245   -2.2898   -1.1831 H   0  0  0  0  0  0  0  0  0  0  0  0
    3.3276   -2.1628   -3.6933 H   0  0  0  0  0  0  0  0  0  0  0  0
    4.0596   -0.6709   -3.0754 H   0  0  0  0  0  0  0  0  0  0  0  0
    2.5089   -0.6063   -3.9263 H   0  0  0  0  0  0  0  0  0  0  0  0
    4.0463   -2.6936   -1.3451 H   0  0  0  0  0  0  0  0  0  0  0  0
    2.7478   -2.5906   -0.0988 H   0  0  0  0  0  0  0  0  0  0  0  0
    3.4972   -0.5324    0.4141 H   0  0  0  0  0  0  0  0  0  0  0  0
  1  2  2  0  0  0  0
  2  3  1  0  0  0  0
  4  5  1  1  0  0  0
  4  2  1  0  0  0  0
  6 12  1  0  0  0  0
  6  4  1  0  0  0  0
  7  4  1  0  0  0  0
  7 10  1  0  0  0  0
  8  7  1  0  0  0  0
  8 15  1  0  0  0  0
  9 17  1  0  0  0  0
  9  7  1  0  0  0  0
 10 11  1  0  0  0  0
 10 20  1  0  0  0  0
 11 21  1  0  0  0  0
 13  8  1  0  0  0  0
 14  8  1  0  0  0  0
 16  9  1  0  0  0  0
 18  9  1  0  0  0  0
 19 10  1  0  0  0  0
M  RAD  1   3   2
M  END
$$$$
