21
rmsd56.gzmat
O          0.00000        0.00000        0.00000
C          1.23660        0.00000        0.00000
O          2.00860        0.00000        0.97640
C          1.90250        0.05070       -1.42250
H          2.50860        0.97300       -1.50980
O          0.88220        0.19220       -2.39370
C          2.73780       -1.20420       -1.76570
C          2.09700       -2.46340       -1.17930
C          2.83500       -1.33750       -3.29710
C          4.18310       -1.04240       -1.22680
O          4.27310       -1.07760        0.16780
H          0.00410        0.09590       -1.93300
H          2.63100       -3.36830       -1.47320
H          1.05100       -2.54860       -1.49460
H          2.10390       -2.42120       -0.07780
H          3.43000       -2.20320       -3.59020
H          3.27020       -0.44000       -3.74470
H          1.83080       -1.44860       -3.72830
H          4.62640       -0.08950       -1.56930
H          4.82300       -1.87920       -1.55720
H          3.44870       -0.63390        0.58800
