21
rmsd63.gzmat
O          0.00000        0.00000        0.00000
C          1.23660        0.00000        0.00000
O          2.00830        0.00000        0.97680
C          1.90220        0.04120       -1.42220
H          2.51520        0.95830       -1.51750
O          0.88240        0.18360       -2.39410
C          2.72830       -1.22330       -1.75320
C          2.08110       -2.47410       -1.15460
C          2.81860       -1.37060       -3.28360
C          4.17500       -1.06500       -1.21630
O          4.26560       -1.10200        0.17850
H          0.00430        0.08060       -1.93450
H          2.58670       -3.38610       -1.47470
H          1.02360       -2.53700       -1.43520
H          2.12410       -2.44240       -0.05340
H          3.41910       -2.23340       -3.57280
H          3.24060       -0.47310       -3.74420
H          1.81180       -1.49680       -3.70480
H          4.61920       -0.11220       -1.55790
H          4.81330       -1.90160       -1.54920
H          3.44660       -0.64650        0.59750
