rmsd37.gzmat
 OpenBabel08211713363D

 31 31  0  0  1  0  0  0  0  0999 V2000
    0.0000    0.0000    0.0000 C   0  0  0  0  0  0  0  0  0  0  0  0
    1.5356    0.0000    0.0000 C   0  0  0  0  0  0  0  0  0  0  0  0
    1.9248    0.0000    1.4307 N   0  0  0  0  0  0  0  0  0  0  0  0
    0.7767    0.2135    2.3285 C   0  0  0  0  0  0  0  0  0  0  0  0
   -0.4256    0.4774    1.3992 C   0  0  0  0  0  0  0  0  0  0  0  0
    3.2018   -0.1962    1.7833 C   0  0  0  0  0  0  0  0  0  0  0  0
    4.0981   -0.4037    0.9689 O   0  0  0  0  0  0  0  0  0  0  0  0
    3.6282   -0.1933    3.2693 C   0  0  2  0  0  0  0  0  0  0  0  0
    2.9168   -0.7824    3.8996 H   0  0  0  0  0  0  0  0  0  0  0  0
    3.7551    1.2522    3.7998 C   0  0  0  0  0  0  0  0  0  0  0  0
    3.9729    1.2505    5.3110 C   0  0  0  0  0  0  0  0  0  0  0  0
    4.8517    2.0357    3.0836 C   0  0  0  0  0  0  0  0  0  0  0  0
    4.9895   -0.8888    3.2812 N   0  0  0  0  0  0  0  0  0  0  0  0
    5.4973   -0.6370    2.3889 H   0  0  0  0  0  0  0  0  0  0  0  0
    5.5445   -0.5846    4.0949 H   0  0  0  0  0  0  0  0  0  0  0  0
    4.8769   -1.9127    3.2973 H   0  0  0  0  0  0  0  0  0  0  0  0
   -0.4034    0.6573   -0.7922 H   0  0  0  0  0  0  0  0  0  0  0  0
   -0.3970   -1.0109   -0.2108 H   0  0  0  0  0  0  0  0  0  0  0  0
    1.9593    0.9004   -0.4991 H   0  0  0  0  0  0  0  0  0  0  0  0
    1.9693   -0.8873   -0.5135 H   0  0  0  0  0  0  0  0  0  0  0  0
    0.6089   -0.6890    2.9559 H   0  0  0  0  0  0  0  0  0  0  0  0
    0.9562    1.0753    3.0050 H   0  0  0  0  0  0  0  0  0  0  0  0
   -1.3291   -0.0523    1.7502 H   0  0  0  0  0  0  0  0  0  0  0  0
   -0.6858    1.5526    1.3861 H   0  0  0  0  0  0  0  0  0  0  0  0
    2.7738    1.7638    3.5891 H   0  0  0  0  0  0  0  0  0  0  0  0
    4.9437    0.8501    5.6167 H   0  0  0  0  0  0  0  0  0  0  0  0
    3.1893    0.7020    5.8494 H   0  0  0  0  0  0  0  0  0  0  0  0
    3.9418    2.2820    5.7054 H   0  0  0  0  0  0  0  0  0  0  0  0
    5.8617    1.7982    3.4314 H   0  0  0  0  0  0  0  0  0  0  0  0
    4.7269    3.1198    3.2510 H   0  0  0  0  0  0  0  0  0  0  0  0
    4.8245    1.9015    1.9914 H   0  0  0  0  0  0  0  0  0  0  0  0
  1  5  1  0  0  0  0
  2  1  1  0  0  0  0
  2  3  1  0  0  0  0
  3  6  1  0  0  0  0
  3  4  1  0  0  0  0
  4 21  1  0  0  0  0
  4 22  1  0  0  0  0
  5 23  1  0  0  0  0
  5  4  1  0  0  0  0
  6  8  1  0  0  0  0
  7  6  2  0  0  0  0
  8 13  1  0  0  0  0
  8 10  1  0  0  0  0
  8  9  1  1  0  0  0
 10 11  1  0  0  0  0
 11 26  1  0  0  0  0
 11 28  1  0  0  0  0
 11 27  1  0  0  0  0
 12 30  1  0  0  0  0
 12 29  1  0  0  0  0
 12 10  1  0  0  0  0
 13 16  1  0  0  0  0
 13 15  1  0  0  0  0
 14 13  1  0  0  0  0
 17  1  1  0  0  0  0
 18  1  1  0  0  0  0
 19  2  1  0  0  0  0
 20  2  1  0  0  0  0
 24  5  1  0  0  0  0
 25 10  1  0  0  0  0
 31 12  1  0  0  0  0
M  END
$$$$
