31
rmsd5.gzmat
C          0.00000        0.00000        0.00000
C          1.53580        0.00000        0.00000
N          1.92180        0.00000        1.43250
C          0.76760        0.21040        2.32470
C         -0.41580        0.52190        1.38620
C          3.19540       -0.20330        1.79040
O          4.09160       -0.42940        0.97910
C          3.62310       -0.17750        3.27700
H          2.91370       -0.76010        3.91520
C          3.73790        1.27820        3.78260
C          3.97650        1.30830        5.29030
C          4.81590        2.06410        3.04100
N          4.98900       -0.86530        3.29800
H          5.59820       -0.44110        4.01310
H          4.89220       -1.87320        3.48010
H          5.43150       -0.74470        2.34060
H         -0.40620        0.63150       -0.81120
H         -0.39750       -1.01700       -0.17750
H          1.95910        0.90260       -0.49560
H          1.97040       -0.88600       -0.51420
H          0.57540       -0.70970        2.91930
H          0.95490        1.04610        3.03000
H         -1.34900        0.04730        1.73770
H         -0.61730        1.60910        1.35200
H          2.74740        1.77300        3.57590
H          4.97200        0.96320        5.58470
H          3.23160        0.72820        5.84900
H          3.89960        2.34240        5.67100
H          5.83110        1.85680        3.39230
H          4.67040        3.14920        3.17980
H          4.78950        1.89960        1.95360
