rmsd34.gzmat
 OpenBabel08211713363D

 31 31  0  0  1  0  0  0  0  0999 V2000
    0.0000    0.0000    0.0000 C   0  0  0  0  0  0  0  0  0  0  0  0
    1.5419    0.0000    0.0000 C   0  0  0  0  0  0  0  0  0  0  0  0
    1.9274    0.0000    1.4218 N   0  0  0  0  0  0  0  0  0  0  0  0
    0.7672    0.2158    2.3215 C   0  0  0  0  0  0  0  0  0  0  0  0
   -0.4199    0.5062    1.3912 C   0  0  0  0  0  0  0  0  0  0  0  0
    3.1505   -0.1781    1.9394 C   0  0  0  0  0  0  0  0  0  0  0  0
    3.3822   -0.1058    3.1424 O   0  0  0  0  0  0  0  0  0  0  0  0
    4.3755   -0.4616    1.0404 C   0  0  2  0  0  0  0  0  0  0  0  0
    4.4384    0.2743    0.2000 H   0  0  0  0  0  0  0  0  0  0  0  0
    4.3628   -1.9074    0.4989 C   0  0  0  0  0  0  0  0  0  0  0  0
    5.5501   -2.1486   -0.4309 C   0  0  0  0  0  0  0  0  0  0  0  0
    4.3269   -2.9454    1.6172 C   0  0  0  0  0  0  0  0  0  0  0  0
    5.5748   -0.2527    1.9648 N   0  0  0  0  0  0  0  0  0  0  0  0
    5.4548   -0.8546    2.8135 H   0  0  0  0  0  0  0  0  0  0  0  0
    6.4516   -0.4998    1.4852 H   0  0  0  0  0  0  0  0  0  0  0  0
    5.6094    0.7276    2.2957 H   0  0  0  0  0  0  0  0  0  0  0  0
   -0.4072    0.6375   -0.8052 H   0  0  0  0  0  0  0  0  0  0  0  0
   -0.3945   -1.0170   -0.1846 H   0  0  0  0  0  0  0  0  0  0  0  0
    1.9430    0.9102   -0.4989 H   0  0  0  0  0  0  0  0  0  0  0  0
    1.9453   -0.8884   -0.5271 H   0  0  0  0  0  0  0  0  0  0  0  0
    0.6062   -0.6941    2.9419 H   0  0  0  0  0  0  0  0  0  0  0  0
    0.9822    1.0521    3.0238 H   0  0  0  0  0  0  0  0  0  0  0  0
   -1.3423    0.0073    1.7415 H   0  0  0  0  0  0  0  0  0  0  0  0
   -0.6493    1.5883    1.3671 H   0  0  0  0  0  0  0  0  0  0  0  0
    3.4175   -2.0180   -0.1049 H   0  0  0  0  0  0  0  0  0  0  0  0
    6.5088   -2.2214    0.0916 H   0  0  0  0  0  0  0  0  0  0  0  0
    5.6365   -1.3885   -1.2167 H   0  0  0  0  0  0  0  0  0  0  0  0
    5.4339   -3.1128   -0.9586 H   0  0  0  0  0  0  0  0  0  0  0  0
    5.2899   -3.0855    2.1183 H   0  0  0  0  0  0  0  0  0  0  0  0
    4.0532   -3.9376    1.2178 H   0  0  0  0  0  0  0  0  0  0  0  0
    3.5720   -2.7164    2.3840 H   0  0  0  0  0  0  0  0  0  0  0  0
  1  2  1  0  0  0  0
  1  5  1  0  0  0  0
  2  3  1  0  0  0  0
  3  6  1  0  0  0  0
  3  4  1  0  0  0  0
  4 21  1  0  0  0  0
  4 22  1  0  0  0  0
  5 23  1  0  0  0  0
  5  4  1  0  0  0  0
  6  7  2  0  0  0  0
  8  9  1  6  0  0  0
  8  6  1  0  0  0  0
  8 13  1  0  0  0  0
 10  8  1  0  0  0  0
 10 12  1  0  0  0  0
 11 26  1  0  0  0  0
 11 10  1  0  0  0  0
 12 29  1  0  0  0  0
 12 31  1  0  0  0  0
 13 16  1  0  0  0  0
 13 14  1  0  0  0  0
 15 13  1  0  0  0  0
 17  1  1  0  0  0  0
 18  1  1  0  0  0  0
 19  2  1  0  0  0  0
 20  2  1  0  0  0  0
 24  5  1  0  0  0  0
 25 10  1  0  0  0  0
 27 11  1  0  0  0  0
 28 11  1  0  0  0  0
 30 12  1  0  0  0  0
M  END
$$$$
