31
rmsd38.gzmat
C          0.00000        0.00000        0.00000
C          1.54290        0.00000        0.00000
N          1.93790        0.00000        1.41940
C          0.76970       -0.01580        2.33140
C         -0.43770        0.31120        1.44170
C          3.18040        0.10920        1.90740
O          3.42750        0.19460        3.10790
C          4.40510        0.12560        0.96300
H          4.24080        0.80380        0.08950
C          4.73890       -1.30530        0.48300
C          5.84440       -1.27530       -0.56960
C          5.10750       -2.22860        1.64080
N          5.54210        0.68510        1.81820
H          5.38390        0.37580        2.81770
H          6.45210        0.33440        1.48530
H          5.54000        1.71500        1.80600
H         -0.40330        0.74320       -0.71100
H         -0.39370       -0.98120       -0.32510
H          1.94510        0.89750       -0.51630
H          1.94370       -0.90020       -0.51370
H          0.68820       -1.02040        2.80470
H          0.91180        0.71900        3.15500
H         -1.32670       -0.27950        1.73080
H         -0.73150        1.37270        1.54610
H          3.80660       -1.71230       -0.00060
H          6.82100       -0.98320       -0.17260
H          5.60480       -0.61860       -1.41540
H          5.99080       -2.28140       -1.00260
H          6.11930       -2.06920        2.02470
H          5.07300       -3.28480        1.32270
H          4.40570       -2.15090        2.48530
