31
rmsd29.gzmat
C          0.00000        0.00000        0.00000
C          1.53560        0.00000        0.00000
N          1.93230        0.00000        1.42940
C          0.77250        0.06390        2.33460
C         -0.43060        0.38490        1.42630
C          3.23160        0.01120        1.75700
O          4.12840       -0.06790        0.92290
C          3.69320        0.08200        3.23000
H          3.15930       -0.67550        3.85730
C          3.50960        1.49910        3.81430
C          3.91790        1.53780        5.28520
C          4.25430        2.55880        3.00750
N          5.17600       -0.28490        3.17440
H          5.65680        0.35840        2.50320
H          5.60880       -0.20210        4.10440
H          5.29560       -1.24560        2.80630
H         -0.40240        0.70800       -0.74790
H         -0.39600       -0.99540       -0.27700
H          1.96200        0.89530       -0.50610
H          1.96660       -0.89110       -0.50890
H          0.64010       -0.91730        2.84390
H          0.90880        0.84060        3.11450
H         -1.33370       -0.16910        1.74000
H         -0.69150        1.45840        1.48070
H          2.40790        1.73340        3.75550
H          4.99870        1.47650        5.44290
H          3.43170        0.75610        5.88200
H          3.61070        2.49580        5.74300
H          5.33520        2.56430        3.17940
H          3.90260        3.56980        3.27780
H          4.08390        2.46650        1.92440
