rmsd38.gzmat
 OpenBabel08211713363D

 31 31  0  0  1  0  0  0  0  0999 V2000
    0.0000    0.0000    0.0000 C   0  0  0  0  0  0  0  0  0  0  0  0
    1.5429    0.0000    0.0000 C   0  0  0  0  0  0  0  0  0  0  0  0
    1.9379    0.0000    1.4194 N   0  0  0  0  0  0  0  0  0  0  0  0
    0.7697   -0.0158    2.3314 C   0  0  0  0  0  0  0  0  0  0  0  0
   -0.4377    0.3112    1.4417 C   0  0  0  0  0  0  0  0  0  0  0  0
    3.1804    0.1092    1.9074 C   0  0  0  0  0  0  0  0  0  0  0  0
    3.4275    0.1946    3.1079 O   0  0  0  0  0  0  0  0  0  0  0  0
    4.4051    0.1256    0.9630 C   0  0  2  0  0  0  0  0  0  0  0  0
    4.2408    0.8038    0.0895 H   0  0  0  0  0  0  0  0  0  0  0  0
    4.7389   -1.3053    0.4830 C   0  0  0  0  0  0  0  0  0  0  0  0
    5.8444   -1.2753   -0.5696 C   0  0  0  0  0  0  0  0  0  0  0  0
    5.1075   -2.2286    1.6408 C   0  0  0  0  0  0  0  0  0  0  0  0
    5.5421    0.6851    1.8182 N   0  0  0  0  0  0  0  0  0  0  0  0
    5.3839    0.3758    2.8177 H   0  0  0  0  0  0  0  0  0  0  0  0
    6.4521    0.3344    1.4853 H   0  0  0  0  0  0  0  0  0  0  0  0
    5.5400    1.7150    1.8060 H   0  0  0  0  0  0  0  0  0  0  0  0
   -0.4033    0.7432   -0.7110 H   0  0  0  0  0  0  0  0  0  0  0  0
   -0.3937   -0.9812   -0.3251 H   0  0  0  0  0  0  0  0  0  0  0  0
    1.9451    0.8975   -0.5163 H   0  0  0  0  0  0  0  0  0  0  0  0
    1.9437   -0.9002   -0.5137 H   0  0  0  0  0  0  0  0  0  0  0  0
    0.6882   -1.0204    2.8047 H   0  0  0  0  0  0  0  0  0  0  0  0
    0.9118    0.7190    3.1550 H   0  0  0  0  0  0  0  0  0  0  0  0
   -1.3267   -0.2795    1.7308 H   0  0  0  0  0  0  0  0  0  0  0  0
   -0.7315    1.3727    1.5461 H   0  0  0  0  0  0  0  0  0  0  0  0
    3.8066   -1.7123   -0.0006 H   0  0  0  0  0  0  0  0  0  0  0  0
    6.8210   -0.9832   -0.1726 H   0  0  0  0  0  0  0  0  0  0  0  0
    5.6048   -0.6186   -1.4154 H   0  0  0  0  0  0  0  0  0  0  0  0
    5.9908   -2.2814   -1.0026 H   0  0  0  0  0  0  0  0  0  0  0  0
    6.1193   -2.0692    2.0247 H   0  0  0  0  0  0  0  0  0  0  0  0
    5.0730   -3.2848    1.3227 H   0  0  0  0  0  0  0  0  0  0  0  0
    4.4057   -2.1509    2.4853 H   0  0  0  0  0  0  0  0  0  0  0  0
  1  5  1  0  0  0  0
  2  1  1  0  0  0  0
  2  3  1  0  0  0  0
  3  6  1  0  0  0  0
  3  4  1  0  0  0  0
  4 21  1  0  0  0  0
  4 22  1  0  0  0  0
  5 24  1  0  0  0  0
  5 23  1  0  0  0  0
  5  4  1  0  0  0  0
  6  7  2  0  0  0  0
  8  9  1  6  0  0  0
  8 13  1  0  0  0  0
  8  6  1  0  0  0  0
 10  8  1  0  0  0  0
 10 12  1  0  0  0  0
 11 26  1  0  0  0  0
 11 10  1  0  0  0  0
 12 29  1  0  0  0  0
 12 31  1  0  0  0  0
 13 14  1  0  0  0  0
 15 13  1  0  0  0  0
 16 13  1  0  0  0  0
 17  1  1  0  0  0  0
 18  1  1  0  0  0  0
 19  2  1  0  0  0  0
 20  2  1  0  0  0  0
 25 10  1  0  0  0  0
 27 11  1  0  0  0  0
 28 11  1  0  0  0  0
 30 12  1  0  0  0  0
M  END
$$$$
