rmsd42.gzmat
 OpenBabel08211713363D

 31 30  0  0  1  0  0  0  0  0999 V2000
    0.0000    0.0000    0.0000 C   0  0  0  0  0  0  0  0  0  0  0  0
    1.5362    0.0000    0.0000 C   0  0  0  0  0  0  0  0  0  0  0  0
    1.9358    0.0000    1.4291 N   0  0  0  0  0  0  0  0  0  0  0  0
    0.7744    0.0297    2.3340 C   0  0  0  0  0  0  0  0  0  0  0  0
   -0.4334   -0.3178    1.4419 C   0  0  0  0  0  0  0  0  0  0  0  0
    3.2297   -0.0880    1.7592 C   0  0  0  0  0  0  0  0  0  0  0  0
    4.1265   -0.1352    0.9175 O   0  0  0  0  0  0  0  0  0  0  0  0
    3.6892   -0.1550    3.2347 C   0  0  2  0  0  0  0  0  0  0  0  0
    3.1057   -0.9244    3.8001 H   0  0  0  0  0  0  0  0  0  0  0  0
    3.5712    1.2222    3.9227 C   0  0  1  0  0  0  0  0  0  0  0  0
    3.8830    1.1079    5.4135 C   0  0  0  0  0  0  0  0  0  0  0  0
    4.4482    2.2767    3.2542 C   0  0  0  0  0  0  0  0  0  0  0  0
    5.1507   -0.6032    3.1607 N   0  0  0  0  0  0  0  0  0  0  0  0
    5.5290   -0.3326    2.2044 H   0  0  0  0  0  0  0  0  0  0  0  0
    5.7107   -0.1453    3.8948 H   0  0  0  0  0  0  0  0  0  0  0  0
    5.2279   -1.6249    3.2542 H   0  0  0  0  0  0  0  0  0  0  0  0
   -0.3971    0.9799   -0.3263 H   0  0  0  0  0  0  0  0  0  0  0  0
   -0.4020   -0.7431   -0.7134 H   0  0  0  0  0  0  0  0  0  0  0  0
    1.9657    0.8908   -0.5098 H   0  0  0  0  0  0  0  0  0  0  0  0
    1.9621   -0.8957   -0.5059 H   0  0  0  0  0  0  0  0  0  0  0  0
    0.8894   -0.6919    3.1664 H   0  0  0  0  0  0  0  0  0  0  0  0
    0.6642    1.0485    2.7710 H   0  0  0  0  0  0  0  0  0  0  0  0
   -0.7064   -1.3846    1.5446 H   0  0  0  0  0  0  0  0  0  0  0  0
   -1.3304    0.2583    1.7320 H   0  0  0  0  0  0  0  0  0  0  0  0
    2.4981    1.5476    3.8171 H   0  0  0  0  0  0  0  0  0  0  0  0
    4.9348    0.9008    5.6295 H   0  0  0  0  0  0  0  0  0  0  0  0
    3.2712    0.3481    5.9158 H   0  0  0  0  0  0  0  0  0  0  0  0
    3.6593    2.0596    5.9281 H   0  0  0  0  0  0  0  0  0  0  0  0
    5.5146    2.1669    3.4703 H   0  0  0  0  0  0  0  0  0  0  0  0
    4.1764    3.2874    3.6039 H   0  0  0  0  0  0  0  0  0  0  0  0
    4.3238    2.2975    2.1613 H   0  0  0  0  0  0  0  0  0  0  0  0
  1  5  1  0  0  0  0
  2  1  1  0  0  0  0
  2  3  1  0  0  0  0
  3  6  1  0  0  0  0
  3  4  1  0  0  0  0
  4 22  1  0  0  0  0
  4 21  1  0  0  0  0
  5 23  1  0  0  0  0
  5 24  1  0  0  0  0
  5  4  1  0  0  0  0
  6  8  1  0  0  0  0
  7  6  2  0  0  0  0
  8  9  1  1  0  0  0
  8 10  1  0  0  0  0
 10 25  1  6  0  0  0
 10 11  1  0  0  0  0
 11 26  1  0  0  0  0
 11 27  1  0  0  0  0
 11 28  1  0  0  0  0
 12 29  1  0  0  0  0
 12 30  1  0  0  0  0
 12 10  1  0  0  0  0
 13  8  1  0  0  0  0
 13 16  1  0  0  0  0
 13 15  1  0  0  0  0
 14 13  1  0  0  0  0
 17  1  1  0  0  0  0
 18  1  1  0  0  0  0
 19  2  1  0  0  0  0
 20  2  1  0  0  0  0
M  RAD  2  12   2  31   2
M  END
$$$$
