31
rmsd13.gzmat
C          0.00000        0.00000        0.00000
C          1.54210        0.00000        0.00000
N          1.92650        0.00000        1.42280
C          0.76030        0.17070        2.32340
C         -0.41940        0.49530        1.39510
C          3.15990       -0.11830        1.92970
O          3.39910       -0.04590        3.13360
C          4.38380       -0.34830        1.01200
H          4.35880        0.32350        0.11880
C          4.46080       -1.82880        0.57550
C          5.57690       -2.03540       -0.44630
C          4.62450       -2.77490        1.76210
N          5.58930        0.02120        1.87700
H          6.41200       -0.54100        1.61240
H          5.81100        1.02280        1.79080
H          5.33810       -0.17100        2.88900
H         -0.40610        0.64470       -0.79990
H         -0.39480       -1.01550       -0.19150
H          1.94260        0.90970       -0.49970
H          1.94660       -0.88920       -0.52520
H          0.59900       -0.76850        2.89900
H          0.96390        0.97410        3.06580
H         -1.35050        0.00800        1.73800
H         -0.62980        1.58150        1.38270
H          3.48020       -2.06950        0.07510
H          6.58160       -1.99470       -0.01430
H          5.52960       -1.32270       -1.27880
H          5.49640       -3.03750       -0.90520
H          5.64390       -2.81310        2.15880
H          4.38060       -3.81010        1.46630
H          3.94480       -2.53620        2.59450
