31
rmsd39.gzmat
C          0.00000        0.00000        0.00000
C          1.54260        0.00000        0.00000
N          1.93370        0.00000        1.42080
C          0.76430        0.07770        2.32950
C         -0.43030        0.40290        1.42150
C          3.17780        0.02720        1.91460
O          3.41960        0.12540        3.11660
C          4.41160       -0.07200        0.98630
H          4.31340        0.60670        0.10330
C          4.62770       -1.53120        0.52520
C          5.72720       -1.60500       -0.53140
C          4.92460       -2.46790        1.69310
N          5.58240        0.40220        1.84910
H          5.32760        0.23450        2.86690
H          6.43980       -0.12230        1.61980
H          5.74950        1.40970        1.72380
H         -0.40390        0.69500       -0.75740
H         -0.39360       -1.00080       -0.25960
H          1.94330        0.90360       -0.50870
H          1.94400       -0.89610       -0.51890
H          0.64310       -0.89710        2.85380
H          0.93570        0.84790        3.11420
H         -1.33940       -0.14110        1.73850
H         -0.68680        1.47820        1.46990
H          3.66400       -1.86810        0.04920
H          6.72510       -1.38130       -0.14420
H          5.53620       -0.94630       -1.38790
H          5.79260       -2.62650       -0.94740
H          5.95180       -2.39730        2.06400
H          4.79040       -3.52090        1.39030
H          4.24270       -2.31480        2.54370
