31
rmsd20.gzmat
C          0.00000        0.00000        0.00000
C          1.53550        0.00000        0.00000
N          1.92440        0.00000        1.43140
C          0.77190        0.19920        2.32760
C         -0.42090        0.49320        1.39500
C          3.20310       -0.18370        1.78290
O          4.09830       -0.38870        0.96540
C          3.63790       -0.16590        3.26740
H          2.94200       -0.76580        3.90400
C          3.73720        1.28590        3.78790
C          3.95590        1.30360        5.29860
C          4.82070        2.08220        3.06520
N          5.01390       -0.83340        3.27260
H          5.47250       -0.64440        2.33600
H          5.60110       -0.44960        4.02720
H          4.92920       -1.85300        3.38220
H         -0.40530        0.64680       -0.79960
H         -0.39700       -1.01360       -0.19780
H          1.96060        0.90010       -0.49830
H          1.96780       -0.88770       -0.51330
H          0.59380       -0.71970        2.92820
H          0.95280        1.04030        3.02830
H         -1.34070       -0.01000        1.74230
H         -0.65020        1.57510        1.37620
H          2.74690        1.77860        3.57340
H          4.92100        0.89430        5.60940
H          3.16590        0.77290        5.84500
H          3.93770        2.34070        5.67900
H          5.83470        1.86010        3.41020
H          4.68260        3.16470        3.23090
H          4.79070        1.94460        1.97390
