36
rmsd118.gzmat
S          0.00000        0.00000        0.00000
N          1.75260        0.00000        0.00000
C          2.22640        0.00000        1.21840
N          1.24620       -0.01180        2.27440
C         -0.07240       -0.01800        1.80190
N         -1.07920       -0.04830        2.61810
C         -2.41940       -0.02700        2.17990
O         -2.70360        0.02460        1.00300
C         -3.41480       -0.07630        3.29120
C          1.56860        0.09810        3.66270
C          2.29820        1.20280        4.11710
C          2.62910        1.28300        5.46640
C          2.22340        0.28360        6.35050
C          1.47820       -0.80100        5.89040
C          1.14440       -0.90280        4.54250
N          3.55870        0.02350        1.59480
C          4.64380       -0.11290        0.69030
C          4.55320        0.17750       -0.67460
C          5.68800        0.05930       -1.47200
C          6.90670       -0.33270       -0.92230
C          6.99410       -0.60750        0.44180
C          5.87190       -0.50410        1.25510
H         -3.10650        0.54820        4.14460
H         -3.51740       -1.10340        3.67430
H         -4.40380        0.25990        2.94770
H          2.58800        1.99610        3.42780
H          3.20000        2.13630        5.83190
H          2.48310        0.35480        7.40550
H          1.15020       -1.57270        6.58640
H          0.54180       -1.73470        4.17560
H          3.76620       -0.16530        2.57740
H          3.60920        0.49280       -1.12820
H          5.61630        0.27730       -2.53770
H          7.78620       -0.42390       -1.55360
H          7.94740       -0.90810        0.87420
H          5.95120       -0.72600        2.31560
