rmsd109.gzmat
 OpenBabel08211713383D

 36 38  0  0  0  0  0  0  0  0999 V2000
    0.0000    0.0000    0.0000 S   0  0  0  0  0  0  0  0  0  0  0  0
    1.7536    0.0000    0.0000 N   0  0  0  0  0  0  0  0  0  0  0  0
    2.2252    0.0000    1.2195 C   0  0  0  0  0  0  0  0  0  0  0  0
    1.2433    0.0109    2.2721 N   0  0  0  0  0  0  0  0  0  0  0  0
   -0.0759    0.0099    1.8019 C   0  0  0  0  0  0  0  0  0  0  0  0
   -1.0772    0.0297    2.6242 N   0  0  0  0  0  0  0  0  0  0  0  0
   -2.4225    0.0056    2.2033 C   0  0  0  0  0  0  0  0  0  0  0  0
   -2.7236   -0.0489    1.0309 O   0  0  0  0  0  0  0  0  0  0  0  0
   -3.4016    0.0463    3.3305 C   0  0  0  0  0  0  0  0  0  0  0  0
    1.5689   -0.0700    3.6618 C   0  0  0  0  0  0  0  0  0  0  0  0
    1.2081    0.9822    4.5089 C   0  0  0  0  0  0  0  0  0  0  0  0
    1.5512    0.9079    5.8563 C   0  0  0  0  0  0  0  0  0  0  0  0
    2.2393   -0.2008    6.3470 C   0  0  0  0  0  0  0  0  0  0  0  0
    2.5787   -1.2516    5.4952 C   0  0  0  0  0  0  0  0  0  0  0  0
    2.2416   -1.1974    4.1462 C   0  0  0  0  0  0  0  0  0  0  0  0
    3.5574   -0.0357    1.5994 N   0  0  0  0  0  0  0  0  0  0  0  0
    4.6351    0.1870    0.7010 C   0  0  0  0  0  0  0  0  0  0  0  0
    4.5690   -0.1200   -0.6618 C   0  0  0  0  0  0  0  0  0  0  0  0
    5.6949    0.0746   -1.4570 C   0  0  0  0  0  0  0  0  0  0  0  0
    6.8797    0.5592   -0.9063 C   0  0  0  0  0  0  0  0  0  0  0  0
    6.9426    0.8526    0.4555 C   0  0  0  0  0  0  0  0  0  0  0  0
    5.8276    0.6740    1.2664 C   0  0  0  0  0  0  0  0  0  0  0  0
   -3.2578    0.9425    3.9531 H   0  0  0  0  0  0  0  0  0  0  0  0
   -3.2705   -0.8205    3.9982 H   0  0  0  0  0  0  0  0  0  0  0  0
   -4.4356    0.0428    2.9561 H   0  0  0  0  0  0  0  0  0  0  0  0
    0.6485    1.8334    4.1190 H   0  0  0  0  0  0  0  0  0  0  0  0
    1.2748    1.7190    6.5290 H   0  0  0  0  0  0  0  0  0  0  0  0
    2.5056   -0.2505    7.4015 H   0  0  0  0  0  0  0  0  0  0  0  0
    3.1019   -2.1238    5.8864 H   0  0  0  0  0  0  0  0  0  0  0  0
    2.4829   -2.0263    3.4807 H   0  0  0  0  0  0  0  0  0  0  0  0
    3.7610    0.1226    2.5887 H   0  0  0  0  0  0  0  0  0  0  0  0
    3.6496   -0.5079   -1.1098 H   0  0  0  0  0  0  0  0  0  0  0  0
    5.6441   -0.1569   -2.5207 H   0  0  0  0  0  0  0  0  0  0  0  0
    7.7536    0.7066   -1.5353 H   0  0  0  0  0  0  0  0  0  0  0  0
    7.8697    1.2268    0.8883 H   0  0  0  0  0  0  0  0  0  0  0  0
    5.8840    0.9136    2.3247 H   0  0  0  0  0  0  0  0  0  0  0  0
  1  2  1  0  0  0  0
  1  5  1  0  0  0  0
  2  3  2  0  0  0  0
  3 16  1  0  0  0  0
  3  4  1  0  0  0  0
  4 10  1  0  0  0  0
  5  4  1  0  0  0  0
  5  6  2  0  0  0  0
  7  6  1  0  0  0  0
  7  9  1  0  0  0  0
  8  7  2  0  0  0  0
  9 23  1  0  0  0  0
  9 24  1  0  0  0  0
 10 15  2  0  0  0  0
 10 11  1  0  0  0  0
 11 12  2  0  0  0  0
 12 13  1  0  0  0  0
 12 27  1  0  0  0  0
 13 28  1  0  0  0  0
 14 29  1  0  0  0  0
 14 13  2  0  0  0  0
 15 14  1  0  0  0  0
 16 31  1  0  0  0  0
 17 22  1  0  0  0  0
 17 16  1  0  0  0  0
 18 17  2  0  0  0  0
 19 20  2  0  0  0  0
 19 18  1  0  0  0  0
 20 21  1  0  0  0  0
 21 35  1  0  0  0  0
 21 22  2  0  0  0  0
 22 36  1  0  0  0  0
 25  9  1  0  0  0  0
 26 11  1  0  0  0  0
 30 15  1  0  0  0  0
 32 18  1  0  0  0  0
 33 19  1  0  0  0  0
 34 20  1  0  0  0  0
M  END
$$$$
