36
rmsd1.gzmat
S          0.00000        0.00000        0.00000
N          1.75320        0.00000        0.00000
C          2.22330        0.00000        1.21960
N          1.24450        0.01710        2.27530
C         -0.07460        0.03010        1.80260
N         -1.07940        0.08010        2.61930
C         -2.42240        0.08080        2.18920
O         -2.71620       -0.00590        1.01740
C         -3.40670        0.18770        3.30710
C          1.56930       -0.14060        3.65850
C          1.13700        0.82240        4.57550
C          1.47180        0.67190        5.91860
C          2.22510       -0.42330        6.33790
C          2.63950       -1.38460        5.41630
C          2.30940       -1.25480        4.07100
N          3.55630       -0.02150        1.60000
C          4.63060        0.04160        0.67240
C          5.83140        0.60630        1.13550
C          6.94330        0.61830        0.30030
C          6.86820        0.08180       -0.98440
C          5.67180       -0.47270       -1.43570
C          4.54830       -0.50040       -0.61490
H         -3.37220       -0.71050        3.94450
H         -4.43090        0.29980        2.92380
H         -3.18110        1.04410        3.96160
H          0.52770        1.66300        4.24150
H          1.13790        1.41460        6.64230
H          2.48450       -0.53250        7.38950
H          3.21750       -2.24610        5.74910
H          2.61220       -2.01550        3.35100
H          3.76710        0.27060        2.55620
H          5.89710        1.03410        2.13200
H          7.87780        1.05390        0.65220
H          7.74050        0.09710       -1.63270
H          5.61050       -0.89010       -2.44060
H          3.61630       -0.93640       -0.98370
