rmsd106.gzmat
 OpenBabel08211713383D

 36 38  0  0  0  0  0  0  0  0999 V2000
    0.0000    0.0000    0.0000 S   0  0  0  0  0  0  0  0  0  0  0  0
    1.7532    0.0000    0.0000 N   0  0  0  0  0  0  0  0  0  0  0  0
    2.2250    0.0000    1.2194 C   0  0  0  0  0  0  0  0  0  0  0  0
    1.2448    0.0093    2.2731 N   0  0  0  0  0  0  0  0  0  0  0  0
   -0.0747    0.0101    1.8014 C   0  0  0  0  0  0  0  0  0  0  0  0
   -1.0762    0.0333    2.6231 N   0  0  0  0  0  0  0  0  0  0  0  0
   -2.4217    0.0144    2.2030 C   0  0  0  0  0  0  0  0  0  0  0  0
   -2.7236   -0.0299    1.0304 O   0  0  0  0  0  0  0  0  0  0  0  0
   -3.3977    0.0340    3.3332 C   0  0  0  0  0  0  0  0  0  0  0  0
    1.5630   -0.1194    3.6609 C   0  0  0  0  0  0  0  0  0  0  0  0
    1.1666    0.8886    4.5453 C   0  0  0  0  0  0  0  0  0  0  0  0
    1.4820    0.7617    5.8953 C   0  0  0  0  0  0  0  0  0  0  0  0
    2.1809   -0.3547    6.3520 C   0  0  0  0  0  0  0  0  0  0  0  0
    2.5626   -1.3580    5.4617 C   0  0  0  0  0  0  0  0  0  0  0  0
    2.2520   -1.2512    4.1095 C   0  0  0  0  0  0  0  0  0  0  0  0
    3.5584   -0.0286    1.5970 N   0  0  0  0  0  0  0  0  0  0  0  0
    4.6281    0.1878    0.6863 C   0  0  0  0  0  0  0  0  0  0  0  0
    4.5603   -0.1721   -0.6636 C   0  0  0  0  0  0  0  0  0  0  0  0
    5.6747    0.0210   -1.4751 C   0  0  0  0  0  0  0  0  0  0  0  0
    6.8497    0.5580   -0.9528 C   0  0  0  0  0  0  0  0  0  0  0  0
    6.9141    0.9037    0.3965 C   0  0  0  0  0  0  0  0  0  0  0  0
    5.8111    0.7242    1.2237 C   0  0  0  0  0  0  0  0  0  0  0  0
   -3.0681    0.6947    4.1497 H   0  0  0  0  0  0  0  0  0  0  0  0
   -3.5000   -0.9743    3.7664 H   0  0  0  0  0  0  0  0  0  0  0  0
   -4.3909    0.3603    2.9935 H   0  0  0  0  0  0  0  0  0  0  0  0
    0.5982    1.7453    4.1815 H   0  0  0  0  0  0  0  0  0  0  0  0
    1.1740    1.5377    6.5951 H   0  0  0  0  0  0  0  0  0  0  0  0
    2.4221   -0.4477    7.4095 H   0  0  0  0  0  0  0  0  0  0  0  0
    3.0978   -2.2349    5.8250 H   0  0  0  0  0  0  0  0  0  0  0  0
    2.5258   -2.0444    3.4137 H   0  0  0  0  0  0  0  0  0  0  0  0
    3.7629    0.1614    2.5804 H   0  0  0  0  0  0  0  0  0  0  0  0
    3.6472   -0.5974   -1.0894 H   0  0  0  0  0  0  0  0  0  0  0  0
    5.6221   -0.2504   -2.5295 H   0  0  0  0  0  0  0  0  0  0  0  0
    7.7134    0.7078   -1.5954 H   0  0  0  0  0  0  0  0  0  0  0  0
    7.8325    1.3224    0.8054 H   0  0  0  0  0  0  0  0  0  0  0  0
    5.8702    1.0022    2.2724 H   0  0  0  0  0  0  0  0  0  0  0  0
  1  2  1  0  0  0  0
  1  5  1  0  0  0  0
  2  3  2  0  0  0  0
  3 16  1  0  0  0  0
  3  4  1  0  0  0  0
  4 10  1  0  0  0  0
  5  4  1  0  0  0  0
  5  6  2  0  0  0  0
  7  6  1  0  0  0  0
  7  9  1  0  0  0  0
  8  7  2  0  0  0  0
  9 24  1  0  0  0  0
  9 23  1  0  0  0  0
 10 15  2  0  0  0  0
 10 11  1  0  0  0  0
 11 12  2  0  0  0  0
 12 13  1  0  0  0  0
 12 27  1  0  0  0  0
 13 28  1  0  0  0  0
 14 29  1  0  0  0  0
 14 13  2  0  0  0  0
 15 14  1  0  0  0  0
 16 31  1  0  0  0  0
 17 22  1  0  0  0  0
 17 16  1  0  0  0  0
 18 17  2  0  0  0  0
 19 20  2  0  0  0  0
 19 18  1  0  0  0  0
 20 21  1  0  0  0  0
 21 35  1  0  0  0  0
 21 22  2  0  0  0  0
 22 36  1  0  0  0  0
 25  9  1  0  0  0  0
 26 11  1  0  0  0  0
 30 15  1  0  0  0  0
 32 18  1  0  0  0  0
 33 19  1  0  0  0  0
 34 20  1  0  0  0  0
M  END
$$$$
