rmsd1.gzmat
 OpenBabel08211713383D

 36 38  0  0  0  0  0  0  0  0999 V2000
    0.0000    0.0000    0.0000 S   0  0  0  0  0  0  0  0  0  0  0  0
    1.7532    0.0000    0.0000 N   0  0  0  0  0  0  0  0  0  0  0  0
    2.2233    0.0000    1.2196 C   0  0  0  0  0  0  0  0  0  0  0  0
    1.2445    0.0171    2.2753 N   0  0  0  0  0  0  0  0  0  0  0  0
   -0.0746    0.0301    1.8026 C   0  0  0  0  0  0  0  0  0  0  0  0
   -1.0794    0.0801    2.6193 N   0  0  0  0  0  0  0  0  0  0  0  0
   -2.4224    0.0808    2.1892 C   0  0  0  0  0  0  0  0  0  0  0  0
   -2.7162   -0.0059    1.0174 O   0  0  0  0  0  0  0  0  0  0  0  0
   -3.4067    0.1877    3.3071 C   0  0  0  0  0  0  0  0  0  0  0  0
    1.5693   -0.1406    3.6585 C   0  0  0  0  0  0  0  0  0  0  0  0
    1.1370    0.8224    4.5755 C   0  0  0  0  0  0  0  0  0  0  0  0
    1.4718    0.6719    5.9186 C   0  0  0  0  0  0  0  0  0  0  0  0
    2.2251   -0.4233    6.3379 C   0  0  0  0  0  0  0  0  0  0  0  0
    2.6395   -1.3846    5.4163 C   0  0  0  0  0  0  0  0  0  0  0  0
    2.3094   -1.2548    4.0710 C   0  0  0  0  0  0  0  0  0  0  0  0
    3.5563   -0.0215    1.6000 N   0  0  0  0  0  0  0  0  0  0  0  0
    4.6306    0.0416    0.6724 C   0  0  0  0  0  0  0  0  0  0  0  0
    5.8314    0.6063    1.1355 C   0  0  0  0  0  0  0  0  0  0  0  0
    6.9433    0.6183    0.3003 C   0  0  0  0  0  0  0  0  0  0  0  0
    6.8682    0.0818   -0.9844 C   0  0  0  0  0  0  0  0  0  0  0  0
    5.6718   -0.4727   -1.4357 C   0  0  0  0  0  0  0  0  0  0  0  0
    4.5483   -0.5004   -0.6149 C   0  0  0  0  0  0  0  0  0  0  0  0
   -3.3722   -0.7105    3.9445 H   0  0  0  0  0  0  0  0  0  0  0  0
   -4.4309    0.2998    2.9238 H   0  0  0  0  0  0  0  0  0  0  0  0
   -3.1811    1.0441    3.9616 H   0  0  0  0  0  0  0  0  0  0  0  0
    0.5277    1.6630    4.2415 H   0  0  0  0  0  0  0  0  0  0  0  0
    1.1379    1.4146    6.6423 H   0  0  0  0  0  0  0  0  0  0  0  0
    2.4845   -0.5325    7.3895 H   0  0  0  0  0  0  0  0  0  0  0  0
    3.2175   -2.2461    5.7491 H   0  0  0  0  0  0  0  0  0  0  0  0
    2.6122   -2.0155    3.3510 H   0  0  0  0  0  0  0  0  0  0  0  0
    3.7671    0.2706    2.5562 H   0  0  0  0  0  0  0  0  0  0  0  0
    5.8971    1.0341    2.1320 H   0  0  0  0  0  0  0  0  0  0  0  0
    7.8778    1.0539    0.6522 H   0  0  0  0  0  0  0  0  0  0  0  0
    7.7405    0.0971   -1.6327 H   0  0  0  0  0  0  0  0  0  0  0  0
    5.6105   -0.8901   -2.4406 H   0  0  0  0  0  0  0  0  0  0  0  0
    3.6163   -0.9364   -0.9837 H   0  0  0  0  0  0  0  0  0  0  0  0
  1  2  1  0  0  0  0
  1  5  1  0  0  0  0
  2  3  2  0  0  0  0
  3 16  1  0  0  0  0
  3  4  1  0  0  0  0
  4 10  1  0  0  0  0
  5  4  1  0  0  0  0
  5  6  2  0  0  0  0
  7  6  1  0  0  0  0
  7  9  1  0  0  0  0
  8  7  2  0  0  0  0
  9 23  1  0  0  0  0
  9 25  1  0  0  0  0
 10 15  2  0  0  0  0
 10 11  1  0  0  0  0
 11 12  2  0  0  0  0
 12 13  1  0  0  0  0
 12 27  1  0  0  0  0
 13 28  1  0  0  0  0
 14 29  1  0  0  0  0
 14 13  2  0  0  0  0
 15 14  1  0  0  0  0
 16 31  1  0  0  0  0
 17 18  1  0  0  0  0
 17 16  1  0  0  0  0
 18 32  1  0  0  0  0
 19 33  1  0  0  0  0
 19 18  2  0  0  0  0
 20 19  1  0  0  0  0
 21 20  2  0  0  0  0
 21 22  1  0  0  0  0
 22 17  2  0  0  0  0
 24  9  1  0  0  0  0
 26 11  1  0  0  0  0
 30 15  1  0  0  0  0
 34 20  1  0  0  0  0
 35 21  1  0  0  0  0
 36 22  1  0  0  0  0
M  END
$$$$
