rmsd27.gzmat
 OpenBabel08211713383D

 36 38  0  0  0  0  0  0  0  0999 V2000
    0.0000    0.0000    0.0000 S   0  0  0  0  0  0  0  0  0  0  0  0
    1.7533    0.0000    0.0000 N   0  0  0  0  0  0  0  0  0  0  0  0
    2.2241    0.0000    1.2196 C   0  0  0  0  0  0  0  0  0  0  0  0
    1.2448   -0.0066    2.2746 N   0  0  0  0  0  0  0  0  0  0  0  0
   -0.0750   -0.0101    1.8020 C   0  0  0  0  0  0  0  0  0  0  0  0
   -1.0766   -0.0332    2.6232 N   0  0  0  0  0  0  0  0  0  0  0  0
   -2.4234   -0.0344    2.2056 C   0  0  0  0  0  0  0  0  0  0  0  0
   -2.7288   -0.0264    1.0334 O   0  0  0  0  0  0  0  0  0  0  0  0
   -3.3953   -0.0437    3.3396 C   0  0  0  0  0  0  0  0  0  0  0  0
    1.5671    0.1356    3.6600 C   0  0  0  0  0  0  0  0  0  0  0  0
    2.3193    1.2371    4.0850 C   0  0  0  0  0  0  0  0  0  0  0  0
    2.6449    1.3516    5.4328 C   0  0  0  0  0  0  0  0  0  0  0  0
    2.2123    0.3893    6.3448 C   0  0  0  0  0  0  0  0  0  0  0  0
    1.4458   -0.6922    5.9133 C   0  0  0  0  0  0  0  0  0  0  0  0
    1.1178   -0.8288    4.5671 C   0  0  0  0  0  0  0  0  0  0  0  0
    3.5582    0.0209    1.5972 N   0  0  0  0  0  0  0  0  0  0  0  0
    4.6271   -0.1514    0.6762 C   0  0  0  0  0  0  0  0  0  0  0  0
    4.5644    0.2955   -0.6475 C   0  0  0  0  0  0  0  0  0  0  0  0
    5.6817    0.1517   -1.4650 C   0  0  0  0  0  0  0  0  0  0  0  0
    6.8522   -0.4240   -0.9746 C   0  0  0  0  0  0  0  0  0  0  0  0
    6.9095   -0.8598    0.3484 C   0  0  0  0  0  0  0  0  0  0  0  0
    5.8042   -0.7290    1.1816 C   0  0  0  0  0  0  0  0  0  0  0  0
   -3.1988   -0.8796    4.0293 H   0  0  0  0  0  0  0  0  0  0  0  0
   -4.4291   -0.1261    2.9757 H   0  0  0  0  0  0  0  0  0  0  0  0
   -3.3108    0.8789    3.9362 H   0  0  0  0  0  0  0  0  0  0  0  0
    2.6321    2.0015    3.3734 H   0  0  0  0  0  0  0  0  0  0  0  0
    3.2330    2.2031    5.7746 H   0  0  0  0  0  0  0  0  0  0  0  0
    2.4669    0.4876    7.3987 H   0  0  0  0  0  0  0  0  0  0  0  0
    1.0952   -1.4340    6.6303 H   0  0  0  0  0  0  0  0  0  0  0  0
    0.5000   -1.6595    4.2233 H   0  0  0  0  0  0  0  0  0  0  0  0
    3.7640   -0.2165    2.5701 H   0  0  0  0  0  0  0  0  0  0  0  0
    3.6528    0.7476   -1.0474 H   0  0  0  0  0  0  0  0  0  0  0  0
    5.6358    0.4937   -2.4986 H   0  0  0  0  0  0  0  0  0  0  0  0
    7.7185   -0.5344   -1.6217 H   0  0  0  0  0  0  0  0  0  0  0  0
    7.8240   -1.3096    0.7327 H   0  0  0  0  0  0  0  0  0  0  0  0
    5.8571   -1.0761    2.2099 H   0  0  0  0  0  0  0  0  0  0  0  0
  1  2  1  0  0  0  0
  1  5  1  0  0  0  0
  2  3  2  0  0  0  0
  3 16  1  0  0  0  0
  3  4  1  0  0  0  0
  4 10  1  0  0  0  0
  5  4  1  0  0  0  0
  5  6  2  0  0  0  0
  7  6  1  0  0  0  0
  7  9  1  0  0  0  0
  8  7  2  0  0  0  0
  9 25  1  0  0  0  0
  9 23  1  0  0  0  0
 10 11  2  0  0  0  0
 10 15  1  0  0  0  0
 11 12  1  0  0  0  0
 12 27  1  0  0  0  0
 12 13  2  0  0  0  0
 13 28  1  0  0  0  0
 14 13  1  0  0  0  0
 14 29  1  0  0  0  0
 15 14  2  0  0  0  0
 16 31  1  0  0  0  0
 17 22  1  0  0  0  0
 17 16  1  0  0  0  0
 18 17  2  0  0  0  0
 19 20  2  0  0  0  0
 19 18  1  0  0  0  0
 20 21  1  0  0  0  0
 21 35  1  0  0  0  0
 21 22  2  0  0  0  0
 22 36  1  0  0  0  0
 24  9  1  0  0  0  0
 26 11  1  0  0  0  0
 30 15  1  0  0  0  0
 32 18  1  0  0  0  0
 33 19  1  0  0  0  0
 34 20  1  0  0  0  0
M  END
$$$$
