39
rmsd19.gzmat
Br         0.00000        0.00000        0.00000
C          1.88430        0.00000        0.00000
C          2.57720        0.00000        1.21620
C          3.98360       -0.02020        1.20100
C          4.66160       -0.04610       -0.01890
C          3.94300       -0.05050       -1.20910
Br         4.87430       -0.10340       -2.84590
C          2.55160       -0.02340       -1.21860
C          4.79340       -0.06810        2.46600
N          4.40900        1.06620        3.40030
H          3.34790        0.99300        3.53830
C          4.73330        2.37680        2.73950
C          5.09940        0.98290        4.76940
C          4.37320        1.92440        5.74700
C          2.95620        1.44210        6.07700
C          2.98050        0.01610        6.63490
C          3.68890       -0.94380        5.67400
C          5.09730       -0.43880        5.34780
N          1.90950        0.06300        2.48770
H          5.75580       -0.07050       -0.03440
H          1.99490       -0.02810       -2.16640
H          5.88890       -0.02890        2.26450
H          4.60150       -1.04710        2.97770
H          4.39530        3.22930        3.35670
H          4.21890        2.45810        1.76120
H          5.81660        2.48860        2.55900
H          6.15960        1.31970        4.62360
H          4.35100        2.96650        5.37870
H          4.96880        1.97610        6.68740
H          2.49450        2.12610        6.82130
H          2.29410        1.49980        5.19370
H          3.48430        0.00320        7.62280
H          1.94690       -0.33330        6.83180
H          3.75440       -1.95280        6.13570
H          3.09010       -1.08300        4.75750
H          5.69940       -0.42560        6.28770
H          5.63510       -1.15400        4.69880
H          1.72150       -0.86540        2.86390
H          1.03280        0.58070        2.46230
