rmsd36.gzmat
 OpenBabel08211713363D

 39 40  0  0  0  0  0  0  0  0999 V2000
    0.0000    0.0000    0.0000 Br  0  0  0  0  0  0  0  0  0  0  0  0
    1.8857    0.0000    0.0000 C   0  0  0  0  0  0  0  0  0  0  0  0
    2.5919    0.0000    1.2287 C   0  0  0  0  0  0  0  0  0  0  0  0
    4.0035   -0.0213    1.1842 C   0  0  0  0  0  0  0  0  0  0  0  0
    4.6612    0.0207   -0.0554 C   0  0  0  0  0  0  0  0  0  0  0  0
    3.9368    0.0284   -1.2300 C   0  0  0  0  0  0  0  0  0  0  0  0
    4.8412    0.0716   -2.8830 Br  0  0  0  0  0  0  0  0  0  0  0  0
    2.5372    0.0102   -1.2166 C   0  0  0  0  0  0  0  0  0  0  0  0
    4.8548   -0.0897    2.4052 C   0  0  0  0  0  0  0  0  0  0  0  0
    5.3246   -1.5365    2.5967 N   0  0  0  0  0  0  0  0  0  0  0  0
    5.5210   -1.9484    1.6445 H   0  0  0  0  0  0  0  0  0  0  0  0
    4.2255   -2.3299    3.2430 C   0  0  0  0  0  0  0  0  0  0  0  0
    6.6277   -1.5887    3.4126 C   0  0  0  0  0  0  0  0  0  0  0  0
    6.9987   -3.0344    3.7725 C   0  0  0  0  0  0  0  0  0  0  0  0
    7.3471   -3.8758    2.5412 C   0  0  0  0  0  0  0  0  0  0  0  0
    8.4792   -3.2238    1.7418 C   0  0  0  0  0  0  0  0  0  0  0  0
    8.1340   -1.7822    1.3580 C   0  0  0  0  0  0  0  0  0  0  0  0
    7.7711   -0.9596    2.5987 C   0  0  0  0  0  0  0  0  0  0  0  0
    1.9134   -0.0657    2.4348 N   0  0  0  0  0  0  0  0  0  0  0  0
    5.7538    0.0581   -0.0793 H   0  0  0  0  0  0  0  0  0  0  0  0
    1.9743    0.0148   -2.1617 H   0  0  0  0  0  0  0  0  0  0  0  0
    4.3507    0.2569    3.3328 H   0  0  0  0  0  0  0  0  0  0  0  0
    5.7500    0.5746    2.2942 H   0  0  0  0  0  0  0  0  0  0  0  0
    4.4373   -3.4146    3.2040 H   0  0  0  0  0  0  0  0  0  0  0  0
    3.2623   -2.1745    2.7104 H   0  0  0  0  0  0  0  0  0  0  0  0
    4.0800   -2.0440    4.2985 H   0  0  0  0  0  0  0  0  0  0  0  0
    6.4495   -1.0003    4.3500 H   0  0  0  0  0  0  0  0  0  0  0  0
    6.2161   -3.5279    4.3782 H   0  0  0  0  0  0  0  0  0  0  0  0
    7.8840   -3.0029    4.4513 H   0  0  0  0  0  0  0  0  0  0  0  0
    7.6594   -4.8934    2.8638 H   0  0  0  0  0  0  0  0  0  0  0  0
    6.4636   -4.0418    1.9006 H   0  0  0  0  0  0  0  0  0  0  0  0
    9.4190   -3.2442    2.3314 H   0  0  0  0  0  0  0  0  0  0  0  0
    8.6961   -3.8199    0.8316 H   0  0  0  0  0  0  0  0  0  0  0  0
    9.0046   -1.3159    0.8461 H   0  0  0  0  0  0  0  0  0  0  0  0
    7.3249   -1.7634    0.6067 H   0  0  0  0  0  0  0  0  0  0  0  0
    8.6664   -0.8882    3.2604 H   0  0  0  0  0  0  0  0  0  0  0  0
    7.5585    0.0893    2.3182 H   0  0  0  0  0  0  0  0  0  0  0  0
    0.9120    0.0563    2.4510 H   0  0  0  0  0  0  0  0  0  0  0  0
    2.3596    0.2870    3.2596 H   0  0  0  0  0  0  0  0  0  0  0  0
  1  2  1  0  0  0  0
  2  3  2  0  0  0  0
  3 19  1  0  0  0  0
  4  3  1  0  0  0  0
  4  9  1  0  0  0  0
  5  4  2  0  0  0  0
  6  8  2  0  0  0  0
  6  5  1  0  0  0  0
  7  6  1  0  0  0  0
  8  2  1  0  0  0  0
  9 10  1  0  0  0  0
  9 22  1  0  0  0  0
 10 12  1  0  0  0  0
 10 13  1  0  0  0  0
 11 10  1  0  0  0  0
 12 26  1  0  0  0  0
 13 14  1  0  0  0  0
 13 27  1  0  0  0  0
 14 28  1  0  0  0  0
 14 29  1  0  0  0  0
 15 30  1  0  0  0  0
 15 14  1  0  0  0  0
 16 32  1  0  0  0  0
 16 15  1  0  0  0  0
 17 16  1  0  0  0  0
 17 18  1  0  0  0  0
 18 36  1  0  0  0  0
 18 13  1  0  0  0  0
 19 38  1  0  0  0  0
 19 39  1  0  0  0  0
 20  5  1  0  0  0  0
 21  8  1  0  0  0  0
 23  9  1  0  0  0  0
 24 12  1  0  0  0  0
 25 12  1  0  0  0  0
 31 15  1  0  0  0  0
 33 16  1  0  0  0  0
 34 17  1  0  0  0  0
 35 17  1  0  0  0  0
 37 18  1  0  0  0  0
M  END
$$$$
