39
rmsd35.gzmat
Br         0.00000        0.00000        0.00000
C          1.88590        0.00000        0.00000
C          2.59300        0.00000        1.22910
C          4.00570       -0.03290        1.18450
C          4.66340        0.00390       -0.05470
C          3.93790        0.01300       -1.22890
Br         4.83910        0.04220       -2.88370
C          2.53770        0.00420       -1.21570
C          4.84950       -0.10540        2.41090
N          5.39290       -1.52770        2.57210
H          5.93080       -1.77060        1.69890
C          4.24910       -2.49210        2.72180
C          6.34620       -1.64990        3.77410
C          6.99980       -3.04160        3.77430
C          7.94100       -3.24650        2.58290
C          9.01230       -2.15300        2.53660
C          8.38890       -0.75390        2.53720
C          7.44600       -0.58020        3.73130
N          1.91300       -0.05000        2.43060
H          5.75590        0.03450       -0.07950
H          1.97350        0.00770       -2.16030
H          4.31850        0.18470        3.34230
H          5.71670        0.59970        2.32320
H          4.60430       -3.53850        2.71660
H          3.52880       -2.38960        1.88330
H          3.68890       -2.31740        3.65670
H          5.72280       -1.51740        4.69670
H          6.25130       -3.85420        3.82600
H          7.58300       -3.14990        4.71910
H          8.43010       -4.24230        2.66590
H          7.38650       -3.28810        1.62920
H          9.70050       -2.26050        3.40050
H          9.65320       -2.28450        1.64060
H          9.19590        0.01020        2.58750
H          7.87330       -0.55560        1.58190
H          8.03860       -0.66160        4.67400
H          7.03580        0.44610        3.76490
H          0.91690        0.09970        2.45460
H          2.37860        0.23700        3.26860
