39
rmsd31.gzmat
Br         0.00000        0.00000        0.00000
C          1.88580        0.00000        0.00000
C          2.59150        0.00000        1.22980
C          4.00400       -0.04700        1.18580
C          4.66280       -0.01440       -0.05310
C          3.93870        0.00030       -1.22790
Br         4.84310        0.02610       -2.88090
C          2.53850       -0.00150       -1.21520
C          4.84860       -0.13120        2.41000
N          5.35460       -1.56740        2.57970
H          5.81070       -1.86550        1.67720
C          4.19270       -2.47970        2.85350
C          6.40680       -1.64930        3.69970
C          6.82230       -3.10630        3.95070
C          7.56250       -3.71970        2.75850
C          8.78530       -2.87630        2.38520
C          8.40320       -1.41620        2.12510
C          7.64850       -0.82710        3.32080
N          1.90760       -0.03950        2.42960
H          5.75560        0.00880       -0.07860
H          1.97530        0.00210       -2.16000
H          4.32850        0.17880        3.34170
H          5.73340        0.55080        2.31900
H          4.49040       -3.54120        2.77100
H          3.37800       -2.31840        2.11610
H          3.76810       -2.31150        3.85750
H          5.93220       -1.22630        4.62300
H          5.96620       -3.73900        4.25090
H          7.49490       -3.12410        4.84080
H          7.89000       -4.75090        3.01790
H          6.89630       -3.84690        1.88780
H          9.54320       -2.93190        3.19340
H          9.28430       -3.30470        1.49170
H          9.32400       -0.82010        1.93930
H          7.81990       -1.32650        1.19230
H          8.33130       -0.80630        4.20320
H          7.40890        0.23830        3.14440
H          0.91620        0.13980        2.45390
H          2.37870        0.22520        3.27050
