rmsd28.gzmat
 OpenBabel08211713363D

 39 40  0  0  0  0  0  0  0  0999 V2000
    0.0000    0.0000    0.0000 Br  0  0  0  0  0  0  0  0  0  0  0  0
    1.8845    0.0000    0.0000 C   0  0  0  0  0  0  0  0  0  0  0  0
    2.5831    0.0000    1.2134 C   0  0  0  0  0  0  0  0  0  0  0  0
    3.9903   -0.0209    1.1896 C   0  0  0  0  0  0  0  0  0  0  0  0
    4.6635   -0.0605   -0.0327 C   0  0  0  0  0  0  0  0  0  0  0  0
    3.9395   -0.0566   -1.2193 C   0  0  0  0  0  0  0  0  0  0  0  0
    4.8612   -0.0926   -2.8622 Br  0  0  0  0  0  0  0  0  0  0  0  0
    2.5479   -0.0232   -1.2207 C   0  0  0  0  0  0  0  0  0  0  0  0
    4.7947   -0.0074    2.4562 C   0  0  0  0  0  0  0  0  0  0  0  0
    4.4719    1.2376    3.2746 N   0  0  0  0  0  0  0  0  0  0  0  0
    3.4141    1.2494    3.4136 H   0  0  0  0  0  0  0  0  0  0  0  0
    4.8850    2.4537    2.4968 C   0  0  0  0  0  0  0  0  0  0  0  0
    5.1588    1.1825    4.6468 C   0  0  0  0  0  0  0  0  0  0  0  0
    5.0114    2.5175    5.3928 C   0  0  0  0  0  0  0  0  0  0  0  0
    3.5561    2.8211    5.7608 C   0  0  0  0  0  0  0  0  0  0  0  0
    2.9745    1.6915    6.6167 C   0  0  0  0  0  0  0  0  0  0  0  0
    3.0984    0.3390    5.9087 C   0  0  0  0  0  0  0  0  0  0  0  0
    4.5482    0.0574    5.4992 C   0  0  0  0  0  0  0  0  0  0  0  0
    1.9325    0.0836    2.4855 N   0  0  0  0  0  0  0  0  0  0  0  0
    5.7573   -0.0970   -0.0529 H   0  0  0  0  0  0  0  0  0  0  0  0
    1.9860   -0.0245   -2.1656 H   0  0  0  0  0  0  0  0  0  0  0  0
    5.8910   -0.0412    2.2538 H   0  0  0  0  0  0  0  0  0  0  0  0
    4.5592   -0.9158    3.0661 H   0  0  0  0  0  0  0  0  0  0  0  0
    4.4769    3.3739    2.9550 H   0  0  0  0  0  0  0  0  0  0  0  0
    4.4916    2.4112    1.4610 H   0  0  0  0  0  0  0  0  0  0  0  0
    5.9829    2.5482    2.4371 H   0  0  0  0  0  0  0  0  0  0  0  0
    6.2456    0.9759    4.4603 H   0  0  0  0  0  0  0  0  0  0  0  0
    5.4640    3.3593    4.8371 H   0  0  0  0  0  0  0  0  0  0  0  0
    5.6161    2.4574    6.3284 H   0  0  0  0  0  0  0  0  0  0  0  0
    3.5056    3.7797    6.3210 H   0  0  0  0  0  0  0  0  0  0  0  0
    2.9358    2.9844    4.8619 H   0  0  0  0  0  0  0  0  0  0  0  0
    3.4887    1.6553    7.5984 H   0  0  0  0  0  0  0  0  0  0  0  0
    1.9110    1.9005    6.8534 H   0  0  0  0  0  0  0  0  0  0  0  0
    2.7435   -0.4677    6.5866 H   0  0  0  0  0  0  0  0  0  0  0  0
    2.4200    0.3003    5.0379 H   0  0  0  0  0  0  0  0  0  0  0  0
    5.1673   -0.0508    6.4205 H   0  0  0  0  0  0  0  0  0  0  0  0
    4.6236   -0.9281    5.0032 H   0  0  0  0  0  0  0  0  0  0  0  0
    1.8896   -0.8187    2.9563 H   0  0  0  0  0  0  0  0  0  0  0  0
    0.9952    0.4784    2.4530 H   0  0  0  0  0  0  0  0  0  0  0  0
  1  2  1  0  0  0  0
  2  3  2  0  0  0  0
  3 19  1  0  0  0  0
  4  3  1  0  0  0  0
  4  9  1  0  0  0  0
  5  4  2  0  0  0  0
  6  5  1  0  0  0  0
  7  6  1  0  0  0  0
  8  6  2  0  0  0  0
  8  2  1  0  0  0  0
  9 23  1  0  0  0  0
  9 10  1  0  0  0  0
 10 11  1  0  0  0  0
 10 13  1  0  0  0  0
 12 24  1  0  0  0  0
 12 10  1  0  0  0  0
 13 14  1  0  0  0  0
 13 18  1  0  0  0  0
 14 15  1  0  0  0  0
 14 29  1  0  0  0  0
 15 30  1  0  0  0  0
 15 16  1  0  0  0  0
 16 33  1  0  0  0  0
 16 32  1  0  0  0  0
 17 34  1  0  0  0  0
 17 16  1  0  0  0  0
 18 17  1  0  0  0  0
 18 36  1  0  0  0  0
 19 38  1  0  0  0  0
 20  5  1  0  0  0  0
 21  8  1  0  0  0  0
 22  9  1  0  0  0  0
 25 12  1  0  0  0  0
 26 12  1  0  0  0  0
 27 13  1  0  0  0  0
 28 14  1  0  0  0  0
 31 15  1  0  0  0  0
 35 17  1  0  0  0  0
 37 18  1  0  0  0  0
 39 19  1  0  0  0  0
M  END
$$$$
