39
rmsd36.gzmat
Br         0.00000        0.00000        0.00000
C          1.88570        0.00000        0.00000
C          2.59190        0.00000        1.22870
C          4.00350       -0.02130        1.18420
C          4.66120        0.02070       -0.05540
C          3.93680        0.02840       -1.23000
Br         4.84120        0.07160       -2.88300
C          2.53720        0.01020       -1.21660
C          4.85480       -0.08970        2.40520
N          5.32460       -1.53650        2.59670
H          5.52100       -1.94840        1.64450
C          4.22550       -2.32990        3.24300
C          6.62770       -1.58870        3.41260
C          6.99870       -3.03440        3.77250
C          7.34710       -3.87580        2.54120
C          8.47920       -3.22380        1.74180
C          8.13400       -1.78220        1.35800
C          7.77110       -0.95960        2.59870
N          1.91340       -0.06570        2.43480
H          5.75380        0.05810       -0.07930
H          1.97430        0.01480       -2.16170
H          4.35070        0.25690        3.33280
H          5.75000        0.57460        2.29420
H          4.43730       -3.41460        3.20400
H          3.26230       -2.17450        2.71040
H          4.08000       -2.04400        4.29850
H          6.44950       -1.00030        4.35000
H          6.21610       -3.52790        4.37820
H          7.88400       -3.00290        4.45130
H          7.65940       -4.89340        2.86380
H          6.46360       -4.04180        1.90060
H          9.41900       -3.24420        2.33140
H          8.69610       -3.81990        0.83160
H          9.00460       -1.31590        0.84610
H          7.32490       -1.76340        0.60670
H          8.66640       -0.88820        3.26040
H          7.55850        0.08930        2.31820
H          0.91200        0.05630        2.45100
H          2.35960        0.28700        3.25960
