rmsd31.gzmat
 OpenBabel08211713363D

 39 40  0  0  0  0  0  0  0  0999 V2000
    0.0000    0.0000    0.0000 Br  0  0  0  0  0  0  0  0  0  0  0  0
    1.8858    0.0000    0.0000 C   0  0  0  0  0  0  0  0  0  0  0  0
    2.5915    0.0000    1.2298 C   0  0  0  0  0  0  0  0  0  0  0  0
    4.0040   -0.0470    1.1858 C   0  0  0  0  0  0  0  0  0  0  0  0
    4.6628   -0.0144   -0.0531 C   0  0  0  0  0  0  0  0  0  0  0  0
    3.9387    0.0003   -1.2279 C   0  0  0  0  0  0  0  0  0  0  0  0
    4.8431    0.0261   -2.8809 Br  0  0  0  0  0  0  0  0  0  0  0  0
    2.5385   -0.0015   -1.2152 C   0  0  0  0  0  0  0  0  0  0  0  0
    4.8486   -0.1312    2.4100 C   0  0  0  0  0  0  0  0  0  0  0  0
    5.3546   -1.5674    2.5797 N   0  0  0  0  0  0  0  0  0  0  0  0
    5.8107   -1.8655    1.6772 H   0  0  0  0  0  0  0  0  0  0  0  0
    4.1927   -2.4797    2.8535 C   0  0  0  0  0  0  0  0  0  0  0  0
    6.4068   -1.6493    3.6997 C   0  0  0  0  0  0  0  0  0  0  0  0
    6.8223   -3.1063    3.9507 C   0  0  0  0  0  0  0  0  0  0  0  0
    7.5625   -3.7197    2.7585 C   0  0  0  0  0  0  0  0  0  0  0  0
    8.7853   -2.8763    2.3852 C   0  0  0  0  0  0  0  0  0  0  0  0
    8.4032   -1.4162    2.1251 C   0  0  0  0  0  0  0  0  0  0  0  0
    7.6485   -0.8271    3.3208 C   0  0  0  0  0  0  0  0  0  0  0  0
    1.9076   -0.0395    2.4296 N   0  0  0  0  0  0  0  0  0  0  0  0
    5.7556    0.0088   -0.0786 H   0  0  0  0  0  0  0  0  0  0  0  0
    1.9753    0.0021   -2.1600 H   0  0  0  0  0  0  0  0  0  0  0  0
    4.3285    0.1788    3.3417 H   0  0  0  0  0  0  0  0  0  0  0  0
    5.7334    0.5508    2.3190 H   0  0  0  0  0  0  0  0  0  0  0  0
    4.4904   -3.5412    2.7710 H   0  0  0  0  0  0  0  0  0  0  0  0
    3.3780   -2.3184    2.1161 H   0  0  0  0  0  0  0  0  0  0  0  0
    3.7681   -2.3115    3.8575 H   0  0  0  0  0  0  0  0  0  0  0  0
    5.9322   -1.2263    4.6230 H   0  0  0  0  0  0  0  0  0  0  0  0
    5.9662   -3.7390    4.2509 H   0  0  0  0  0  0  0  0  0  0  0  0
    7.4949   -3.1241    4.8408 H   0  0  0  0  0  0  0  0  0  0  0  0
    7.8900   -4.7509    3.0179 H   0  0  0  0  0  0  0  0  0  0  0  0
    6.8963   -3.8469    1.8878 H   0  0  0  0  0  0  0  0  0  0  0  0
    9.5432   -2.9319    3.1934 H   0  0  0  0  0  0  0  0  0  0  0  0
    9.2843   -3.3047    1.4917 H   0  0  0  0  0  0  0  0  0  0  0  0
    9.3240   -0.8201    1.9393 H   0  0  0  0  0  0  0  0  0  0  0  0
    7.8199   -1.3265    1.1923 H   0  0  0  0  0  0  0  0  0  0  0  0
    8.3313   -0.8063    4.2032 H   0  0  0  0  0  0  0  0  0  0  0  0
    7.4089    0.2383    3.1444 H   0  0  0  0  0  0  0  0  0  0  0  0
    0.9162    0.1398    2.4539 H   0  0  0  0  0  0  0  0  0  0  0  0
    2.3787    0.2252    3.2705 H   0  0  0  0  0  0  0  0  0  0  0  0
  1  2  1  0  0  0  0
  2  3  2  0  0  0  0
  3 19  1  0  0  0  0
  4  3  1  0  0  0  0
  4  9  1  0  0  0  0
  5  4  2  0  0  0  0
  6  8  2  0  0  0  0
  6  5  1  0  0  0  0
  7  6  1  0  0  0  0
  8  2  1  0  0  0  0
  9 10  1  0  0  0  0
  9 22  1  0  0  0  0
 10 12  1  0  0  0  0
 10 13  1  0  0  0  0
 11 10  1  0  0  0  0
 12 26  1  0  0  0  0
 13 14  1  0  0  0  0
 13 27  1  0  0  0  0
 14 28  1  0  0  0  0
 14 29  1  0  0  0  0
 15 30  1  0  0  0  0
 15 14  1  0  0  0  0
 16 15  1  0  0  0  0
 16 32  1  0  0  0  0
 17 16  1  0  0  0  0
 17 18  1  0  0  0  0
 18 13  1  0  0  0  0
 18 36  1  0  0  0  0
 19 38  1  0  0  0  0
 19 39  1  0  0  0  0
 20  5  1  0  0  0  0
 21  8  1  0  0  0  0
 23  9  1  0  0  0  0
 24 12  1  0  0  0  0
 25 12  1  0  0  0  0
 31 15  1  0  0  0  0
 33 16  1  0  0  0  0
 34 17  1  0  0  0  0
 35 17  1  0  0  0  0
 37 18  1  0  0  0  0
M  END
$$$$
