39
rmsd42.gzmat
Br         0.00000        0.00000        0.00000
C          1.88560        0.00000        0.00000
C          2.59280        0.00000        1.22790
C          4.00340       -0.04090        1.18190
C          4.66110        0.00730       -0.05700
C          3.93620        0.01910       -1.23130
Br         4.84260        0.05230       -2.88310
C          2.53640        0.00600       -1.21730
C          4.85400       -0.16920        2.39890
N          5.26450       -1.64160        2.53300
H          5.33920       -2.05050        1.56090
C          4.19390       -2.38240        3.28150
C          6.63960       -1.78650        3.20530
C          6.96960       -3.26500        3.45690
C          7.12220       -4.05820        2.15580
C          8.19410       -3.42920        1.26080
C          7.90620       -1.94920        0.99160
C          7.72490       -1.17640        2.30210
N          1.91780       -0.04780        2.43780
H          5.75410        0.04320       -0.08070
H          1.97270        0.00990       -2.16220
H          4.36430        0.16470        3.33850
H          5.77120        0.46610        2.30890
H          4.34080       -3.47680        3.21280
H          3.19230       -2.16750        2.84960
H          4.17370       -2.10330        4.34840
H          6.58920       -1.23560        4.17960
H          6.23840       -3.74710        4.13160
H          7.92950       -3.31240        4.02320
H          7.40640       -5.10720        2.39210
H          6.16340       -4.14300        1.61500
H          9.19240       -3.54080        1.73180
H          8.26320       -3.98370        0.30230
H          8.75020       -1.50790        0.41650
H          7.02930       -1.83890        0.32910
H          8.68810       -1.18650        2.86450
H          7.54350       -0.10430        2.09680
H          0.91670        0.07890        2.45240
H          2.36500        0.33140        3.25160
