30

C          0.02840       -0.02110        0.06370
C          1.18950       -0.77990        0.28530
C          1.66830       -0.95430        1.58370
C          0.99720       -0.37470        2.66450
C         -0.15790        0.38470        2.44450
C         -0.64400        0.56350        1.15140
C         -0.49050        0.17640       -1.28280
O          0.10090       -0.44930       -2.33400
C         -0.61930       -0.01950       -3.40160
N         -1.58700        0.77050       -3.03770
N         -1.50000        0.90410       -1.67000
C         -0.34200       -0.52060       -4.74960
C          0.95840       -0.77930       -5.24240
C          1.10890       -1.35090       -6.51430
C         -0.00140       -1.62010       -7.31420
C         -1.28270       -1.31980       -6.84580
C         -1.45030       -0.78330       -5.56990
C          2.17550       -0.33090       -4.50030
O          2.21350        0.58110       -3.71090
O          3.27760       -1.02970       -4.84680
H          1.71270       -1.22070       -0.56450
H          2.57220       -1.54390        1.75320
H          1.37520       -0.51280        3.68030
H         -0.68220        0.83970        3.28800
H         -1.54230        1.15250        0.95970
H          2.11500       -1.55640       -6.88000
H          0.13550       -2.05550       -8.30640
H         -2.15740       -1.51680       -7.46940
H         -2.44550       -0.56920       -5.17800
H          4.01870       -0.62400       -4.36560
