30
rmsd19.gzmat
C          0.00000        0.00000        0.00000
C          1.39960        0.00000        0.00000
C          2.08440        0.00000        1.21130
C          1.37810        0.00740        2.41420
C         -0.01640        0.01840        2.41100
C         -0.71130        0.01590        1.20520
C         -0.71670       -0.00630       -1.24940
O         -0.00170       -0.37140       -2.38520
C         -0.91480       -0.26090       -3.42390
N         -2.09450        0.12750       -2.93370
N         -1.97310        0.28400       -1.59630
C         -0.47520       -0.55370       -4.76650
C          0.84250       -0.91470       -5.07210
C          1.20370       -1.20570       -6.38730
C          0.25700       -1.11770       -7.40610
C         -1.05370       -0.74890       -7.10990
C         -1.42210       -0.47150       -5.79650
C          1.90180       -0.98900       -4.04180
O          2.35750       -0.11460       -3.35440
O          2.39430       -2.25340       -3.98380
H          1.94980        0.01110       -0.94640
H          3.17340       -0.00130        1.21840
H          1.91830        0.00690        3.36000
H         -0.56310        0.03020        3.35260
H         -1.80370        0.02870        1.19250
H          2.22790       -1.50670       -6.61670
H          0.54250       -1.34030       -8.43350
H         -1.79420       -0.67950       -7.90740
H         -2.45280       -0.18730       -5.55970
H          3.10750       -2.36730       -3.30470
