rmsd2.gzmat
 OpenBabel08211713383D

 30 32  0  0  0  0  0  0  0  0999 V2000
    0.0000    0.0000    0.0000 C   0  0  0  0  0  0  0  0  0  0  0  0
    1.3996    0.0000    0.0000 C   0  0  0  0  0  0  0  0  0  0  0  0
    2.0841    0.0000    1.2118 C   0  0  0  0  0  0  0  0  0  0  0  0
    1.3776   -0.0008    2.4144 C   0  0  0  0  0  0  0  0  0  0  0  0
   -0.0172    0.0053    2.4115 C   0  0  0  0  0  0  0  0  0  0  0  0
   -0.7117    0.0093    1.2061 C   0  0  0  0  0  0  0  0  0  0  0  0
   -0.7121   -0.0087   -1.2515 C   0  0  0  0  0  0  0  0  0  0  0  0
   -2.0823   -0.2381   -1.1872 O   0  0  0  0  0  0  0  0  0  0  0  0
   -2.5089   -0.1850   -2.5074 C   0  0  0  0  0  0  0  0  0  0  0  0
   -1.4624    0.0554   -3.2990 N   0  0  0  0  0  0  0  0  0  0  0  0
   -0.3564    0.1630   -2.5266 N   0  0  0  0  0  0  0  0  0  0  0  0
   -3.9145   -0.3778   -2.7660 C   0  0  0  0  0  0  0  0  0  0  0  0
   -4.8052   -0.7915   -1.7681 C   0  0  0  0  0  0  0  0  0  0  0  0
   -6.1563   -0.9672   -2.0589 C   0  0  0  0  0  0  0  0  0  0  0  0
   -6.6242   -0.7279   -3.3504 C   0  0  0  0  0  0  0  0  0  0  0  0
   -5.7422   -0.3184   -4.3487 C   0  0  0  0  0  0  0  0  0  0  0  0
   -4.3913   -0.1426   -4.0613 C   0  0  0  0  0  0  0  0  0  0  0  0
   -4.3568   -1.0555   -0.3813 C   0  0  0  0  0  0  0  0  0  0  0  0
   -4.1145   -0.2719    0.4972 O   0  0  0  0  0  0  0  0  0  0  0  0
   -4.2808   -2.3944   -0.1741 O   0  0  0  0  0  0  0  0  0  0  0  0
    1.9445    0.0013   -0.9472 H   0  0  0  0  0  0  0  0  0  0  0  0
    3.1727    0.0003    1.2188 H   0  0  0  0  0  0  0  0  0  0  0  0
    1.9166   -0.0040    3.3605 H   0  0  0  0  0  0  0  0  0  0  0  0
   -0.5657    0.0110    3.3526 H   0  0  0  0  0  0  0  0  0  0  0  0
   -1.8064    0.0274    1.2026 H   0  0  0  0  0  0  0  0  0  0  0  0
   -6.8460   -1.2948   -1.2790 H   0  0  0  0  0  0  0  0  0  0  0  0
   -7.6808   -0.8653   -3.5784 H   0  0  0  0  0  0  0  0  0  0  0  0
   -6.1083   -0.1357   -5.3592 H   0  0  0  0  0  0  0  0  0  0  0  0
   -3.6958    0.1766   -4.8440 H   0  0  0  0  0  0  0  0  0  0  0  0
   -3.9795   -2.6366    0.7392 H   0  0  0  0  0  0  0  0  0  0  0  0
  1  2  2  0  0  0  0
  1  6  1  0  0  0  0
  2  3  1  0  0  0  0
  3 22  1  0  0  0  0
  3  4  2  0  0  0  0
  4 23  1  0  0  0  0
  5  4  1  0  0  0  0
  5 24  1  0  0  0  0
  6  5  2  0  0  0  0
  7  8  1  0  0  0  0
  7  1  1  0  0  0  0
  9  8  1  0  0  0  0
 10 11  1  0  0  0  0
 10  9  2  0  0  0  0
 11  7  2  0  0  0  0
 12  9  1  0  0  0  0
 12 13  2  0  0  0  0
 13 18  1  0  0  0  0
 14 13  1  0  0  0  0
 14 26  1  0  0  0  0
 15 14  2  0  0  0  0
 16 17  2  0  0  0  0
 16 15  1  0  0  0  0
 17 12  1  0  0  0  0
 18 20  1  0  0  0  0
 18 19  2  0  0  0  0
 20 30  1  0  0  0  0
 21  2  1  0  0  0  0
 25  6  1  0  0  0  0
 27 15  1  0  0  0  0
 28 16  1  0  0  0  0
 29 17  1  0  0  0  0
M  END
$$$$
