30
rmsd3.gzmat
C          0.00000        0.00000        0.00000
C          1.40010        0.00000        0.00000
C          2.08500        0.00000        1.21100
C          1.37900       -0.00320        2.41390
C         -0.01550       -0.00820        2.41080
C         -0.71100       -0.00760        1.20520
C         -0.71480        0.00440       -1.25020
O          0.03020        0.28210       -2.39140
C         -0.88560        0.21050       -3.43350
N         -2.08890       -0.08650       -2.94290
N         -1.98480       -0.21200       -1.59890
C         -0.38830        0.43910       -4.76740
C          0.88310        0.97890       -4.99660
C          1.34320        1.16990       -6.29710
C          0.53060        0.82190       -7.37570
C         -0.74030        0.29510       -7.15390
C         -1.20250        0.10220       -5.85450
C          1.77340        1.36120       -3.87550
O          2.55450        0.67960       -3.26780
O          1.62320        2.68070       -3.60170
H          1.95320       -0.00580       -0.94500
H          3.17400       -0.00080        1.21640
H          1.91890       -0.00350        3.35980
H         -0.56200       -0.01300        3.35240
H         -1.80330       -0.01450        1.19340
H          2.33430        1.59120       -6.47180
H          0.89180        0.96600       -8.39350
H         -1.37750        0.03200       -7.99840
H         -2.20070       -0.30910       -5.67520
H          2.19020        2.99670       -2.85170
