
     RDKit          3D

 30 32  0  0  0  0  0  0  0  0999 V2000
    0.0536    0.0426    0.0459 C   0  0  0  0  0  0  0  0  0  0  0  0
    1.4499   -0.0710    0.1546 C   0  0  0  0  0  0  0  0  0  0  0  0
    2.0365   -0.2578    1.4064 C   0  0  0  0  0  0  0  0  0  0  0  0
    1.2393   -0.3321    2.5524 C   0  0  0  0  0  0  0  0  0  0  0  0
   -0.1518   -0.2190    2.4453 C   0  0  0  0  0  0  0  0  0  0  0  0
   -0.7468   -0.0324    1.1997 C   0  0  0  0  0  0  0  0  0  0  0  0
   -0.5828    0.2415   -1.2490 C   0  0  0  0  0  0  0  0  0  0  0  0
    0.1800    0.3109   -2.3727 O   0  0  0  0  0  0  0  0  0  0  0  0
   -0.7312    0.5203   -3.3602 C   0  0  0  0  0  0  0  0  0  0  0  0
   -1.9439    0.5497   -2.8901 N   0  0  0  0  0  0  0  0  0  0  0  0
   -1.8487    0.3758   -1.5271 N   0  0  0  0  0  0  0  0  0  0  0  0
   -0.3013    0.5986   -4.7558 C   0  0  0  0  0  0  0  0  0  0  0  0
    0.9402    1.1413   -5.1572 C   0  0  0  0  0  0  0  0  0  0  0  0
    1.3292    1.0480   -6.5000 C   0  0  0  0  0  0  0  0  0  0  0  0
    0.4790    0.4886   -7.4528 C   0  0  0  0  0  0  0  0  0  0  0  0
   -0.7740    0.0044   -7.0657 C   0  0  0  0  0  0  0  0  0  0  0  0
   -1.1549    0.0475   -5.7259 C   0  0  0  0  0  0  0  0  0  0  0  0
    1.8742    1.8788   -4.2496 C   0  0  0  0  0  0  0  0  0  0  0  0
    3.0767    1.8651   -4.3550 O   0  0  0  0  0  0  0  0  0  0  0  0
    1.2312    2.6375   -3.3422 O   0  0  0  0  0  0  0  0  0  0  0  0
    2.0674   -0.0137   -0.7433 H   0  0  0  0  0  0  0  0  0  0  0  0
    3.1222   -0.3467    1.4875 H   0  0  0  0  0  0  0  0  0  0  0  0
    1.7019   -0.4787    3.5312 H   0  0  0  0  0  0  0  0  0  0  0  0
   -0.7757   -0.2769    3.3401 H   0  0  0  0  0  0  0  0  0  0  0  0
   -1.8291    0.0584    1.0963 H   0  0  0  0  0  0  0  0  0  0  0  0
    2.3047    1.4468   -6.7831 H   0  0  0  0  0  0  0  0  0  0  0  0
    0.7913    0.4363   -8.4980 H   0  0  0  0  0  0  0  0  0  0  0  0
   -1.4503   -0.4269   -7.8070 H   0  0  0  0  0  0  0  0  0  0  0  0
   -2.1121   -0.3622   -5.4003 H   0  0  0  0  0  0  0  0  0  0  0  0
    1.9146    3.0728   -2.8043 H   0  0  0  0  0  0  0  0  0  0  0  0
  1  2  2  0
  1  6  1  0
  1  7  1  0
  2  3  1  0
  2 21  1  0
  3  4  2  0
  3 22  1  0
  4  5  1  0
  4 23  1  0
  5  6  2  0
  5 24  1  0
  6 25  1  0
  7  8  1  0
  7 11  2  0
  8  9  1  0
  9 10  2  0
  9 12  1  0
 10 11  1  0
 12 13  2  0
 12 17  1  0
 13 14  1  0
 13 18  1  0
 14 15  2  0
 14 26  1  0
 15 16  1  0
 15 27  1  0
 16 17  2  0
 16 28  1  0
 17 29  1  0
 18 19  2  0
 18 20  1  0
 20 30  1  0
M  END

