
     RDKit          3D

 30 32  0  0  0  0  0  0  0  0999 V2000
    0.0284   -0.0211    0.0637 C   0  0  0  0  0  0  0  0  0  0  0  0
    1.1895   -0.7799    0.2853 C   0  0  0  0  0  0  0  0  0  0  0  0
    1.6683   -0.9543    1.5837 C   0  0  0  0  0  0  0  0  0  0  0  0
    0.9972   -0.3747    2.6645 C   0  0  0  0  0  0  0  0  0  0  0  0
   -0.1579    0.3847    2.4445 C   0  0  0  0  0  0  0  0  0  0  0  0
   -0.6440    0.5635    1.1514 C   0  0  0  0  0  0  0  0  0  0  0  0
   -0.4905    0.1764   -1.2828 C   0  0  0  0  0  0  0  0  0  0  0  0
    0.1009   -0.4493   -2.3340 O   0  0  0  0  0  0  0  0  0  0  0  0
   -0.6193   -0.0195   -3.4016 C   0  0  0  0  0  0  0  0  0  0  0  0
   -1.5870    0.7705   -3.0377 N   0  0  0  0  0  0  0  0  0  0  0  0
   -1.5000    0.9041   -1.6700 N   0  0  0  0  0  0  0  0  0  0  0  0
   -0.3420   -0.5206   -4.7496 C   0  0  0  0  0  0  0  0  0  0  0  0
    0.9584   -0.7793   -5.2424 C   0  0  0  0  0  0  0  0  0  0  0  0
    1.1089   -1.3509   -6.5143 C   0  0  0  0  0  0  0  0  0  0  0  0
   -0.0014   -1.6201   -7.3142 C   0  0  0  0  0  0  0  0  0  0  0  0
   -1.2827   -1.3198   -6.8458 C   0  0  0  0  0  0  0  0  0  0  0  0
   -1.4503   -0.7833   -5.5699 C   0  0  0  0  0  0  0  0  0  0  0  0
    2.1755   -0.3309   -4.5003 C   0  0  0  0  0  0  0  0  0  0  0  0
    2.2135    0.5811   -3.7109 O   0  0  0  0  0  0  0  0  0  0  0  0
    3.2776   -1.0297   -4.8468 O   0  0  0  0  0  0  0  0  0  0  0  0
    1.7127   -1.2207   -0.5645 H   0  0  0  0  0  0  0  0  0  0  0  0
    2.5722   -1.5439    1.7532 H   0  0  0  0  0  0  0  0  0  0  0  0
    1.3752   -0.5128    3.6803 H   0  0  0  0  0  0  0  0  0  0  0  0
   -0.6822    0.8397    3.2880 H   0  0  0  0  0  0  0  0  0  0  0  0
   -1.5423    1.1525    0.9597 H   0  0  0  0  0  0  0  0  0  0  0  0
    2.1150   -1.5564   -6.8800 H   0  0  0  0  0  0  0  0  0  0  0  0
    0.1355   -2.0555   -8.3064 H   0  0  0  0  0  0  0  0  0  0  0  0
   -2.1574   -1.5168   -7.4694 H   0  0  0  0  0  0  0  0  0  0  0  0
   -2.4455   -0.5692   -5.1780 H   0  0  0  0  0  0  0  0  0  0  0  0
    4.0187   -0.6240   -4.3656 H   0  0  0  0  0  0  0  0  0  0  0  0
  1  2  2  0
  1  6  1  0
  1  7  1  0
  2  3  1  0
  2 21  1  0
  3  4  2  0
  3 22  1  0
  4  5  1  0
  4 23  1  0
  5  6  2  0
  5 24  1  0
  6 25  1  0
  7  8  1  0
  7 11  2  0
  8  9  1  0
  9 10  2  0
  9 12  1  0
 10 11  1  0
 12 13  2  0
 12 17  1  0
 13 14  1  0
 13 18  1  0
 14 15  2  0
 14 26  1  0
 15 16  1  0
 15 27  1  0
 16 17  2  0
 16 28  1  0
 17 29  1  0
 18 19  2  0
 18 20  1  0
 20 30  1  0
M  END

