30
rmsd20.gzmat
C          0.00000        0.00000        0.00000
C          1.39930        0.00000        0.00000
C          2.08350        0.00000        1.21170
C          1.37620        0.00610        2.41390
C         -0.01840        0.01140        2.41000
C         -0.71270        0.00850        1.20400
C         -0.71720        0.00170       -1.24880
O         -0.02310       -0.41880       -2.37810
C         -0.93330       -0.28370       -3.41610
N         -2.09240        0.16860       -2.93100
N         -1.95960        0.34410       -1.59770
C         -0.52110       -0.63020       -4.75480
C          0.80530       -0.92380       -5.09310
C          1.13390       -1.27420       -6.40300
C          0.14490       -1.31590       -7.38390
C         -1.17520       -1.01490       -7.05440
C         -1.50990       -0.67630       -5.74660
C          1.90430       -0.86830       -4.10530
O          2.26410        0.04400       -3.41040
O          2.56670       -2.05490       -4.09680
H          1.94930        0.01190       -0.94570
H          3.17220       -0.00030        1.21820
H          1.91540        0.00920        3.36000
H         -0.56580        0.01830        3.35090
H         -1.80480        0.01650        1.19000
H          2.16710       -1.52120       -6.65680
H          0.40390       -1.58740       -8.40670
H         -1.95010       -1.04730       -7.82090
H         -2.54740       -0.44440       -5.48480
H          3.31630       -2.08230       -3.44950
