30

C          0.05360        0.04260        0.04590
C          1.44990       -0.07100        0.15460
C          2.03650       -0.25780        1.40640
C          1.23930       -0.33210        2.55240
C         -0.15180       -0.21900        2.44530
C         -0.74680       -0.03240        1.19970
C         -0.58280        0.24150       -1.24900
O          0.18000        0.31090       -2.37270
C         -0.73120        0.52030       -3.36020
N         -1.94390        0.54970       -2.89010
N         -1.84870        0.37580       -1.52710
C         -0.30130        0.59860       -4.75580
C          0.94020        1.14130       -5.15720
C          1.32920        1.04800       -6.50000
C          0.47900        0.48860       -7.45280
C         -0.77400        0.00440       -7.06570
C         -1.15490        0.04750       -5.72590
C          1.87420        1.87880       -4.24960
O          3.07670        1.86510       -4.35500
O          1.23120        2.63750       -3.34220
H          2.06740       -0.01370       -0.74330
H          3.12220       -0.34670        1.48750
H          1.70190       -0.47870        3.53120
H         -0.77570       -0.27690        3.34010
H         -1.82910        0.05840        1.09630
H          2.30470        1.44680       -6.78310
H          0.79130        0.43630       -8.49800
H         -1.45030       -0.42690       -7.80700
H         -2.11210       -0.36220       -5.40030
H          1.91460        3.07280       -2.80430
