46

O          0.08990        0.05240        0.06410
C          1.27290       -0.02670       -0.22380
C          2.36840       -0.23280        0.67830
N          2.39140       -0.48180        2.03940
C          1.23350       -0.53400        2.91420
C          3.68870       -0.73500        2.35110
N          4.50160       -0.67030        1.29960
C          3.68210       -0.36240        0.26350
N          4.03480       -0.22530       -1.06030
C          5.41680       -0.37340       -1.50170
C          3.05270       -0.02390       -2.02130
O          3.34340        0.06220       -3.20290
N          1.72020        0.04140       -1.56850
C          0.67560       -0.06520       -2.59230
C          0.25920       -1.53420       -2.77890
N          1.43980       -2.37230       -3.01250
C          1.97130       -2.33370       -4.32740
O          1.36050       -1.82350       -5.25220
C          3.27950       -2.91920       -4.37640
N          4.20850       -2.98610       -5.39990
C          4.02020       -2.49420       -6.75320
C          5.32770       -3.52790       -4.85390
N          5.19360       -3.81340       -3.56120
C          3.92560       -3.43290       -3.26580
N          3.31080       -3.48160       -2.03480
C          3.99420       -4.01160       -0.86060
C          2.04140       -2.94200       -1.87310
O          1.49660       -2.94320       -0.78160
H          0.53810       -1.31190        2.56970
H          0.70320        0.42790        2.90260
H          1.57130       -0.76000        3.93420
H          4.00020       -0.96490        3.36980
H          5.54670       -1.30630       -2.07160
H          6.05150       -0.39670       -0.60900
H          5.69280        0.46830       -2.15040
H          1.07620        0.34240       -3.52560
H         -0.18960        0.52180       -2.26220
H         -0.40040       -1.62030       -3.65040
H         -0.24630       -1.90720       -1.88280
H          3.80740       -1.41640       -6.73440
H          3.17020       -3.00210       -7.22860
H          4.93590       -2.68410       -7.32860
H          6.22890       -3.69880       -5.44240
H          4.24890       -3.20270       -0.15870
H          4.91160       -4.50360       -1.20230
H          3.34220       -4.72630       -0.34150
