46

O         -0.24550        0.00270       -0.48500
C          0.96840       -0.09580       -0.34040
C          1.66180       -0.26130        0.90300
N          1.19530       -0.38990        2.20370
C         -0.19840       -0.44020        2.61990
C          2.29700       -0.58090        2.97490
N          3.43150       -0.58290        2.28090
C          3.04020       -0.38880        0.99560
N          3.84410       -0.32020       -0.11390
C          5.27930       -0.55890       -0.03210
C          3.27180       -0.22220       -1.37560
O          3.94800       -0.23150       -2.38470
N          1.86360       -0.11400       -1.43450
C          1.28230       -0.28670       -2.76940
C          1.22740       -1.77890       -3.13750
N          0.54940       -2.53410       -2.07770
C         -0.86630       -2.46020       -2.07880
O         -1.48670       -2.00170       -3.02410
C         -1.41470       -2.93850       -0.84180
N         -2.71160       -2.92400       -0.35880
C         -3.88670       -2.48100       -1.08850
C         -2.63710       -3.35030        0.92770
N         -1.39420       -3.63350        1.31330
C         -0.63750       -3.37770        0.21530
N          0.73040       -3.47520        0.10710
C          1.55960       -3.94060        1.21140
C          1.36720       -3.04180       -1.04960
O          2.58230       -3.07850       -1.14090
H         -0.78170        0.24710        1.99620
H         -0.26760       -0.14510        3.67560
H         -0.60510       -1.45590        2.49360
H          2.22420       -0.71720        4.05390
H          5.81610        0.20140       -0.61390
H          5.51960       -1.54980       -0.44670
H          5.56880       -0.51470        1.02360
H          1.90120        0.25170       -3.49630
H          0.27300        0.13680       -2.74410
H          2.23760       -2.18460       -3.25010
H          0.66000       -1.90830       -4.06650
H         -4.75850       -2.53990       -0.42370
H         -4.05020       -3.11440       -1.97140
H         -3.74500       -1.44720       -1.43140
H         -3.52320       -3.44070        1.55570
H          2.23430       -3.14010        1.54820
H          2.17710       -4.79060        0.88950
H          0.89290       -4.24310        2.02640
