46
rmsd222.gzmat
O          0.00000        0.00000        0.00000
C          1.21190        0.00000        0.00000
C          2.08240        0.00000        1.14230
N          1.81880       -0.02170        2.50810
C          0.49480        0.04600        3.08840
C          3.03050       -0.08690        3.15920
N          4.07050       -0.11600        2.27790
C          3.49660       -0.06130        1.02460
N          4.11170       -0.03270       -0.20490
C          5.55180       -0.28590       -0.30900
C          3.31790       -0.08860       -1.36900
O          3.84430       -0.16450       -2.46090
N          1.91780        0.02380       -1.23120
C          1.11780       -0.16660       -2.45620
C          0.70610       -1.64550       -2.63870
N          1.82200       -2.45810       -3.15920
C          2.05730       -2.40910       -4.55720
O          1.26750       -1.84130       -5.28030
C          3.25460       -3.10120       -4.94630
N          3.84740       -3.30630       -6.18810
C          3.31080       -2.84270       -7.44970
C          5.01780       -4.00070       -5.97520
N          5.21230       -4.25730       -4.65060
C          4.12700       -3.70530       -4.00210
N          3.82870       -3.71620       -2.66030
C          4.81250       -4.20680       -1.69090
C          2.69860       -3.01030       -2.20260
O          2.46860       -2.93600       -1.01190
H         -0.26560       -0.33490        2.36690
H          0.22210        1.09340        3.32470
H          0.42910       -0.56090        4.00790
H          3.14750       -0.11630        4.23090
H          5.78320       -1.34450       -0.09300
H          6.09160        0.34420        0.42390
H          5.91120       -0.03910       -1.32680
H          1.69500        0.19620       -3.34140
H          0.20120        0.46770       -2.37880
H         -0.14540       -1.70940       -3.35970
H          0.34830       -2.07750       -1.67170
H          3.97880       -2.09100       -7.91190
H          2.31810       -2.35760       -7.29960
H          3.16930       -3.68320       -8.15320
H          5.69780       -4.30610       -6.75470
H          5.65040       -3.49420       -1.58590
H          5.22220       -5.17550       -2.03660
H          4.33710       -4.35160       -0.70150
