rmsd1.gzmat
 OpenBabel08211713433D

 46 49  0  0  1  0  0  0  0  0999 V2000
    0.0000    0.0000    0.0000 O   0  0  0  0  0  0  0  0  0  0  0  0
    1.2116    0.0000    0.0000 C   0  0  0  0  0  0  0  0  0  0  0  0
    2.0686    0.0000    1.1519 C   0  0  2  0  0  0  0  0  0  0  0  0
    1.7812    0.0719    2.5107 N   0  0  0  0  0  0  0  0  0  0  0  0
    0.4452    0.1312    3.0648 C   0  0  0  0  0  0  0  0  0  0  0  0
    2.9799    0.1662    3.1767 C   0  0  0  0  0  0  0  0  0  0  0  0
    4.0373    0.1513    2.3117 N   0  0  0  0  0  0  0  0  0  0  0  0
    3.4859    0.0374    1.0521 C   0  0  0  0  0  0  0  0  0  0  0  0
    4.1132   -0.0595   -0.1656 N   0  0  0  0  0  0  0  0  0  0  0  0
    5.5645    0.1197   -0.2712 C   0  0  0  0  0  0  0  0  0  0  0  0
    3.3402    0.0132   -1.3475 C   0  0  0  0  0  0  0  0  0  0  0  0
    3.8720   -0.0196   -2.4341 O   0  0  0  0  0  0  0  0  0  0  0  0
    1.9291    0.0418   -1.2227 N   0  0  0  0  0  0  0  0  0  0  0  0
    1.1922    0.4813   -2.4223 C   0  0  0  0  0  0  0  0  0  0  0  0
    1.3639    2.0068   -2.6599 C   0  0  0  0  0  0  0  0  0  0  0  0
    1.0676    2.7747   -1.4358 N   0  0  0  0  0  0  0  0  0  0  0  0
    2.1609    3.0995   -0.5930 C   0  0  0  0  0  0  0  0  0  0  0  0
    3.2957    3.0426   -1.0142 O   0  0  0  0  0  0  0  0  0  0  0  0
    1.7575    3.4375    0.7429 C   0  0  2  0  0  0  0  0  0  0  0  0
    2.5006    3.7066    1.8876 N   0  0  0  0  0  0  0  0  0  0  0  0
    3.9467    3.7291    1.9458 C   0  0  0  0  0  0  0  0  0  0  0  0
    1.6127    3.8415    2.9282 C   0  0  0  0  0  0  0  0  0  0  0  0
    0.3221    3.6798    2.5110 N   0  0  0  0  0  0  0  0  0  0  0  0
    0.3968    3.4388    1.1542 C   0  0  0  0  0  0  0  0  0  0  0  0
   -0.6172    3.2447    0.2490 N   0  0  0  0  0  0  0  0  0  0  0  0
   -2.0059    3.0999    0.6974 C   0  0  0  0  0  0  0  0  0  0  0  0
   -0.2990    2.8352   -1.0668 C   0  0  0  0  0  0  0  0  0  0  0  0
   -1.1764    2.6103   -1.8695 O   0  0  0  0  0  0  0  0  0  0  0  0
   -0.2938   -0.2973    2.3502 H   0  0  0  0  0  0  0  0  0  0  0  0
    0.1399    1.1842    3.2496 H   0  0  0  0  0  0  0  0  0  0  0  0
    0.3789   -0.4326    4.0099 H   0  0  0  0  0  0  0  0  0  0  0  0
    3.0818    0.2307    4.2482 H   0  0  0  0  0  0  0  0  0  0  0  0
    5.8270    1.1912   -0.3402 H   0  0  0  0  0  0  0  0  0  0  0  0
    5.9386   -0.3922   -1.1787 H   0  0  0  0  0  0  0  0  0  0  0  0
    6.0619   -0.3140    0.6166 H   0  0  0  0  0  0  0  0  0  0  0  0
    0.1100    0.2256   -2.2974 H   0  0  0  0  0  0  0  0  0  0  0  0
    1.5671   -0.0796   -3.3107 H   0  0  0  0  0  0  0  0  0  0  0  0
    0.6794    2.3369   -3.4764 H   0  0  0  0  0  0  0  0  0  0  0  0
    2.4097    2.2351   -2.9864 H   0  0  0  0  0  0  0  0  0  0  0  0
    4.3389    2.8016    2.4147 H   0  0  0  0  0  0  0  0  0  0  0  0
    4.3089    4.6041    2.5131 H   0  0  0  0  0  0  0  0  0  0  0  0
    4.3805    3.7805    0.9205 H   0  0  0  0  0  0  0  0  0  0  0  0
    1.8923    4.0608    3.9465 H   0  0  0  0  0  0  0  0  0  0  0  0
   -2.2614    2.0349    0.8512 H   0  0  0  0  0  0  0  0  0  0  0  0
   -2.6879    3.5148   -0.0698 H   0  0  0  0  0  0  0  0  0  0  0  0
   -2.1573    3.6469    1.6469 H   0  0  0  0  0  0  0  0  0  0  0  0
  1  2  2  0  0  0  0
  3  2  1  6  0  0  0
  3  4  1  0  0  0  0
  4  5  1  0  0  0  0
  4  6  1  0  0  0  0
  5 30  1  0  0  0  0
  5 31  1  0  0  0  0
  6 32  1  0  0  0  0
  7  6  2  0  0  0  0
  8  3  1  0  0  0  0
  8  7  2  0  0  0  0
  9  8  1  0  0  0  0
 10  9  1  0  0  0  0
 10 35  1  0  0  0  0
 11 13  1  0  0  0  0
 11  9  1  0  0  0  0
 12 11  2  0  0  0  0
 13  2  1  0  0  0  0
 14 36  1  0  0  0  0
 14 13  1  0  0  0  0
 15 14  1  0  0  0  0
 15 16  1  0  0  0  0
 16 27  1  0  0  0  0
 16 17  1  0  0  0  0
 18 17  2  0  0  0  0
 19 17  1  1  0  0  0
 19 24  1  0  0  0  0
 19 20  1  0  0  0  0
 20 21  1  0  0  0  0
 20 22  1  0  0  0  0
 21 40  1  0  0  0  0
 21 41  1  0  0  0  0
 22 43  1  0  0  0  0
 23 22  2  0  0  0  0
 24 23  2  0  0  0  0
 25 26  1  0  0  0  0
 25 24  1  0  0  0  0
 26 44  1  0  0  0  0
 26 46  1  0  0  0  0
 27 25  1  0  0  0  0
 28 27  2  0  0  0  0
 29  5  1  0  0  0  0
 33 10  1  0  0  0  0
 34 10  1  0  0  0  0
 37 14  1  0  0  0  0
 38 15  1  0  0  0  0
 39 15  1  0  0  0  0
 42 21  1  0  0  0  0
 45 26  1  0  0  0  0
M  RAD  2   3   2  19   2
M  END
$$$$
