rmsd155.gzmat
 OpenBabel08211713433D

 46 49  0  0  1  0  0  0  0  0999 V2000
    0.0000    0.0000    0.0000 O   0  0  0  0  0  0  0  0  0  0  0  0
    1.2114    0.0000    0.0000 C   0  0  0  0  0  0  0  0  0  0  0  0
    2.0705    0.0000    1.1505 C   0  0  1  0  0  0  0  0  0  0  0  0
    1.7858   -0.0883    2.5091 N   0  0  0  0  0  0  0  0  0  0  0  0
    0.4523   -0.1658    3.0669 C   0  0  0  0  0  0  0  0  0  0  0  0
    2.9860   -0.1799    3.1724 C   0  0  0  0  0  0  0  0  0  0  0  0
    4.0421   -0.1457    2.3065 N   0  0  0  0  0  0  0  0  0  0  0  0
    3.4882   -0.0236    1.0483 C   0  0  0  0  0  0  0  0  0  0  0  0
    4.1116    0.0907   -0.1696 N   0  0  0  0  0  0  0  0  0  0  0  0
    5.5647   -0.0666   -0.2883 C   0  0  0  0  0  0  0  0  0  0  0  0
    3.3376    0.0069   -1.3505 C   0  0  0  0  0  0  0  0  0  0  0  0
    3.8685    0.0436   -2.4377 O   0  0  0  0  0  0  0  0  0  0  0  0
    1.9276   -0.0420   -1.2237 N   0  0  0  0  0  0  0  0  0  0  0  0
    1.1994   -0.5193   -2.4141 C   0  0  0  0  0  0  0  0  0  0  0  0
    1.4202   -2.0413   -2.6314 C   0  0  0  0  0  0  0  0  0  0  0  0
    1.1428   -2.8031   -1.3990 N   0  0  0  0  0  0  0  0  0  0  0  0
    2.2440   -3.1025   -0.5567 C   0  0  0  0  0  0  0  0  0  0  0  0
    3.3767   -3.0209   -0.9782 O   0  0  0  0  0  0  0  0  0  0  0  0
    1.8485   -3.4514    0.7786 C   0  0  1  0  0  0  0  0  0  0  0  0
    2.5961   -3.7085    1.9231 N   0  0  0  0  0  0  0  0  0  0  0  0
    4.0425   -3.6949    1.9812 C   0  0  0  0  0  0  0  0  0  0  0  0
    1.7099   -3.8733    2.9610 C   0  0  0  0  0  0  0  0  0  0  0  0
    0.4162   -3.7434    2.5421 N   0  0  0  0  0  0  0  0  0  0  0  0
    0.4877   -3.4923    1.1871 C   0  0  0  0  0  0  0  0  0  0  0  0
   -0.5297   -3.3217    0.2814 N   0  0  0  0  0  0  0  0  0  0  0  0
   -1.9229   -3.2532    0.7325 C   0  0  0  0  0  0  0  0  0  0  0  0
   -0.2225   -2.9007   -1.0325 C   0  0  0  0  0  0  0  0  0  0  0  0
   -1.1039   -2.6942   -1.8359 O   0  0  0  0  0  0  0  0  0  0  0  0
   -0.2982    0.2231    2.3418 H   0  0  0  0  0  0  0  0  0  0  0  0
    0.3728    0.4271    3.9938 H   0  0  0  0  0  0  0  0  0  0  0  0
    0.1742   -1.2197    3.2851 H   0  0  0  0  0  0  0  0  0  0  0  0
    3.0891   -0.2569    4.2432 H   0  0  0  0  0  0  0  0  0  0  0  0
    5.9409    0.5774   -1.1063 H   0  0  0  0  0  0  0  0  0  0  0  0
    5.8303   -1.1146   -0.5207 H   0  0  0  0  0  0  0  0  0  0  0  0
    6.0580    0.2281    0.6566 H   0  0  0  0  0  0  0  0  0  0  0  0
    1.5525    0.0417   -3.3113 H   0  0  0  0  0  0  0  0  0  0  0  0
    0.1100   -0.2973   -2.2878 H   0  0  0  0  0  0  0  0  0  0  0  0
    2.4742   -2.2394   -2.9512 H   0  0  0  0  0  0  0  0  0  0  0  0
    0.7507   -2.4031   -3.4467 H   0  0  0  0  0  0  0  0  0  0  0  0
    4.4222   -4.4649    2.6740 H   0  0  0  0  0  0  0  0  0  0  0  0
    4.4163   -2.6995    2.3080 H   0  0  0  0  0  0  0  0  0  0  0  0
    4.4758   -3.8862    0.9731 H   0  0  0  0  0  0  0  0  0  0  0  0
    1.9924   -4.0928    3.9784 H   0  0  0  0  0  0  0  0  0  0  0  0
   -2.5988   -3.5495   -0.0927 H   0  0  0  0  0  0  0  0  0  0  0  0
   -2.1865   -2.2277    1.0500 H   0  0  0  0  0  0  0  0  0  0  0  0
   -2.0760   -3.9413    1.5859 H   0  0  0  0  0  0  0  0  0  0  0  0
  1  2  2  0  0  0  0
  3  2  1  6  0  0  0
  3  4  1  0  0  0  0
  4  5  1  0  0  0  0
  4  6  1  0  0  0  0
  5 31  1  0  0  0  0
  5 30  1  0  0  0  0
  6 32  1  0  0  0  0
  7  6  2  0  0  0  0
  8  3  1  0  0  0  0
  8  7  2  0  0  0  0
  9  8  1  0  0  0  0
 10  9  1  0  0  0  0
 10 35  1  0  0  0  0
 11 13  1  0  0  0  0
 11  9  1  0  0  0  0
 12 11  2  0  0  0  0
 13  2  1  0  0  0  0
 14 37  1  0  0  0  0
 14 13  1  0  0  0  0
 15 14  1  0  0  0  0
 15 16  1  0  0  0  0
 16 27  1  0  0  0  0
 16 17  1  0  0  0  0
 18 17  2  0  0  0  0
 19 17  1  1  0  0  0
 19 24  1  0  0  0  0
 19 20  1  0  0  0  0
 20 21  1  0  0  0  0
 20 22  1  0  0  0  0
 21 41  1  0  0  0  0
 21 40  1  0  0  0  0
 22 43  1  0  0  0  0
 23 22  2  0  0  0  0
 24 23  2  0  0  0  0
 25 26  1  0  0  0  0
 25 24  1  0  0  0  0
 26 45  1  0  0  0  0
 26 46  1  0  0  0  0
 27 25  1  0  0  0  0
 28 27  2  0  0  0  0
 29  5  1  0  0  0  0
 33 10  1  0  0  0  0
 34 10  1  0  0  0  0
 36 14  1  0  0  0  0
 38 15  1  0  0  0  0
 39 15  1  0  0  0  0
 42 21  1  0  0  0  0
 44 26  1  0  0  0  0
M  RAD  2   3   2  19   2
M  END
$$$$
