46
rmsd10.gzmat
O          0.00000        0.00000        0.00000
C          1.21150        0.00000        0.00000
C          2.06940        0.00000        1.15140
N          1.78280       -0.07270        2.51050
C          0.44750       -0.13510        3.06590
C          2.98150       -0.17020        3.17600
N          4.03860       -0.15510        2.31090
C          3.48720       -0.03820        1.05120
N          4.11400        0.06370       -0.16610
C          5.56320       -0.12930       -0.28200
C          3.34020       -0.00360       -1.34820
O          3.87230        0.03840       -2.43450
N          1.92940       -0.04170       -1.22300
C          1.19690       -0.49080       -2.42180
C          1.39800       -2.01180       -2.66570
N          1.11360       -2.79000       -1.44530
C          2.21090       -3.09900       -0.60170
O          3.34520       -3.02510       -1.02150
C          1.81140       -3.44210        0.73400
N          2.55740       -3.69660        1.88000
C          4.00370       -3.70850        1.93820
C          1.67090       -3.83930        2.92070
N          0.37830       -3.69750        2.50230
C          0.45050       -3.46180        1.14470
N         -0.56530       -3.28800        0.23770
C         -1.95790       -3.16800        0.68230
C         -0.25210       -2.87310       -1.07760
O         -1.13250       -2.66120       -1.88040
H         -0.29060        0.30610        2.35830
H          0.38580        0.41550        4.01940
H          0.13880       -1.18940        3.23730
H          3.08360       -0.23520        4.24770
H          5.95570        0.50100       -1.10330
H          5.80310       -1.18530       -0.50770
H          6.06190        0.16010        0.66190
H          1.55800        0.08090       -3.30900
H          0.11040       -0.25730       -2.29210
H          2.44860       -2.21860       -2.99140
H          0.72210       -2.35170       -3.48540
H          4.39110       -2.75820        2.36530
H          4.43730       -3.80350        0.91670
H          4.37090       -4.55290        2.54610
H          1.95270       -4.04760        3.94040
H         -2.63010       -3.59360       -0.08790
H         -2.23330       -2.10800        0.83560
H         -2.10330       -3.71850        1.63050
