rmsd119.gzmat
 OpenBabel08211713433D

 46 49  0  0  1  0  0  0  0  0999 V2000
    0.0000    0.0000    0.0000 O   0  0  0  0  0  0  0  0  0  0  0  0
    1.2118    0.0000    0.0000 C   0  0  0  0  0  0  0  0  0  0  0  0
    2.0845    0.0000    1.1410 C   0  0  2  0  0  0  0  0  0  0  0  0
    1.8262    0.0228    2.5077 N   0  0  0  0  0  0  0  0  0  0  0  0
    0.5073   -0.0110    3.1027 C   0  0  0  0  0  0  0  0  0  0  0  0
    3.0413    0.0676    3.1550 C   0  0  0  0  0  0  0  0  0  0  0  0
    4.0782    0.0813    2.2702 N   0  0  0  0  0  0  0  0  0  0  0  0
    3.4990    0.0391    1.0188 C   0  0  0  0  0  0  0  0  0  0  0  0
    4.1095    0.0042   -0.2124 N   0  0  0  0  0  0  0  0  0  0  0  0
    5.5579    0.1988   -0.3247 C   0  0  0  0  0  0  0  0  0  0  0  0
    3.3150    0.0706   -1.3749 C   0  0  0  0  0  0  0  0  0  0  0  0
    3.8404    0.1526   -2.4669 O   0  0  0  0  0  0  0  0  0  0  0  0
    1.9152   -0.0308   -1.2326 N   0  0  0  0  0  0  0  0  0  0  0  0
    1.1114    0.1288   -2.4593 C   0  0  0  0  0  0  0  0  0  0  0  0
    0.6769    1.5977   -2.6657 C   0  0  0  0  0  0  0  0  0  0  0  0
    1.7932    2.4261   -3.1596 N   0  0  0  0  0  0  0  0  0  0  0  0
    2.1032    2.3274   -4.5411 C   0  0  0  0  0  0  0  0  0  0  0  0
    1.3624    1.7166   -5.2806 O   0  0  0  0  0  0  0  0  0  0  0  0
    3.3095    3.0236   -4.8943 C   0  0  2  0  0  0  0  0  0  0  0  0
    3.9678    3.1837   -6.1098 N   0  0  0  0  0  0  0  0  0  0  0  0
    3.4976    2.6740   -7.3802 C   0  0  0  0  0  0  0  0  0  0  0  0
    5.1213    3.8949   -5.8621 C   0  0  0  0  0  0  0  0  0  0  0  0
    5.2434    4.2036   -4.5401 N   0  0  0  0  0  0  0  0  0  0  0  0
    4.1273    3.6699   -3.9291 C   0  0  0  0  0  0  0  0  0  0  0  0
    3.7565    3.7316   -2.6068 N   0  0  0  0  0  0  0  0  0  0  0  0
    4.6867    4.2419   -1.5955 C   0  0  0  0  0  0  0  0  0  0  0  0
    2.6142    3.0236   -2.1806 C   0  0  0  0  0  0  0  0  0  0  0  0
    2.3287    2.9880   -1.0008 O   0  0  0  0  0  0  0  0  0  0  0  0
   -0.2769    0.1557    2.3273 H   0  0  0  0  0  0  0  0  0  0  0  0
    0.3967    0.7783    3.8683 H   0  0  0  0  0  0  0  0  0  0  0  0
    0.3095   -0.9961    3.5667 H   0  0  0  0  0  0  0  0  0  0  0  0
    3.1617    0.0894    4.2266 H   0  0  0  0  0  0  0  0  0  0  0  0
    5.8239    1.2655   -0.2178 H   0  0  0  0  0  0  0  0  0  0  0  0
    5.9153   -0.1617   -1.3090 H   0  0  0  0  0  0  0  0  0  0  0  0
    6.0722   -0.3704    0.4738 H   0  0  0  0  0  0  0  0  0  0  0  0
    0.2049   -0.5183   -2.3704 H   0  0  0  0  0  0  0  0  0  0  0  0
    1.6926   -0.2386   -3.3401 H   0  0  0  0  0  0  0  0  0  0  0  0
    0.2820    2.0293   -1.7130 H   0  0  0  0  0  0  0  0  0  0  0  0
   -0.1527    1.6398   -3.4133 H   0  0  0  0  0  0  0  0  0  0  0  0
    3.2521    3.5014   -8.0721 H   0  0  0  0  0  0  0  0  0  0  0  0
    2.5722    2.0669   -7.2413 H   0  0  0  0  0  0  0  0  0  0  0  0
    4.2562    2.0215   -7.8509 H   0  0  0  0  0  0  0  0  0  0  0  0
    5.8421    4.1731   -6.6151 H   0  0  0  0  0  0  0  0  0  0  0  0
    4.1225    4.6149   -0.7183 H   0  0  0  0  0  0  0  0  0  0  0  0
    5.2821    5.0737   -2.0201 H   0  0  0  0  0  0  0  0  0  0  0  0
    5.3802    3.4502   -1.2595 H   0  0  0  0  0  0  0  0  0  0  0  0
  2  1  2  0  0  0  0
  3  2  1  6  0  0  0
  3  4  1  0  0  0  0
  4  5  1  0  0  0  0
  4  6  1  0  0  0  0
  5 31  1  0  0  0  0
  5 30  1  0  0  0  0
  6 32  1  0  0  0  0
  7  6  2  0  0  0  0
  8  3  1  0  0  0  0
  8  7  2  0  0  0  0
  9  8  1  0  0  0  0
 10 33  1  0  0  0  0
 10  9  1  0  0  0  0
 10 35  1  0  0  0  0
 11 13  1  0  0  0  0
 11  9  1  0  0  0  0
 12 11  2  0  0  0  0
 13  2  1  0  0  0  0
 14 36  1  0  0  0  0
 14 13  1  0  0  0  0
 15 14  1  0  0  0  0
 15 38  1  0  0  0  0
 16 15  1  0  0  0  0
 16 27  1  0  0  0  0
 17 16  1  0  0  0  0
 18 17  2  0  0  0  0
 19 17  1  1  0  0  0
 19 24  1  0  0  0  0
 20 22  1  0  0  0  0
 20 19  1  0  0  0  0
 21 41  1  0  0  0  0
 21 20  1  0  0  0  0
 22 23  2  0  0  0  0
 23 24  2  0  0  0  0
 24 25  1  0  0  0  0
 25 27  1  0  0  0  0
 25 26  1  0  0  0  0
 26 46  1  0  0  0  0
 26 44  1  0  0  0  0
 27 28  2  0  0  0  0
 29  5  1  0  0  0  0
 34 10  1  0  0  0  0
 37 14  1  0  0  0  0
 39 15  1  0  0  0  0
 40 21  1  0  0  0  0
 42 21  1  0  0  0  0
 43 22  1  0  0  0  0
 45 26  1  0  0  0  0
M  RAD  2   3   2  19   2
M  END
$$$$
