rmsd222.gzmat
 OpenBabel08211713433D

 46 49  0  0  1  0  0  0  0  0999 V2000
    0.0000    0.0000    0.0000 O   0  0  0  0  0  0  0  0  0  0  0  0
    1.2119    0.0000    0.0000 C   0  0  0  0  0  0  0  0  0  0  0  0
    2.0824    0.0000    1.1423 C   0  0  1  0  0  0  0  0  0  0  0  0
    1.8188   -0.0217    2.5081 N   0  0  0  0  0  0  0  0  0  0  0  0
    0.4948    0.0460    3.0884 C   0  0  0  0  0  0  0  0  0  0  0  0
    3.0305   -0.0869    3.1592 C   0  0  0  0  0  0  0  0  0  0  0  0
    4.0705   -0.1160    2.2779 N   0  0  0  0  0  0  0  0  0  0  0  0
    3.4966   -0.0613    1.0246 C   0  0  0  0  0  0  0  0  0  0  0  0
    4.1117   -0.0327   -0.2049 N   0  0  0  0  0  0  0  0  0  0  0  0
    5.5518   -0.2859   -0.3090 C   0  0  0  0  0  0  0  0  0  0  0  0
    3.3179   -0.0886   -1.3690 C   0  0  0  0  0  0  0  0  0  0  0  0
    3.8443   -0.1645   -2.4609 O   0  0  0  0  0  0  0  0  0  0  0  0
    1.9178    0.0238   -1.2312 N   0  0  0  0  0  0  0  0  0  0  0  0
    1.1178   -0.1666   -2.4562 C   0  0  0  0  0  0  0  0  0  0  0  0
    0.7061   -1.6455   -2.6387 C   0  0  0  0  0  0  0  0  0  0  0  0
    1.8220   -2.4581   -3.1592 N   0  0  0  0  0  0  0  0  0  0  0  0
    2.0573   -2.4091   -4.5572 C   0  0  0  0  0  0  0  0  0  0  0  0
    1.2675   -1.8413   -5.2803 O   0  0  0  0  0  0  0  0  0  0  0  0
    3.2546   -3.1012   -4.9463 C   0  0  1  0  0  0  0  0  0  0  0  0
    3.8474   -3.3063   -6.1881 N   0  0  0  0  0  0  0  0  0  0  0  0
    3.3108   -2.8427   -7.4497 C   0  0  0  0  0  0  0  0  0  0  0  0
    5.0178   -4.0007   -5.9752 C   0  0  0  0  0  0  0  0  0  0  0  0
    5.2123   -4.2573   -4.6506 N   0  0  0  0  0  0  0  0  0  0  0  0
    4.1270   -3.7053   -4.0021 C   0  0  0  0  0  0  0  0  0  0  0  0
    3.8287   -3.7162   -2.6603 N   0  0  0  0  0  0  0  0  0  0  0  0
    4.8125   -4.2068   -1.6909 C   0  0  0  0  0  0  0  0  0  0  0  0
    2.6986   -3.0103   -2.2026 C   0  0  0  0  0  0  0  0  0  0  0  0
    2.4686   -2.9360   -1.0119 O   0  0  0  0  0  0  0  0  0  0  0  0
   -0.2656   -0.3349    2.3669 H   0  0  0  0  0  0  0  0  0  0  0  0
    0.2221    1.0934    3.3247 H   0  0  0  0  0  0  0  0  0  0  0  0
    0.4291   -0.5609    4.0079 H   0  0  0  0  0  0  0  0  0  0  0  0
    3.1475   -0.1163    4.2309 H   0  0  0  0  0  0  0  0  0  0  0  0
    5.7832   -1.3445   -0.0930 H   0  0  0  0  0  0  0  0  0  0  0  0
    6.0916    0.3442    0.4239 H   0  0  0  0  0  0  0  0  0  0  0  0
    5.9112   -0.0391   -1.3268 H   0  0  0  0  0  0  0  0  0  0  0  0
    1.6950    0.1962   -3.3414 H   0  0  0  0  0  0  0  0  0  0  0  0
    0.2012    0.4677   -2.3788 H   0  0  0  0  0  0  0  0  0  0  0  0
   -0.1454   -1.7094   -3.3597 H   0  0  0  0  0  0  0  0  0  0  0  0
    0.3483   -2.0775   -1.6717 H   0  0  0  0  0  0  0  0  0  0  0  0
    3.9788   -2.0910   -7.9119 H   0  0  0  0  0  0  0  0  0  0  0  0
    2.3181   -2.3576   -7.2996 H   0  0  0  0  0  0  0  0  0  0  0  0
    3.1693   -3.6832   -8.1532 H   0  0  0  0  0  0  0  0  0  0  0  0
    5.6978   -4.3061   -6.7547 H   0  0  0  0  0  0  0  0  0  0  0  0
    5.6504   -3.4942   -1.5859 H   0  0  0  0  0  0  0  0  0  0  0  0
    5.2222   -5.1755   -2.0366 H   0  0  0  0  0  0  0  0  0  0  0  0
    4.3371   -4.3516   -0.7015 H   0  0  0  0  0  0  0  0  0  0  0  0
  2  1  2  0  0  0  0
  3  2  1  6  0  0  0
  3  4  1  0  0  0  0
  4  5  1  0  0  0  0
  4  6  1  0  0  0  0
  5 30  1  0  0  0  0
  5 31  1  0  0  0  0
  6 32  1  0  0  0  0
  7  6  2  0  0  0  0
  8  3  1  0  0  0  0
  8  7  2  0  0  0  0
  9  8  1  0  0  0  0
 10  9  1  0  0  0  0
 10 33  1  0  0  0  0
 10 34  1  0  0  0  0
 11 13  1  0  0  0  0
 11  9  1  0  0  0  0
 12 11  2  0  0  0  0
 13  2  1  0  0  0  0
 14 37  1  0  0  0  0
 14 13  1  0  0  0  0
 15 14  1  0  0  0  0
 15 39  1  0  0  0  0
 16 15  1  0  0  0  0
 16 27  1  0  0  0  0
 17 16  1  0  0  0  0
 18 17  2  0  0  0  0
 19 17  1  1  0  0  0
 19 24  1  0  0  0  0
 20 22  1  0  0  0  0
 20 19  1  0  0  0  0
 21 41  1  0  0  0  0
 21 20  1  0  0  0  0
 22 23  2  0  0  0  0
 23 24  2  0  0  0  0
 24 25  1  0  0  0  0
 25 27  1  0  0  0  0
 25 26  1  0  0  0  0
 26 44  1  0  0  0  0
 26 46  1  0  0  0  0
 27 28  2  0  0  0  0
 29  5  1  0  0  0  0
 35 10  1  0  0  0  0
 36 14  1  0  0  0  0
 38 15  1  0  0  0  0
 40 21  1  0  0  0  0
 42 21  1  0  0  0  0
 43 22  1  0  0  0  0
 45 26  1  0  0  0  0
M  RAD  2   3   2  19   2
M  END
$$$$
