rmsd61.gzmat
 OpenBabel08211713363D

 48 49  0  0  1  0  0  0  0  0999 V2000
    0.0000    0.0000    0.0000 C   0  0  0  0  0  0  0  0  0  0  0  0
    1.3985    0.0000    0.0000 C   0  0  0  0  0  0  0  0  0  0  0  0
    2.0755    0.0000    1.2168 C   0  0  0  0  0  0  0  0  0  0  0  0
    1.3809    0.0050    2.4252 C   0  0  0  0  0  0  0  0  0  0  0  0
   -0.0136    0.0092    2.3826 C   0  0  0  0  0  0  0  0  0  0  0  0
   -0.7366   -0.0004    1.1969 C   0  0  0  0  0  0  0  0  0  0  0  0
   -0.6211   -0.0996    3.6103 O   0  0  0  0  0  0  0  0  0  0  0  0
   -1.7678    0.7190    3.8622 C   0  0  2  0  0  0  0  0  0  0  0  0
   -2.3333    0.9135    2.9240 H   0  0  0  0  0  0  0  0  0  0  0  0
   -1.2884    2.0074    4.5041 C   0  0  0  0  0  0  0  0  0  0  0  0
   -2.5851   -0.1432    4.8545 C   0  0  0  0  0  0  0  0  0  0  0  0
   -3.5027   -1.0598    4.1650 N   0  0  0  0  0  0  0  0  0  0  0  0
   -3.1282   -2.1691    3.4970 C   0  0  0  0  0  0  0  0  0  0  0  0
   -1.8431   -2.5674    3.4457 N   0  0  0  0  0  0  0  0  0  0  0  0
   -1.5717   -3.4085    2.9575 H   0  0  0  0  0  0  0  0  0  0  0  0
   -1.0816   -1.9444    3.7226 H   0  0  0  0  0  0  0  0  0  0  0  0
   -4.1964   -3.0204    2.8529 C   0  0  0  0  0  0  0  0  0  0  0  0
   -5.3131   -2.1641    2.3280 C   0  0  0  0  0  0  0  0  0  0  0  0
   -5.1313   -1.4445    1.1476 C   0  0  0  0  0  0  0  0  0  0  0  0
   -6.1589   -0.6284    0.6766 C   0  0  0  0  0  0  0  0  0  0  0  0
   -7.3591   -0.5390    1.3747 C   0  0  0  0  0  0  0  0  0  0  0  0
   -7.5480   -1.2705    2.5526 C   0  0  0  0  0  0  0  0  0  0  0  0
   -6.5161   -2.0829    3.0293 C   0  0  0  0  0  0  0  0  0  0  0  0
   -8.8441   -1.1974    3.2778 C   0  0  0  0  0  0  0  0  0  0  0  0
   -0.7907   -0.0149   -1.0963 O   0  0  0  0  0  0  0  0  0  0  0  0
   -0.1553    0.0878   -2.3671 C   0  0  0  0  0  0  0  0  0  0  0  0
    1.9605    0.0015   -0.9305 H   0  0  0  0  0  0  0  0  0  0  0  0
    3.1702    0.0022    1.2256 H   0  0  0  0  0  0  0  0  0  0  0  0
    1.9033    0.0149    3.3785 H   0  0  0  0  0  0  0  0  0  0  0  0
   -1.8174    0.0058    1.1601 H   0  0  0  0  0  0  0  0  0  0  0  0
   -2.1149    2.6845    4.7538 H   0  0  0  0  0  0  0  0  0  0  0  0
   -0.6189    2.5577    3.8215 H   0  0  0  0  0  0  0  0  0  0  0  0
   -0.7050    1.8268    5.4181 H   0  0  0  0  0  0  0  0  0  0  0  0
   -1.8936   -0.7077    5.5290 H   0  0  0  0  0  0  0  0  0  0  0  0
   -3.1917    0.5145    5.5253 H   0  0  0  0  0  0  0  0  0  0  0  0
   -4.4869   -0.7689    4.1235 H   0  0  0  0  0  0  0  0  0  0  0  0
   -4.5774   -3.7705    3.5919 H   0  0  0  0  0  0  0  0  0  0  0  0
   -3.7813   -3.6438    2.0228 H   0  0  0  0  0  0  0  0  0  0  0  0
   -4.2027   -1.5229    0.5845 H   0  0  0  0  0  0  0  0  0  0  0  0
   -6.0233   -0.0632   -0.2482 H   0  0  0  0  0  0  0  0  0  0  0  0
   -8.1621    0.0965    0.9959 H   0  0  0  0  0  0  0  0  0  0  0  0
   -6.6707   -2.6663    3.9357 H   0  0  0  0  0  0  0  0  0  0  0  0
   -8.7603   -1.4587    4.3422 H   0  0  0  0  0  0  0  0  0  0  0  0
   -9.5783   -1.8965    2.8378 H   0  0  0  0  0  0  0  0  0  0  0  0
   -9.2982   -0.1950    3.2294 H   0  0  0  0  0  0  0  0  0  0  0  0
   -1.0176    0.1043   -3.0509 H   0  0  0  0  0  0  0  0  0  0  0  0
    0.4723   -0.7879   -2.5619 H   0  0  0  0  0  0  0  0  0  0  0  0
    0.4137    1.0204   -2.4470 H   0  0  0  0  0  0  0  0  0  0  0  0
  1  6  1  0  0  0  0
  2  1  2  0  0  0  0
  2  3  1  0  0  0  0
  3 28  1  0  0  0  0
  3  4  2  0  0  0  0
  4 29  1  0  0  0  0
  5  4  1  0  0  0  0
  5  7  1  0  0  0  0
  6  5  2  0  0  0  0
  7  8  1  0  0  0  0
  8  9  1  6  0  0  0
  8 10  1  0  0  0  0
  8 11  1  0  0  0  0
 10 31  1  0  0  0  0
 10 33  1  0  0  0  0
 11 35  1  0  0  0  0
 11 34  1  0  0  0  0
 12 11  1  0  0  0  0
 13 12  1  0  0  0  0
 14 13  2  0  0  0  0
 14 16  1  0  0  0  0
 15 14  1  0  0  0  0
 17 13  1  0  0  0  0
 17 37  1  0  0  0  0
 18 17  1  0  0  0  0
 18 23  2  0  0  0  0
 19 18  1  0  0  0  0
 20 19  2  0  0  0  0
 20 21  1  0  0  0  0
 21 22  2  0  0  0  0
 22 23  1  0  0  0  0
 22 24  1  0  0  0  0
 23 42  1  0  0  0  0
 24 43  1  0  0  0  0
 25  1  1  0  0  0  0
 26 25  1  0  0  0  0
 27  2  1  0  0  0  0
 30  6  1  0  0  0  0
 32 10  1  0  0  0  0
 36 12  1  0  0  0  0
 38 17  1  0  0  0  0
 39 19  1  0  0  0  0
 40 20  1  0  0  0  0
 41 21  1  0  0  0  0
 44 24  1  0  0  0  0
 45 24  1  0  0  0  0
 46 26  1  0  0  0  0
 47 26  1  0  0  0  0
 48 26  1  0  0  0  0
M  END
$$$$
