48
rmsd238.gzmat
C          0.00000        0.00000        0.00000
C          1.39610        0.00000        0.00000
C          2.06780        0.00000        1.22170
C          1.37100       -0.00520        2.42570
C         -0.02880       -0.00210        2.38400
C         -0.74230       -0.00670        1.19390
O         -0.59390       -0.08340        3.62560
C         -1.97770        0.22110        3.79140
H         -2.41790        0.66470        2.87140
C         -2.02790        1.19840        4.95480
C         -2.66330       -1.11540        4.17210
N         -2.70590       -2.07010        3.05620
C         -1.67620       -2.87210        2.70680
N         -0.51640       -2.86530        3.39170
H          0.25290       -3.46360        3.09880
H         -0.26420       -2.08680        3.99730
C         -1.88740       -3.86300        1.58800
C         -0.59320       -4.16790        0.88950
C         -0.15900       -3.34690       -0.14870
C          1.05960       -3.61360       -0.77170
C          1.83280       -4.69660       -0.36620
C          1.38760       -5.53490        0.66170
C          0.17040       -5.26450        1.29140
C          2.19910       -6.70690        1.08690
O         -0.79060       -0.03140       -1.09690
C         -0.16270        0.12270       -2.36620
H          1.96120        0.01210       -0.92750
H          3.16250        0.01200        1.23500
H          1.89120        0.02220        3.37940
H         -1.82290        0.01760        1.14280
H         -3.04900        1.53660        5.17040
H         -1.43000        2.09920        4.72930
H         -1.60040        0.77980        5.87550
H         -2.15600       -1.56830        5.05750
H         -3.71370       -0.91340        4.50100
H         -3.55620       -2.06880        2.49350
H         -2.63520       -3.49140        0.84560
H         -2.34700       -4.80020        1.99530
H         -0.76080       -2.49970       -0.47950
H          1.40470       -2.97140       -1.58310
H          2.78500       -4.89980       -0.85950
H         -0.18510       -5.92820        2.07780
H          1.58260       -7.60930        1.22480
H          2.71100       -6.51780        2.04360
H          2.97980       -6.97400        0.35750
H         -1.02870        0.15400       -3.04500
H          0.47380       -0.73740       -2.59210
H          0.39460        1.06470       -2.41780
