48
rmsd215.gzmat
C          0.00000        0.00000        0.00000
C          1.39750        0.00000        0.00000
C          2.07190        0.00000        1.21910
C          1.37830       -0.01040        2.42580
C         -0.02210       -0.01700        2.38250
C         -0.74010       -0.01000        1.19790
O         -0.58040       -0.07690        3.63000
C         -1.99720        0.04260        3.77820
H         -2.52030       -0.47990        2.94650
C         -2.34770        1.51570        3.84680
C         -2.24490       -0.66740        5.13220
N         -2.44290       -2.11510        4.96970
C         -1.44970       -3.00130        4.72070
N         -0.17470       -2.60840        4.58780
H          0.56360       -3.28490        4.40920
H          0.07740       -1.62440        4.47620
C         -1.82640       -4.46160        4.64200
C         -0.65020       -5.33560        4.31610
C         -0.23600       -5.47030        2.99020
C          0.85640       -6.28190        2.69210
C          1.52960       -6.95450        3.70870
C          1.11310       -6.82400        5.03720
C          0.01690       -6.00950        5.33730
C          1.81750       -7.55360        6.12480
O         -0.79030        0.00230       -1.09450
C         -0.15400        0.06750       -2.36770
H          1.96020        0.00940       -0.92910
H          3.16580        0.01410        1.22930
H          1.90170        0.02310        3.37470
H         -1.82210        0.00620        1.14960
H         -3.42390        1.68910        3.97090
H         -2.04250        2.03510        2.92140
H         -1.82050        2.03110        4.66280
H         -1.39910       -0.46010        5.83410
H         -3.15490       -0.24240        5.62310
H         -3.40490       -2.44650        5.03010
H         -2.62730       -4.61320        3.87360
H         -2.29740       -4.79090        5.60240
H         -0.76530       -4.96170        2.18630
H          1.18020       -6.39730        1.65550
H          2.38160       -7.59290        3.46650
H         -0.31680       -5.92100        6.37000
H          1.27580       -8.47630        6.39720
H          1.90840       -6.95610        7.04370
H          2.83680       -7.86070        5.84370
H         -1.01700        0.08670       -3.05080
H          0.45540       -0.82350       -2.54510
H          0.43270        0.98710       -2.46680
