48
rmsd61.gzmat
C          0.00000        0.00000        0.00000
C          1.39850        0.00000        0.00000
C          2.07550        0.00000        1.21680
C          1.38090        0.00500        2.42520
C         -0.01360        0.00920        2.38260
C         -0.73660       -0.00040        1.19690
O         -0.62110       -0.09960        3.61030
C         -1.76780        0.71900        3.86220
H         -2.33330        0.91350        2.92400
C         -1.28840        2.00740        4.50410
C         -2.58510       -0.14320        4.85450
N         -3.50270       -1.05980        4.16500
C         -3.12820       -2.16910        3.49700
N         -1.84310       -2.56740        3.44570
H         -1.57170       -3.40850        2.95750
H         -1.08160       -1.94440        3.72260
C         -4.19640       -3.02040        2.85290
C         -5.31310       -2.16410        2.32800
C         -5.13130       -1.44450        1.14760
C         -6.15890       -0.62840        0.67660
C         -7.35910       -0.53900        1.37470
C         -7.54800       -1.27050        2.55260
C         -6.51610       -2.08290        3.02930
C         -8.84410       -1.19740        3.27780
O         -0.79070       -0.01490       -1.09630
C         -0.15530        0.08780       -2.36710
H          1.96050        0.00150       -0.93050
H          3.17020        0.00220        1.22560
H          1.90330        0.01490        3.37850
H         -1.81740        0.00580        1.16010
H         -2.11490        2.68450        4.75380
H         -0.61890        2.55770        3.82150
H         -0.70500        1.82680        5.41810
H         -1.89360       -0.70770        5.52900
H         -3.19170        0.51450        5.52530
H         -4.48690       -0.76890        4.12350
H         -4.57740       -3.77050        3.59190
H         -3.78130       -3.64380        2.02280
H         -4.20270       -1.52290        0.58450
H         -6.02330       -0.06320       -0.24820
H         -8.16210        0.09650        0.99590
H         -6.67070       -2.66630        3.93570
H         -8.76030       -1.45870        4.34220
H         -9.57830       -1.89650        2.83780
H         -9.29820       -0.19500        3.22940
H         -1.01760        0.10430       -3.05090
H          0.47230       -0.78790       -2.56190
H          0.41370        1.02040       -2.44700
