rmsd11.gzmat
 OpenBabel08211713383D

 34 36  0  0  1  0  0  0  0  0999 V2000
    0.0000    0.0000    0.0000 N   0  0  0  0  0  0  0  0  0  0  0  0
    1.3575    0.0000    0.0000 C   0  0  0  0  0  0  0  0  0  0  0  0
    2.1698    0.0000    1.0760 N   0  0  0  0  0  0  0  0  0  0  0  0
    1.5081   -0.0004    2.2634 C   0  0  0  0  0  0  0  0  0  0  0  0
    0.0790   -0.0000    2.3995 C   0  0  0  0  0  0  0  0  0  0  0  0
   -0.6688   -0.0006    1.1922 C   0  0  0  0  0  0  0  0  0  0  0  0
   -2.0273   -0.0012    1.1678 N   0  0  0  0  0  0  0  0  0  0  0  0
   -0.2606    0.0035    3.7515 N   0  0  0  0  0  0  0  0  0  0  0  0
    0.8861    0.0063    4.4270 C   0  0  0  0  0  0  0  0  0  0  0  0
    2.0070   -0.0060    3.5563 N   0  0  0  0  0  0  0  0  0  0  0  0
    3.4132    0.0464    3.9235 C   0  0  1  0  0  0  0  0  0  0  0  0
    4.0259   -0.0717    2.9819 H   0  0  0  0  0  0  0  0  0  0  0  0
    3.7462    1.4000    4.5909 C   0  0  0  0  0  0  0  0  0  0  0  0
    3.1942    1.4680    5.8899 O   0  0  0  0  0  0  0  0  0  0  0  0
    3.5631    0.4099    6.7322 C   0  0  1  0  0  0  0  0  0  0  0  0
    2.9798    0.5334    7.6632 H   0  0  0  0  0  0  0  0  0  0  0  0
    3.1960   -0.8212    6.1881 O   0  0  0  0  0  0  0  0  0  0  0  0
    3.7558   -1.0864    4.9146 C   0  0  0  0  0  0  0  0  0  0  0  0
    4.9580    0.3837    6.9031 O   0  0  0  0  0  0  0  0  0  0  0  0
    5.4835    1.4549    7.6713 C   0  0  0  0  0  0  0  0  0  0  0  0
    5.1394    1.2927    9.1460 C   0  0  0  0  0  0  0  0  0  0  0  0
    1.8412    0.0019   -0.9922 H   0  0  0  0  0  0  0  0  0  0  0  0
   -2.5229    0.0001    0.2989 H   0  0  0  0  0  0  0  0  0  0  0  0
   -2.5407    0.0013    2.0287 H   0  0  0  0  0  0  0  0  0  0  0  0
    1.0051    0.0107    5.5032 H   0  0  0  0  0  0  0  0  0  0  0  0
    3.2679    2.2546    4.0745 H   0  0  0  0  0  0  0  0  0  0  0  0
    4.8388    1.5561    4.6471 H   0  0  0  0  0  0  0  0  0  0  0  0
    4.8491   -1.2187    5.0116 H   0  0  0  0  0  0  0  0  0  0  0  0
    3.2841   -2.0504    4.6399 H   0  0  0  0  0  0  0  0  0  0  0  0
    5.1355    2.4184    7.2581 H   0  0  0  0  0  0  0  0  0  0  0  0
    6.5702    1.3435    7.4850 H   0  0  0  0  0  0  0  0  0  0  0  0
    4.1099    1.5932    9.3688 H   0  0  0  0  0  0  0  0  0  0  0  0
    5.7990    1.8989    9.7781 H   0  0  0  0  0  0  0  0  0  0  0  0
    5.2538    0.2457    9.4599 H   0  0  0  0  0  0  0  0  0  0  0  0
  1  6  2  0  0  0  0
  2  1  2  0  0  0  0
  2  3  2  0  0  0  0
  3  4  2  0  0  0  0
  4  5  1  0  0  0  0
  4 10  1  0  0  0  0
  5  8  2  0  0  0  0
  6  5  1  0  0  0  0
  7  6  1  0  0  0  0
  7 24  1  0  0  0  0
  8  9  2  0  0  0  0
  9 25  1  0  0  0  0
 10 11  1  0  0  0  0
 10  9  1  0  0  0  0
 11 12  1  6  0  0  0
 11 13  1  0  0  0  0
 11 18  1  0  0  0  0
 13 27  1  0  0  0  0
 13 14  1  0  0  0  0
 14 15  1  0  0  0  0
 15 19  1  0  0  0  0
 15 16  1  1  0  0  0
 17 15  1  0  0  0  0
 18 28  1  0  0  0  0
 18 17  1  0  0  0  0
 19 20  1  0  0  0  0
 20 21  1  0  0  0  0
 21 32  1  0  0  0  0
 21 34  1  0  0  0  0
 21 33  1  0  0  0  0
 22  2  1  0  0  0  0
 23  7  1  0  0  0  0
 26 13  1  0  0  0  0
 29 18  1  0  0  0  0
 30 20  1  0  0  0  0
 31 20  1  0  0  0  0
M  END
$$$$
