34
rmsd9.gzmat
N          0.00000        0.00000        0.00000
C          1.35750        0.00000        0.00000
N          2.16880        0.00000        1.07660
C          1.50580        0.00350        2.26320
C          0.07690        0.00380        2.39960
C         -0.66940        0.00060        1.19190
N         -2.02760       -0.00520        1.16440
N         -0.26130        0.00890        3.75200
C          0.88590        0.01010        4.42720
N          2.00550        0.01100        3.55550
C          3.41380       -0.01310        3.91690
H          4.01910        0.03120        2.96360
C          3.76510        1.19690        4.80810
O          3.23960        1.02950        6.11260
C          3.63760       -0.15120        6.73870
H          3.09970       -0.20370        7.70260
O          3.23750       -1.27240        5.99710
C          3.75080       -1.31220        4.68160
O          5.03900       -0.10840        6.84230
C          5.61370       -1.15010        7.61470
C          5.45190       -0.86960        9.10220
H          1.84170       -0.00280       -0.99180
H         -2.52080       -0.01030        0.29380
H         -2.54380       -0.00660        2.02340
H          1.00690        0.01110        5.50320
H          3.27560        2.13070        4.46860
H          4.85890        1.34730        4.86820
H          4.84320       -1.47670        4.71920
H          3.24950       -2.19910        4.24750
H          6.67400       -1.09920        7.29690
H          5.18800       -2.12560        7.31920
H          5.68840        0.17920        9.32950
H          6.12440       -1.49610        9.69920
H          4.43090       -1.05690        9.45120
