
     RDKit          3D

 34 36  0  0  0  0  0  0  0  0999 V2000
    0.0504   -0.1517    0.0254 N   0  0  0  0  0  0  0  0  0  0  0  0
    1.3896   -0.1544    0.0741 C   0  0  0  0  0  0  0  0  0  0  0  0
    2.1751   -0.0777    1.1505 N   0  0  0  0  0  0  0  0  0  0  0  0
    1.4658    0.0118    2.2792 C   0  0  0  0  0  0  0  0  0  0  0  0
    0.0683    0.0260    2.3904 C   0  0  0  0  0  0  0  0  0  0  0  0
   -0.6449   -0.0617    1.1710 C   0  0  0  0  0  0  0  0  0  0  0  0
   -1.9952   -0.0585    1.1291 N   0  0  0  0  0  0  0  0  0  0  0  0
   -0.3192    0.1285    3.7109 N   0  0  0  0  0  0  0  0  0  0  0  0
    0.8061    0.1731    4.3842 C   0  0  0  0  0  0  0  0  0  0  0  0
    1.9321    0.1136    3.5745 N   0  0  0  0  0  0  0  0  0  0  0  0
    3.3425    0.0847    3.9352 C   0  0  1  0  0  0  0  0  0  0  0  0
    3.8869    0.2484    2.9928 H   0  0  0  0  0  0  0  0  0  0  0  0
    3.7051    1.1771    4.9433 C   0  0  0  0  0  0  0  0  0  0  0  0
    3.1980    0.8544    6.2360 O   0  0  0  0  0  0  0  0  0  0  0  0
    3.6082   -0.3864    6.7014 C   0  0  1  0  0  0  0  0  0  0  0  0
    3.0656   -0.5753    7.6415 H   0  0  0  0  0  0  0  0  0  0  0  0
    3.2345   -1.4268    5.8350 O   0  0  0  0  0  0  0  0  0  0  0  0
    3.7500   -1.2738    4.5176 C   0  0  0  0  0  0  0  0  0  0  0  0
    4.9890   -0.3437    6.8831 O   0  0  0  0  0  0  0  0  0  0  0  0
    5.5571   -1.4527    7.5769 C   0  0  0  0  0  0  0  0  0  0  0  0
    5.4784   -1.2897    9.0879 C   0  0  0  0  0  0  0  0  0  0  0  0
    1.8995   -0.2296   -0.8936 H   0  0  0  0  0  0  0  0  0  0  0  0
   -2.4606   -0.1195    0.2342 H   0  0  0  0  0  0  0  0  0  0  0  0
   -2.5242    0.0131    1.9866 H   0  0  0  0  0  0  0  0  0  0  0  0
    0.9042    0.2628    5.4637 H   0  0  0  0  0  0  0  0  0  0  0  0
    3.2540    2.1382    4.6636 H   0  0  0  0  0  0  0  0  0  0  0  0
    4.8006    1.2911    4.9839 H   0  0  0  0  0  0  0  0  0  0  0  0
    4.8509   -1.3531    4.5197 H   0  0  0  0  0  0  0  0  0  0  0  0
    3.3351   -2.0944    3.9180 H   0  0  0  0  0  0  0  0  0  0  0  0
    6.6075   -1.4981    7.2511 H   0  0  0  0  0  0  0  0  0  0  0  0
    5.0683   -2.3868    7.2499 H   0  0  0  0  0  0  0  0  0  0  0  0
    5.9594   -0.3502    9.3999 H   0  0  0  0  0  0  0  0  0  0  0  0
    5.9907   -2.1271    9.5880 H   0  0  0  0  0  0  0  0  0  0  0  0
    4.4367   -1.2765    9.4454 H   0  0  0  0  0  0  0  0  0  0  0  0
  1  2  2  0
  1  6  1  0
  2  3  1  0
  2 22  1  0
  3  4  2  0
  4  5  1  0
  4 10  1  0
  5  6  2  0
  5  8  1  0
  6  7  1  0
  7 23  1  0
  7 24  1  0
  8  9  2  0
  9 10  1  0
  9 25  1  0
 10 11  1  0
 11 12  1  6
 11 13  1  0
 11 18  1  0
 13 14  1  0
 13 26  1  0
 13 27  1  0
 14 15  1  0
 15 16  1  1
 15 17  1  0
 15 19  1  0
 17 18  1  0
 18 28  1  0
 18 29  1  0
 19 20  1  0
 20 21  1  0
 20 30  1  0
 20 31  1  0
 21 32  1  0
 21 33  1  0
 21 34  1  0
M  END

