rmsd10.gzmat
 OpenBabel08211713383D

 34 36  0  0  1  0  0  0  0  0999 V2000
    0.0000    0.0000    0.0000 N   0  0  0  0  0  0  0  0  0  0  0  0
    1.3573    0.0000    0.0000 C   0  0  0  0  0  0  0  0  0  0  0  0
    2.1685    0.0000    1.0769 N   0  0  0  0  0  0  0  0  0  0  0  0
    1.5058    0.0017    2.2635 C   0  0  0  0  0  0  0  0  0  0  0  0
    0.0767    0.0045    2.3998 C   0  0  0  0  0  0  0  0  0  0  0  0
   -0.6694    0.0013    1.1918 C   0  0  0  0  0  0  0  0  0  0  0  0
   -2.0276   -0.0017    1.1612 N   0  0  0  0  0  0  0  0  0  0  0  0
   -0.2614    0.0103    3.7521 N   0  0  0  0  0  0  0  0  0  0  0  0
    0.8857    0.0107    4.4273 C   0  0  0  0  0  0  0  0  0  0  0  0
    2.0055   -0.0016    3.5557 N   0  0  0  0  0  0  0  0  0  0  0  0
    3.4135    0.0221    3.9188 C   0  0  1  0  0  0  0  0  0  0  0  0
    4.0192   -0.0665    2.9689 H   0  0  0  0  0  0  0  0  0  0  0  0
    3.7644    1.3472    4.6317 C   0  0  0  0  0  0  0  0  0  0  0  0
    3.2527    1.3675    5.9484 O   0  0  0  0  0  0  0  0  0  0  0  0
    3.6343    0.2715    6.7350 C   0  0  1  0  0  0  0  0  0  0  0  0
    3.0915    0.3689    7.6927 H   0  0  0  0  0  0  0  0  0  0  0  0
    3.2227   -0.9279    6.1540 O   0  0  0  0  0  0  0  0  0  0  0  0
    3.7495   -1.1547    4.8593 C   0  0  0  0  0  0  0  0  0  0  0  0
    5.0345    0.2144    6.8454 O   0  0  0  0  0  0  0  0  0  0  0  0
    5.6121    1.2271    7.6530 C   0  0  0  0  0  0  0  0  0  0  0  0
    5.3849    0.9366    9.1304 C   0  0  0  0  0  0  0  0  0  0  0  0
    1.8406    0.0000   -0.9923 H   0  0  0  0  0  0  0  0  0  0  0  0
   -2.5180   -0.0049    0.2888 H   0  0  0  0  0  0  0  0  0  0  0  0
   -2.5465    0.0015    2.0186 H   0  0  0  0  0  0  0  0  0  0  0  0
    1.0070    0.0169    5.5034 H   0  0  0  0  0  0  0  0  0  0  0  0
    3.2713    2.2206    4.1621 H   0  0  0  0  0  0  0  0  0  0  0  0
    4.8580    1.5028    4.6609 H   0  0  0  0  0  0  0  0  0  0  0  0
    4.8412   -1.3158    4.9284 H   0  0  0  0  0  0  0  0  0  0  0  0
    3.2495   -2.0960    4.5575 H   0  0  0  0  0  0  0  0  0  0  0  0
    5.2284    2.2174    7.3498 H   0  0  0  0  0  0  0  0  0  0  0  0
    6.6817    1.1450    7.3750 H   0  0  0  0  0  0  0  0  0  0  0  0
    4.3855    1.2330    9.4654 H   0  0  0  0  0  0  0  0  0  0  0  0
    6.1114    1.4672    9.7569 H   0  0  0  0  0  0  0  0  0  0  0  0
    5.4950   -0.1373    9.3371 H   0  0  0  0  0  0  0  0  0  0  0  0
  1  6  2  0  0  0  0
  2  1  2  0  0  0  0
  2  3  2  0  0  0  0
  3  4  2  0  0  0  0
  4  5  1  0  0  0  0
  4 10  1  0  0  0  0
  5  8  2  0  0  0  0
  6  5  1  0  0  0  0
  7  6  1  0  0  0  0
  7 24  1  0  0  0  0
  8  9  2  0  0  0  0
  9 25  1  0  0  0  0
 10 11  1  0  0  0  0
 10  9  1  0  0  0  0
 11 12  1  6  0  0  0
 11 13  1  0  0  0  0
 11 18  1  0  0  0  0
 13 27  1  0  0  0  0
 13 14  1  0  0  0  0
 14 15  1  0  0  0  0
 15 19  1  0  0  0  0
 15 16  1  1  0  0  0
 17 15  1  0  0  0  0
 18 28  1  0  0  0  0
 18 17  1  0  0  0  0
 19 20  1  0  0  0  0
 20 21  1  0  0  0  0
 21 34  1  0  0  0  0
 21 32  1  0  0  0  0
 21 33  1  0  0  0  0
 22  2  1  0  0  0  0
 23  7  1  0  0  0  0
 26 13  1  0  0  0  0
 29 18  1  0  0  0  0
 30 20  1  0  0  0  0
 31 20  1  0  0  0  0
M  END
$$$$
