34
rmsd17.gzmat
N          0.00000        0.00000        0.00000
C          1.35740        0.00000        0.00000
N          2.16880        0.00000        1.07670
C          1.50600        0.00890        2.26310
C          0.07710        0.01760        2.39940
C         -0.66940        0.00600        1.19200
N         -2.02780       -0.00370        1.16550
N         -0.26170        0.03210        3.75160
C          0.88500        0.02810        4.42690
N          2.00520        0.01920        3.55530
C          3.41140       -0.04250        3.92000
H          4.02210        0.04340        2.97340
C          3.77120        1.11450        4.87550
O          3.23610        0.88240        6.16630
C          3.62160       -0.33370        6.73090
H          3.07910       -0.43240        7.68830
O          3.21610       -1.41110        5.93110
C          3.72830       -1.38600        4.61470
O          5.02240       -0.30340        6.84330
C          5.59130       -1.39600        7.54630
C          5.36300       -1.25520        9.04540
H          1.84190       -0.00160       -0.99170
H         -2.52130       -0.01970        0.29560
H         -2.54330        0.00030        2.02510
H          1.00630        0.03660        5.50280
H          3.29390        2.07050        4.58360
H          4.86580        1.25130        4.94800
H          4.81760       -1.56990        4.64180
H          3.21280       -2.24090        4.13440
H          6.66120       -1.29210        7.27740
H          5.20090       -2.34870        7.14560
H          5.45560       -0.20490        9.35630
H          6.10060       -1.83140        9.61580
H          4.37010       -1.60250        9.35000
