34

N          0.06710        0.21300        0.03480
C          1.40600        0.19600        0.08660
N          2.18770        0.08950        1.16330
C          1.47450       -0.00990        2.28860
C          0.07650       -0.00660        2.39630
C         -0.63230        0.11260        1.17700
N         -1.98230        0.12880        1.13200
N         -0.31570       -0.12680        3.71390
C          0.80710       -0.19900        4.38890
N          1.93590       -0.14070        3.58300
C          3.34570       -0.13900        3.94740
H          3.89000       -0.28460        3.00200
C          3.76900        1.19810        4.56660
O          3.25280        1.32270        5.88670
C          3.61100        0.25450        6.72570
H          3.06840        0.42530        7.66940
O          3.18590       -0.96780        6.22640
C          3.69220       -1.26240        4.92660
O          4.99060        0.18910        6.90920
C          5.57160        1.27230        7.63250
C          5.48560        1.07260        9.13870
H          1.91940        0.28110       -0.87850
H         -2.44450        0.21350        0.23730
H         -2.51450        0.05100        1.98690
H          0.90120       -0.30910        5.46680
H          3.36600        2.03970        3.98850
H          4.87090        1.26320        4.57280
H          4.78610       -1.39120        4.96670
H          3.22980       -2.20990        4.62040
H          5.09700        2.22100        7.32770
H          6.62370        1.31100        7.31110
H          4.44270        1.06570        9.49280
H          6.00830        1.88950        9.66110
H          5.95190        0.11860        9.42840
