rmsd17.gzmat
 OpenBabel08211713383D

 34 36  0  0  1  0  0  0  0  0999 V2000
    0.0000    0.0000    0.0000 N   0  0  0  0  0  0  0  0  0  0  0  0
    1.3574    0.0000    0.0000 C   0  0  0  0  0  0  0  0  0  0  0  0
    2.1688    0.0000    1.0767 N   0  0  0  0  0  0  0  0  0  0  0  0
    1.5060    0.0089    2.2631 C   0  0  0  0  0  0  0  0  0  0  0  0
    0.0771    0.0176    2.3994 C   0  0  0  0  0  0  0  0  0  0  0  0
   -0.6694    0.0060    1.1920 C   0  0  0  0  0  0  0  0  0  0  0  0
   -2.0278   -0.0037    1.1655 N   0  0  0  0  0  0  0  0  0  0  0  0
   -0.2617    0.0321    3.7516 N   0  0  0  0  0  0  0  0  0  0  0  0
    0.8850    0.0281    4.4269 C   0  0  0  0  0  0  0  0  0  0  0  0
    2.0052    0.0192    3.5553 N   0  0  0  0  0  0  0  0  0  0  0  0
    3.4114   -0.0425    3.9200 C   0  0  1  0  0  0  0  0  0  0  0  0
    4.0221    0.0434    2.9734 H   0  0  0  0  0  0  0  0  0  0  0  0
    3.7712    1.1145    4.8755 C   0  0  0  0  0  0  0  0  0  0  0  0
    3.2361    0.8824    6.1663 O   0  0  0  0  0  0  0  0  0  0  0  0
    3.6216   -0.3337    6.7309 C   0  0  1  0  0  0  0  0  0  0  0  0
    3.0791   -0.4324    7.6883 H   0  0  0  0  0  0  0  0  0  0  0  0
    3.2161   -1.4111    5.9311 O   0  0  0  0  0  0  0  0  0  0  0  0
    3.7283   -1.3860    4.6147 C   0  0  0  0  0  0  0  0  0  0  0  0
    5.0224   -0.3034    6.8433 O   0  0  0  0  0  0  0  0  0  0  0  0
    5.5913   -1.3960    7.5463 C   0  0  0  0  0  0  0  0  0  0  0  0
    5.3630   -1.2552    9.0454 C   0  0  0  0  0  0  0  0  0  0  0  0
    1.8419   -0.0016   -0.9917 H   0  0  0  0  0  0  0  0  0  0  0  0
   -2.5213   -0.0197    0.2956 H   0  0  0  0  0  0  0  0  0  0  0  0
   -2.5433    0.0003    2.0251 H   0  0  0  0  0  0  0  0  0  0  0  0
    1.0063    0.0366    5.5028 H   0  0  0  0  0  0  0  0  0  0  0  0
    3.2939    2.0705    4.5836 H   0  0  0  0  0  0  0  0  0  0  0  0
    4.8658    1.2513    4.9480 H   0  0  0  0  0  0  0  0  0  0  0  0
    4.8176   -1.5699    4.6418 H   0  0  0  0  0  0  0  0  0  0  0  0
    3.2128   -2.2409    4.1344 H   0  0  0  0  0  0  0  0  0  0  0  0
    6.6612   -1.2921    7.2774 H   0  0  0  0  0  0  0  0  0  0  0  0
    5.2009   -2.3487    7.1456 H   0  0  0  0  0  0  0  0  0  0  0  0
    5.4556   -0.2049    9.3563 H   0  0  0  0  0  0  0  0  0  0  0  0
    6.1006   -1.8314    9.6158 H   0  0  0  0  0  0  0  0  0  0  0  0
    4.3701   -1.6025    9.3500 H   0  0  0  0  0  0  0  0  0  0  0  0
  1  6  2  0  0  0  0
  2  1  2  0  0  0  0
  2  3  2  0  0  0  0
  3  4  2  0  0  0  0
  4  5  1  0  0  0  0
  4 10  1  0  0  0  0
  5  8  2  0  0  0  0
  6  5  1  0  0  0  0
  7  6  1  0  0  0  0
  7 24  1  0  0  0  0
  8  9  2  0  0  0  0
  9 25  1  0  0  0  0
 10 11  1  0  0  0  0
 10  9  1  0  0  0  0
 11 12  1  6  0  0  0
 11 18  1  0  0  0  0
 11 13  1  0  0  0  0
 13 27  1  0  0  0  0
 13 14  1  0  0  0  0
 14 15  1  0  0  0  0
 15 19  1  0  0  0  0
 15 16  1  1  0  0  0
 17 15  1  0  0  0  0
 18 28  1  0  0  0  0
 18 17  1  0  0  0  0
 19 20  1  0  0  0  0
 20 21  1  0  0  0  0
 21 34  1  0  0  0  0
 21 32  1  0  0  0  0
 21 33  1  0  0  0  0
 22  2  1  0  0  0  0
 23  7  1  0  0  0  0
 26 13  1  0  0  0  0
 29 18  1  0  0  0  0
 30 20  1  0  0  0  0
 31 20  1  0  0  0  0
M  END
$$$$
