rmsd48.gzmat
 OpenBabel08211713383D

 34 36  0  0  1  0  0  0  0  0999 V2000
    0.0000    0.0000    0.0000 N   0  0  0  0  0  0  0  0  0  0  0  0
    1.3574    0.0000    0.0000 C   0  0  0  0  0  0  0  0  0  0  0  0
    2.1687    0.0000    1.0766 N   0  0  0  0  0  0  0  0  0  0  0  0
    1.5056   -0.0052    2.2632 C   0  0  0  0  0  0  0  0  0  0  0  0
    0.0767   -0.0112    2.3995 C   0  0  0  0  0  0  0  0  0  0  0  0
   -0.6696   -0.0015    1.1918 C   0  0  0  0  0  0  0  0  0  0  0  0
   -2.0277    0.0049    1.1648 N   0  0  0  0  0  0  0  0  0  0  0  0
   -0.2619   -0.0333    3.7513 N   0  0  0  0  0  0  0  0  0  0  0  0
    0.8850   -0.0398    4.4268 C   0  0  0  0  0  0  0  0  0  0  0  0
    2.0050   -0.0109    3.5554 N   0  0  0  0  0  0  0  0  0  0  0  0
    3.4132   -0.0474    3.9164 C   0  0  1  0  0  0  0  0  0  0  0  0
    4.0186    0.1125    2.9758 H   0  0  0  0  0  0  0  0  0  0  0  0
    3.7377    1.0610    4.9395 C   0  0  0  0  0  0  0  0  0  0  0  0
    3.2029    0.7397    6.2109 O   0  0  0  0  0  0  0  0  0  0  0  0
    3.6155   -0.4969    6.7079 C   0  0  1  0  0  0  0  0  0  0  0  0
    3.0621   -0.6657    7.6494 H   0  0  0  0  0  0  0  0  0  0  0  0
    3.2539   -1.5369    5.8407 O   0  0  0  0  0  0  0  0  0  0  0  0
    3.7756   -1.4165    4.5335 C   0  0  0  0  0  0  0  0  0  0  0  0
    5.0124   -0.4323    6.8509 O   0  0  0  0  0  0  0  0  0  0  0  0
    5.6081   -1.5715    7.4500 C   0  0  0  0  0  0  0  0  0  0  0  0
    5.3105   -1.6278    8.9422 C   0  0  0  0  0  0  0  0  0  0  0  0
    1.8411    0.0000   -0.9921 H   0  0  0  0  0  0  0  0  0  0  0  0
   -2.5209    0.0126    0.2944 H   0  0  0  0  0  0  0  0  0  0  0  0
   -2.5433    0.0097    2.0243 H   0  0  0  0  0  0  0  0  0  0  0  0
    1.0050   -0.0602    5.5026 H   0  0  0  0  0  0  0  0  0  0  0  0
    3.2362    2.0198    4.7019 H   0  0  0  0  0  0  0  0  0  0  0  0
    4.8282    1.2208    5.0274 H   0  0  0  0  0  0  0  0  0  0  0  0
    4.8710   -1.5610    4.5605 H   0  0  0  0  0  0  0  0  0  0  0  0
    3.2960   -2.2595    3.9985 H   0  0  0  0  0  0  0  0  0  0  0  0
    6.6814   -1.3847    7.2479 H   0  0  0  0  0  0  0  0  0  0  0  0
    5.2859   -2.4868    6.9215 H   0  0  0  0  0  0  0  0  0  0  0  0
    5.3844   -0.6289    9.3937 H   0  0  0  0  0  0  0  0  0  0  0  0
    6.0224   -2.2776    9.4643 H   0  0  0  0  0  0  0  0  0  0  0  0
    4.3058   -2.0106    9.1515 H   0  0  0  0  0  0  0  0  0  0  0  0
  1  6  2  0  0  0  0
  2  1  2  0  0  0  0
  2  3  2  0  0  0  0
  3  4  2  0  0  0  0
  4  5  1  0  0  0  0
  4 10  1  0  0  0  0
  5  8  2  0  0  0  0
  6  5  1  0  0  0  0
  7  6  1  0  0  0  0
  7 24  1  0  0  0  0
  8  9  2  0  0  0  0
  9 25  1  0  0  0  0
 10 11  1  0  0  0  0
 10  9  1  0  0  0  0
 11 12  1  6  0  0  0
 11 18  1  0  0  0  0
 11 13  1  0  0  0  0
 13 27  1  0  0  0  0
 13 14  1  0  0  0  0
 14 15  1  0  0  0  0
 15 19  1  0  0  0  0
 15 16  1  1  0  0  0
 17 15  1  0  0  0  0
 18 28  1  0  0  0  0
 18 17  1  0  0  0  0
 19 20  1  0  0  0  0
 20 21  1  0  0  0  0
 21 34  1  0  0  0  0
 21 32  1  0  0  0  0
 21 33  1  0  0  0  0
 22  2  1  0  0  0  0
 23  7  1  0  0  0  0
 26 13  1  0  0  0  0
 29 18  1  0  0  0  0
 30 20  1  0  0  0  0
 31 20  1  0  0  0  0
M  END
$$$$
