34
rmsd34.gzmat
N          0.00000        0.00000        0.00000
C          1.35740        0.00000        0.00000
N          2.16860        0.00000        1.07690
C          1.50540        0.00060        2.26370
C          0.07650        0.00360        2.40050
C         -0.66960        0.00020        1.19220
N         -2.02790       -0.00250        1.16360
N         -0.26070        0.01050        3.75330
C          0.88690        0.01240        4.42790
N          2.00580       -0.00680        3.55590
C          3.41500        0.04070        3.91220
H          4.01630       -0.13530        2.97140
C          3.77790        1.42300        4.49960
O          3.27710        1.56530        5.81320
C          3.66040        0.54230        6.69110
H          3.13200        0.72920        7.64330
O          3.23400       -0.70230        6.22560
C          3.74790       -1.04960        4.95220
O          5.06140        0.48070        6.79230
C          5.66680        1.60190        7.41580
C          5.48780        1.54290        8.92700
H          1.84130       -0.00050       -0.99210
H         -2.51980       -0.00490        0.29200
H         -2.54490       -0.00050        2.02220
H          1.00820        0.02320        5.50410
H          3.28500        2.25320        3.95700
H          4.87280        1.57410        4.50610
H          4.83890       -1.21400        5.02750
H          3.23900       -2.01030        4.73970
H          5.27480        2.53780        6.97910
H          6.72650        1.47120        7.11890
H          4.47820        1.83400        9.23680
H          6.19300        2.21020        9.43690
H          5.66630        0.52490        9.30140
