34
rmsd11.gzmat
N          0.00000        0.00000        0.00000
C          1.35750        0.00000        0.00000
N          2.16980        0.00000        1.07600
C          1.50810       -0.00040        2.26340
C          0.07900       -0.00000        2.39950
C         -0.66880       -0.00060        1.19220
N         -2.02730       -0.00120        1.16780
N         -0.26060        0.00350        3.75150
C          0.88610        0.00630        4.42700
N          2.00700       -0.00600        3.55630
C          3.41320        0.04640        3.92350
H          4.02590       -0.07170        2.98190
C          3.74620        1.40000        4.59090
O          3.19420        1.46800        5.88990
C          3.56310        0.40990        6.73220
H          2.97980        0.53340        7.66320
O          3.19600       -0.82120        6.18810
C          3.75580       -1.08640        4.91460
O          4.95800        0.38370        6.90310
C          5.48350        1.45490        7.67130
C          5.13940        1.29270        9.14600
H          1.84120        0.00190       -0.99220
H         -2.52290        0.00010        0.29890
H         -2.54070        0.00130        2.02870
H          1.00510        0.01070        5.50320
H          3.26790        2.25460        4.07450
H          4.83880        1.55610        4.64710
H          4.84910       -1.21870        5.01160
H          3.28410       -2.05040        4.63990
H          5.13550        2.41840        7.25810
H          6.57020        1.34350        7.48500
H          4.10990        1.59320        9.36880
H          5.79900        1.89890        9.77810
H          5.25380        0.24570        9.45990
