34
rmsd48.gzmat
N          0.00000        0.00000        0.00000
C          1.35740        0.00000        0.00000
N          2.16870        0.00000        1.07660
C          1.50560       -0.00520        2.26320
C          0.07670       -0.01120        2.39950
C         -0.66960       -0.00150        1.19180
N         -2.02770        0.00490        1.16480
N         -0.26190       -0.03330        3.75130
C          0.88500       -0.03980        4.42680
N          2.00500       -0.01090        3.55540
C          3.41320       -0.04740        3.91640
H          4.01860        0.11250        2.97580
C          3.73770        1.06100        4.93950
O          3.20290        0.73970        6.21090
C          3.61550       -0.49690        6.70790
H          3.06210       -0.66570        7.64940
O          3.25390       -1.53690        5.84070
C          3.77560       -1.41650        4.53350
O          5.01240       -0.43230        6.85090
C          5.60810       -1.57150        7.45000
C          5.31050       -1.62780        8.94220
H          1.84110        0.00000       -0.99210
H         -2.52090        0.01260        0.29440
H         -2.54330        0.00970        2.02430
H          1.00500       -0.06020        5.50260
H          3.23620        2.01980        4.70190
H          4.82820        1.22080        5.02740
H          4.87100       -1.56100        4.56050
H          3.29600       -2.25950        3.99850
H          6.68140       -1.38470        7.24790
H          5.28590       -2.48680        6.92150
H          5.38440       -0.62890        9.39370
H          6.02240       -2.27760        9.46430
H          4.30580       -2.01060        9.15150
