34
rmsd15.gzmat
N          0.00000        0.00000        0.00000
C          1.35740        0.00000        0.00000
N          2.16830        0.00000        1.07690
C          1.50510        0.00220        2.26360
C          0.07640        0.00410        2.40040
C         -0.66950        0.00020        1.19210
N         -2.02780       -0.00290        1.16340
N         -0.26090        0.01430        3.75300
C          0.88670        0.01970        4.42760
N          2.00550        0.00190        3.55570
C          3.41440        0.05060        3.91200
H          4.01660       -0.07950        2.96430
C          3.76120        1.40900        4.56070
O          3.24540        1.48980        5.87350
C          3.62630        0.43510        6.71490
H          3.07170        0.57210        7.66160
O          3.23220       -0.79560        6.18950
C          3.76160       -1.07720        4.90660
O          5.02490        0.39470        6.85110
C          5.58780        1.50100        7.53820
C          5.31320        1.40830        9.03340
H          1.84230        0.00190       -0.99160
H         -2.51970       -0.00140        0.29180
H         -2.54480        0.00090        2.02180
H          1.00780        0.03210        5.50370
H          3.26690        2.25820        4.04970
H          4.85450        1.56840        4.58350
H          4.85520       -1.22260        4.98210
H          3.27140       -2.03640        4.64820
H          5.22200        2.44570        7.09750
H          6.66410        1.37680        7.30550
H          4.30710        1.75450        9.29430
H          6.02700        2.00980        9.60830
H          5.40550        0.36950        9.38060
