rmsd34.gzmat
 OpenBabel08211713383D

 34 36  0  0  1  0  0  0  0  0999 V2000
    0.0000    0.0000    0.0000 N   0  0  0  0  0  0  0  0  0  0  0  0
    1.3574    0.0000    0.0000 C   0  0  0  0  0  0  0  0  0  0  0  0
    2.1686    0.0000    1.0769 N   0  0  0  0  0  0  0  0  0  0  0  0
    1.5054    0.0006    2.2637 C   0  0  0  0  0  0  0  0  0  0  0  0
    0.0765    0.0036    2.4005 C   0  0  0  0  0  0  0  0  0  0  0  0
   -0.6696    0.0002    1.1922 C   0  0  0  0  0  0  0  0  0  0  0  0
   -2.0279   -0.0025    1.1636 N   0  0  0  0  0  0  0  0  0  0  0  0
   -0.2607    0.0105    3.7533 N   0  0  0  0  0  0  0  0  0  0  0  0
    0.8869    0.0124    4.4279 C   0  0  0  0  0  0  0  0  0  0  0  0
    2.0058   -0.0068    3.5559 N   0  0  0  0  0  0  0  0  0  0  0  0
    3.4150    0.0407    3.9122 C   0  0  1  0  0  0  0  0  0  0  0  0
    4.0163   -0.1353    2.9714 H   0  0  0  0  0  0  0  0  0  0  0  0
    3.7779    1.4230    4.4996 C   0  0  0  0  0  0  0  0  0  0  0  0
    3.2771    1.5653    5.8132 O   0  0  0  0  0  0  0  0  0  0  0  0
    3.6604    0.5423    6.6911 C   0  0  1  0  0  0  0  0  0  0  0  0
    3.1320    0.7292    7.6433 H   0  0  0  0  0  0  0  0  0  0  0  0
    3.2340   -0.7023    6.2256 O   0  0  0  0  0  0  0  0  0  0  0  0
    3.7479   -1.0496    4.9522 C   0  0  0  0  0  0  0  0  0  0  0  0
    5.0614    0.4807    6.7923 O   0  0  0  0  0  0  0  0  0  0  0  0
    5.6668    1.6019    7.4158 C   0  0  0  0  0  0  0  0  0  0  0  0
    5.4878    1.5429    8.9270 C   0  0  0  0  0  0  0  0  0  0  0  0
    1.8413   -0.0005   -0.9921 H   0  0  0  0  0  0  0  0  0  0  0  0
   -2.5198   -0.0049    0.2920 H   0  0  0  0  0  0  0  0  0  0  0  0
   -2.5449   -0.0005    2.0222 H   0  0  0  0  0  0  0  0  0  0  0  0
    1.0082    0.0232    5.5041 H   0  0  0  0  0  0  0  0  0  0  0  0
    3.2850    2.2532    3.9570 H   0  0  0  0  0  0  0  0  0  0  0  0
    4.8728    1.5741    4.5061 H   0  0  0  0  0  0  0  0  0  0  0  0
    4.8389   -1.2140    5.0275 H   0  0  0  0  0  0  0  0  0  0  0  0
    3.2390   -2.0103    4.7397 H   0  0  0  0  0  0  0  0  0  0  0  0
    5.2748    2.5378    6.9791 H   0  0  0  0  0  0  0  0  0  0  0  0
    6.7265    1.4712    7.1189 H   0  0  0  0  0  0  0  0  0  0  0  0
    4.4782    1.8340    9.2368 H   0  0  0  0  0  0  0  0  0  0  0  0
    6.1930    2.2102    9.4369 H   0  0  0  0  0  0  0  0  0  0  0  0
    5.6663    0.5249    9.3014 H   0  0  0  0  0  0  0  0  0  0  0  0
  1  6  2  0  0  0  0
  2  1  2  0  0  0  0
  2  3  2  0  0  0  0
  3  4  2  0  0  0  0
  4  5  1  0  0  0  0
  4 10  1  0  0  0  0
  5  8  2  0  0  0  0
  6  5  1  0  0  0  0
  7  6  1  0  0  0  0
  7 24  1  0  0  0  0
  8  9  2  0  0  0  0
  9 25  1  0  0  0  0
 10 11  1  0  0  0  0
 10  9  1  0  0  0  0
 11 12  1  6  0  0  0
 11 13  1  0  0  0  0
 11 18  1  0  0  0  0
 13 27  1  0  0  0  0
 13 14  1  0  0  0  0
 14 15  1  0  0  0  0
 15 19  1  0  0  0  0
 15 16  1  1  0  0  0
 17 15  1  0  0  0  0
 18 28  1  0  0  0  0
 18 17  1  0  0  0  0
 19 20  1  0  0  0  0
 20 21  1  0  0  0  0
 21 32  1  0  0  0  0
 21 34  1  0  0  0  0
 21 33  1  0  0  0  0
 22  2  1  0  0  0  0
 23  7  1  0  0  0  0
 26 13  1  0  0  0  0
 29 18  1  0  0  0  0
 30 20  1  0  0  0  0
 31 20  1  0  0  0  0
M  END
$$$$
