50
rmsd123.gzmat
N          0.00000        0.00000        0.00000
H          1.01980        0.00000        0.00000
C         -0.72190        0.00000       -1.19440
N         -2.07620        0.02490       -1.19140
C         -2.76060        0.11950       -0.01630
N         -4.10420        0.16040       -0.14390
H         -4.71070        0.21300        0.65180
H         -4.53340        0.13060       -1.05850
C         -2.07490        0.15490        1.25610
C         -2.73270        0.24770        2.50940
C         -2.00680        0.26290        3.67290
C         -0.55960        0.18590        3.62940
C          0.09210        0.10360        2.41270
C         -0.67170        0.08950        1.22710
O          0.01000        0.20400        4.83700
C          1.43610        0.13710        4.89960
O         -2.48580        0.34320        4.93320
C         -3.89910        0.43090        5.08700
N         -0.05130        0.10030       -2.38380
C          1.33790       -0.38190       -2.52730
C          1.34030       -1.85370       -3.01190
N          0.59880       -1.98820       -4.27440
C         -0.77870       -1.49940       -4.15770
C         -0.81850       -0.03680       -3.64400
C          1.34980       -1.70020       -5.44030
O          2.51050       -1.36230       -5.32170
C          0.74310       -1.91720       -6.74400
O         -0.44790       -2.63080       -6.80770
C         -0.74980       -2.74430       -8.14400
C          0.20230       -2.13170       -8.91730
C          1.17750       -1.59760       -8.00800
H         -3.81880        0.30770        2.53970
H          1.17780        0.04980        2.36240
H          1.80900       -0.79560        4.46510
H          1.60510        0.14710        5.99020
H          1.89020        1.01900        4.43660
H         -3.99270        0.46970        6.18600
H         -4.39910       -0.46080        4.69740
H         -4.28920        1.35170        4.64330
H          1.93490       -0.25970       -1.60630
H          1.83700        0.26810       -3.29750
H          2.39380       -2.20620       -3.15300
H          0.87660       -2.52880       -2.25930
H         -1.31510       -1.56790       -5.13110
H         -1.33230       -2.17220       -3.45970
H         -0.35540        0.66050       -4.38320
H         -1.87290        0.30100       -3.51190
H         -1.65110       -3.28780       -8.32710
H          0.24510       -2.05670       -9.98650
H          2.07030       -1.06250       -8.28030
