rmsd5.gzmat
 OpenBabel08211713363D

 50 53  0  0  0  0  0  0  0  0999 V2000
    0.0000    0.0000    0.0000 N   0  0  0  0  0  0  0  0  0  0  0  0
    1.0191    0.0000    0.0000 H   0  0  0  0  0  0  0  0  0  0  0  0
   -0.7234    0.0000   -1.1930 C   0  0  0  0  0  0  0  0  0  0  0  0
   -2.0791    0.0111   -1.1907 N   0  0  0  0  0  0  0  0  0  0  0  0
   -2.7651    0.1035   -0.0179 C   0  0  0  0  0  0  0  0  0  0  0  0
   -4.1079    0.1334   -0.1399 N   0  0  0  0  0  0  0  0  0  0  0  0
   -4.7120    0.1856    0.6600 H   0  0  0  0  0  0  0  0  0  0  0  0
   -4.5414    0.0983   -1.0522 H   0  0  0  0  0  0  0  0  0  0  0  0
   -2.0771    0.1518    1.2562 C   0  0  0  0  0  0  0  0  0  0  0  0
   -2.7301    0.2564    2.5014 C   0  0  0  0  0  0  0  0  0  0  0  0
   -2.0068    0.2852    3.6784 C   0  0  0  0  0  0  0  0  0  0  0  0
   -0.5735    0.2092    3.6333 C   0  0  0  0  0  0  0  0  0  0  0  0
    0.0828    0.1178    2.4163 C   0  0  0  0  0  0  0  0  0  0  0  0
   -0.6716    0.0926    1.2284 C   0  0  0  0  0  0  0  0  0  0  0  0
    0.0183    0.2366    4.8359 O   0  0  0  0  0  0  0  0  0  0  0  0
    1.4439    0.1727    4.8878 C   0  0  0  0  0  0  0  0  0  0  0  0
   -2.7810    0.3383    4.7845 O   0  0  0  0  0  0  0  0  0  0  0  0
   -2.1736    0.6879    6.0248 C   0  0  0  0  0  0  0  0  0  0  0  0
   -0.0616    0.1115   -2.3854 N   0  0  0  0  0  0  0  0  0  0  0  0
    1.3453   -0.3129   -2.5333 C   0  0  0  0  0  0  0  0  0  0  0  0
    1.4071   -1.7925   -2.9885 C   0  0  0  0  0  0  0  0  0  0  0  0
    0.6486   -1.9950   -4.2308 N   0  0  0  0  0  0  0  0  0  0  0  0
   -0.7443   -1.5523   -4.1110 C   0  0  0  0  0  0  0  0  0  0  0  0
   -0.8287   -0.0777   -3.6394 C   0  0  0  0  0  0  0  0  0  0  0  0
    1.3624   -1.7213   -5.4239 C   0  0  0  0  0  0  0  0  0  0  0  0
    2.4996   -1.3040   -5.3486 O   0  0  0  0  0  0  0  0  0  0  0  0
    0.7400   -2.0541   -6.6955 C   0  0  0  0  0  0  0  0  0  0  0  0
   -0.3790   -2.8790   -6.6764 O   0  0  0  0  0  0  0  0  0  0  0  0
   -0.7124   -3.0951   -7.9918 C   0  0  0  0  0  0  0  0  0  0  0  0
    0.1480   -2.4368   -8.8317 C   0  0  0  0  0  0  0  0  0  0  0  0
    1.0980   -1.7644   -7.9897 C   0  0  0  0  0  0  0  0  0  0  0  0
   -3.8192    0.3176    2.5597 H   0  0  0  0  0  0  0  0  0  0  0  0
    1.1687    0.0613    2.3718 H   0  0  0  0  0  0  0  0  0  0  0  0
    1.8087   -0.7759    4.4806 H   0  0  0  0  0  0  0  0  0  0  0  0
    1.6258    0.2183    5.9745 H   0  0  0  0  0  0  0  0  0  0  0  0
    1.8955    1.0357    4.3888 H   0  0  0  0  0  0  0  0  0  0  0  0
   -3.0572    0.8431    6.6648 H   0  0  0  0  0  0  0  0  0  0  0  0
   -1.5905    1.6102    5.9489 H   0  0  0  0  0  0  0  0  0  0  0  0
   -1.5717   -0.1468    6.4023 H   0  0  0  0  0  0  0  0  0  0  0  0
    1.9446   -0.1435   -1.6211 H   0  0  0  0  0  0  0  0  0  0  0  0
    1.8092    0.3412   -3.3218 H   0  0  0  0  0  0  0  0  0  0  0  0
    2.4734   -2.0977   -3.1436 H   0  0  0  0  0  0  0  0  0  0  0  0
    0.9903   -2.4726   -2.2129 H   0  0  0  0  0  0  0  0  0  0  0  0
   -1.2870   -1.6680   -5.0766 H   0  0  0  0  0  0  0  0  0  0  0  0
   -1.2662   -2.2232   -3.3878 H   0  0  0  0  0  0  0  0  0  0  0  0
   -0.3892    0.6136   -4.3979 H   0  0  0  0  0  0  0  0  0  0  0  0
   -1.8923    0.2317   -3.5116 H   0  0  0  0  0  0  0  0  0  0  0  0
   -1.5601   -3.7342   -8.1118 H   0  0  0  0  0  0  0  0  0  0  0  0
    0.1447   -2.4149   -9.9042 H   0  0  0  0  0  0  0  0  0  0  0  0
    1.9257   -1.1643   -8.3244 H   0  0  0  0  0  0  0  0  0  0  0  0
  1 14  1  0  0  0  0
  2  1  1  0  0  0  0
  3  4  2  0  0  0  0
  3  1  1  0  0  0  0
  4  5  2  0  0  0  0
  5  9  1  0  0  0  0
  6  5  1  0  0  0  0
  6  7  1  0  0  0  0
  8  6  1  0  0  0  0
  9 10  1  0  0  0  0
 10 32  1  0  0  0  0
 10 11  2  0  0  0  0
 11 17  1  0  0  0  0
 12 11  1  0  0  0  0
 12 15  1  0  0  0  0
 13 12  2  0  0  0  0
 14  9  2  0  0  0  0
 14 13  1  0  0  0  0
 15 16  1  0  0  0  0
 16 35  1  0  0  0  0
 17 18  1  0  0  0  0
 18 39  1  0  0  0  0
 18 37  1  0  0  0  0
 19  3  1  0  0  0  0
 20 19  1  0  0  0  0
 20 40  1  0  0  0  0
 21 20  1  0  0  0  0
 21 43  1  0  0  0  0
 22 23  1  0  0  0  0
 22 21  1  0  0  0  0
 23 24  1  0  0  0  0
 23 45  1  0  0  0  0
 24 47  1  0  0  0  0
 24 19  1  0  0  0  0
 25 26  2  0  0  0  0
 25 22  1  0  0  0  0
 27 28  1  0  0  0  0
 27 25  1  0  0  0  0
 29 28  1  0  0  0  0
 30 29  2  0  0  0  0
 30 31  1  0  0  0  0
 31 27  2  0  0  0  0
 33 13  1  0  0  0  0
 34 16  1  0  0  0  0
 36 16  1  0  0  0  0
 38 18  1  0  0  0  0
 41 20  1  0  0  0  0
 42 21  1  0  0  0  0
 44 23  1  0  0  0  0
 46 24  1  0  0  0  0
 48 29  1  0  0  0  0
 49 30  1  0  0  0  0
 50 31  1  0  0  0  0
M  END
$$$$
