rmsd141.gzmat
 OpenBabel08211713363D

 50 53  0  0  0  0  0  0  0  0999 V2000
    0.0000    0.0000    0.0000 N   0  0  0  0  0  0  0  0  0  0  0  0
    1.0195    0.0000    0.0000 H   0  0  0  0  0  0  0  0  0  0  0  0
   -0.7213    0.0000   -1.1938 C   0  0  0  0  0  0  0  0  0  0  0  0
   -2.0747    0.0388   -1.1960 N   0  0  0  0  0  0  0  0  0  0  0  0
   -2.7637    0.1411   -0.0245 C   0  0  0  0  0  0  0  0  0  0  0  0
   -4.1055    0.1847   -0.1500 N   0  0  0  0  0  0  0  0  0  0  0  0
   -4.7110    0.2400    0.6487 H   0  0  0  0  0  0  0  0  0  0  0  0
   -4.5374    0.1517   -1.0632 H   0  0  0  0  0  0  0  0  0  0  0  0
   -2.0781    0.1794    1.2503 C   0  0  0  0  0  0  0  0  0  0  0  0
   -2.7328    0.2894    2.4948 C   0  0  0  0  0  0  0  0  0  0  0  0
   -2.0114    0.3102    3.6724 C   0  0  0  0  0  0  0  0  0  0  0  0
   -0.5782    0.2278    3.6307 C   0  0  0  0  0  0  0  0  0  0  0  0
    0.0800    0.1308    2.4150 C   0  0  0  0  0  0  0  0  0  0  0  0
   -0.6732    0.1058    1.2261 C   0  0  0  0  0  0  0  0  0  0  0  0
    0.0118    0.2547    4.8336 O   0  0  0  0  0  0  0  0  0  0  0  0
    1.4360    0.1619    4.8862 C   0  0  0  0  0  0  0  0  0  0  0  0
   -2.7835    0.3476    4.7811 O   0  0  0  0  0  0  0  0  0  0  0  0
   -2.1905    0.7835    6.0013 C   0  0  0  0  0  0  0  0  0  0  0  0
   -0.0414    0.0895   -2.3814 N   0  0  0  0  0  0  0  0  0  0  0  0
    1.2898   -0.5332   -2.5427 C   0  0  0  0  0  0  0  0  0  0  0  0
    1.1386   -1.9825   -3.0715 C   0  0  0  0  0  0  0  0  0  0  0  0
    0.3828   -2.0025   -4.3318 N   0  0  0  0  0  0  0  0  0  0  0  0
   -0.9378   -1.3820   -4.1924 C   0  0  0  0  0  0  0  0  0  0  0  0
   -0.8225    0.0619   -3.6409 C   0  0  0  0  0  0  0  0  0  0  0  0
    1.1504   -1.7752   -5.4973 C   0  0  0  0  0  0  0  0  0  0  0  0
    2.3479   -1.6065   -5.3872 O   0  0  0  0  0  0  0  0  0  0  0  0
    0.4999   -1.8388   -6.7977 C   0  0  0  0  0  0  0  0  0  0  0  0
   -0.7316   -2.4765   -6.8878 O   0  0  0  0  0  0  0  0  0  0  0  0
   -1.0765   -2.4456   -8.2187 C   0  0  0  0  0  0  0  0  0  0  0  0
   -0.1134   -1.8135   -8.9618 C   0  0  0  0  0  0  0  0  0  0  0  0
    0.9176   -1.4250   -8.0391 C   0  0  0  0  0  0  0  0  0  0  0  0
   -3.8215    0.3579    2.5518 H   0  0  0  0  0  0  0  0  0  0  0  0
    1.1658    0.0704    2.3730 H   0  0  0  0  0  0  0  0  0  0  0  0
    1.7821   -0.7934    4.4784 H   0  0  0  0  0  0  0  0  0  0  0  0
    1.6182    0.2034    5.9730 H   0  0  0  0  0  0  0  0  0  0  0  0
    1.9051    1.0152    4.3865 H   0  0  0  0  0  0  0  0  0  0  0  0
   -3.0791    0.9378    6.6344 H   0  0  0  0  0  0  0  0  0  0  0  0
   -1.6407    1.7203    5.8778 H   0  0  0  0  0  0  0  0  0  0  0  0
   -1.5584   -0.0084    6.4199 H   0  0  0  0  0  0  0  0  0  0  0  0
    1.8904   -0.5085   -1.6164 H   0  0  0  0  0  0  0  0  0  0  0  0
    1.8568    0.0829   -3.2919 H   0  0  0  0  0  0  0  0  0  0  0  0
    2.1502   -2.4369   -3.2294 H   0  0  0  0  0  0  0  0  0  0  0  0
    0.6107   -2.6285   -2.3357 H   0  0  0  0  0  0  0  0  0  0  0  0
   -1.4835   -1.3711   -5.1628 H   0  0  0  0  0  0  0  0  0  0  0  0
   -1.5532   -2.0116   -3.5059 H   0  0  0  0  0  0  0  0  0  0  0  0
   -0.2902    0.7265   -4.3632 H   0  0  0  0  0  0  0  0  0  0  0  0
   -1.8355    0.5037   -3.4932 H   0  0  0  0  0  0  0  0  0  0  0  0
   -2.0120   -2.9200   -8.4225 H   0  0  0  0  0  0  0  0  0  0  0  0
   -0.0973   -1.6371  -10.0198 H   0  0  0  0  0  0  0  0  0  0  0  0
    1.8334   -0.9192   -8.2902 H   0  0  0  0  0  0  0  0  0  0  0  0
  1 14  1  0  0  0  0
  2  1  1  0  0  0  0
  3  1  1  0  0  0  0
  4  3  2  0  0  0  0
  4  5  2  0  0  0  0
  5  9  1  0  0  0  0
  6  5  1  0  0  0  0
  6  7  1  0  0  0  0
  8  6  1  0  0  0  0
  9 10  1  0  0  0  0
 10 32  1  0  0  0  0
 10 11  2  0  0  0  0
 11 17  1  0  0  0  0
 12 11  1  0  0  0  0
 12 15  1  0  0  0  0
 13 12  2  0  0  0  0
 14  9  2  0  0  0  0
 14 13  1  0  0  0  0
 15 16  1  0  0  0  0
 16 35  1  0  0  0  0
 17 18  1  0  0  0  0
 18 39  1  0  0  0  0
 18 37  1  0  0  0  0
 19  3  1  0  0  0  0
 20 19  1  0  0  0  0
 20 40  1  0  0  0  0
 21 20  1  0  0  0  0
 21 43  1  0  0  0  0
 22 23  1  0  0  0  0
 22 21  1  0  0  0  0
 23 24  1  0  0  0  0
 23 45  1  0  0  0  0
 24 47  1  0  0  0  0
 24 19  1  0  0  0  0
 25 26  2  0  0  0  0
 25 22  1  0  0  0  0
 27 25  1  0  0  0  0
 28 27  1  0  0  0  0
 29 28  1  0  0  0  0
 30 29  2  0  0  0  0
 30 31  1  0  0  0  0
 31 27  2  0  0  0  0
 33 13  1  0  0  0  0
 34 16  1  0  0  0  0
 36 16  1  0  0  0  0
 38 18  1  0  0  0  0
 41 20  1  0  0  0  0
 42 21  1  0  0  0  0
 44 23  1  0  0  0  0
 46 24  1  0  0  0  0
 48 29  1  0  0  0  0
 49 30  1  0  0  0  0
 50 31  1  0  0  0  0
M  END
$$$$
