50
rmsd233.gzmat
N          0.00000        0.00000        0.00000
H          1.02070        0.00000        0.00000
C         -0.72360        0.00000       -1.19200
N         -2.07800        0.02040       -1.18900
C         -2.76310        0.11640       -0.01470
N         -4.10730        0.13790       -0.14210
H         -4.71510        0.18110        0.65220
H         -4.53550        0.09510       -1.05670
C         -2.07730        0.17280        1.25630
C         -2.72860        0.29140        2.50680
C         -2.00110        0.34270        3.67110
C         -0.56450        0.27250        3.63440
C          0.08450        0.15280        2.40810
C         -0.67030        0.10820        1.22660
O          0.27550        0.30950        4.67030
C         -0.23760        0.46070        5.99520
O         -2.51150        0.45720        4.92160
C         -3.92690        0.55600        5.04460
N         -0.05080        0.10930       -2.38070
C          1.29400       -0.47930       -2.55520
C          1.17640       -1.91970       -3.11600
N          0.41430       -1.93720       -4.37280
C         -0.91880       -1.34900       -4.21630
C         -0.83390        0.08700       -3.63830
C          1.17070       -1.68220       -5.54000
O          2.36310       -1.47730       -5.43110
C          0.52780       -1.77100       -6.84260
O         -0.73000       -2.35620       -6.92710
C         -1.05730       -2.35900       -8.26300
C         -0.05660       -1.80110       -9.01560
C          0.97900       -1.42460       -8.09350
H         -3.81570        0.34490        2.53700
H          1.17550        0.10120        2.38990
H         -0.78370        1.40460        6.10080
H          0.69370        0.48190        6.58520
H         -0.85350       -0.40080        6.27570
H         -4.04870        0.64880        6.13590
H         -4.41770       -0.35420        4.68690
H         -4.30570        1.45330        4.54560
H          1.89400       -0.46250       -1.62750
H          1.84710        0.16700       -3.28940
H          2.19900       -2.34410       -3.28690
H          0.66900       -2.59420       -2.39120
H         -1.46970       -1.33030       -5.18330
H         -1.51710       -2.00590       -3.54010
H         -0.31760        0.77510       -4.35060
H         -1.85620        0.50370       -3.48250
H         -2.01080       -2.79820       -8.46220
H         -0.01920       -1.66650      -10.07940
H          1.92110       -0.97200       -8.34940
