
     RDKit          3D

 42 46  0  0  0  0  0  0  0  0999 V2000
   -0.0753    0.0698    0.0257 C   0  0  0  0  0  0  0  0  0  0  0  0
    1.3424    0.1019    0.0154 C   0  0  0  0  0  0  0  0  0  0  0  0
    2.0455    0.1842    1.1588 N   0  0  0  0  0  0  0  0  0  0  0  0
    1.4664    0.2060    2.3312 N   0  0  0  0  0  0  0  0  0  0  0  0
    0.1293    0.1518    2.4177 C   0  0  0  0  0  0  0  0  0  0  0  0
   -0.4665    0.1654    3.7780 C   0  0  0  0  0  0  0  0  0  0  0  0
   -1.8037    0.1010    3.8486 N   0  0  0  0  0  0  0  0  0  0  0  0
   -2.3795    0.1123    5.0484 C   0  0  0  0  0  0  0  0  0  0  0  0
   -1.6567    0.1868    6.2442 C   0  0  0  0  0  0  0  0  0  0  0  0
   -0.2634    0.2523    6.1711 C   0  0  0  0  0  0  0  0  0  0  0  0
    0.3482    0.2417    4.9192 C   0  0  0  0  0  0  0  0  0  0  0  0
   -0.6781    0.0977    1.2752 C   0  0  0  0  0  0  0  0  0  0  0  0
    2.1880    0.0778   -1.2106 C   0  0  0  0  0  0  0  0  0  0  0  0
    3.5378    0.4715   -1.1425 C   0  0  0  0  0  0  0  0  0  0  0  0
    4.3052    0.4321   -2.3028 C   0  0  0  0  0  0  0  0  0  0  0  0
    3.7161    0.0016   -3.4953 C   0  0  0  0  0  0  0  0  0  0  0  0
    2.3722   -0.3739   -3.4648 C   0  0  0  0  0  0  0  0  0  0  0  0
    1.6308   -0.3391   -2.3565 N   0  0  0  0  0  0  0  0  0  0  0  0
   -0.9604    0.0169   -1.2065 C   0  0  2  0  0  0  0  0  0  0  0  0
   -0.4568    0.4923   -2.0564 H   0  0  0  0  0  0  0  0  0  0  0  0
   -2.1856    0.7235   -0.9494 O   0  0  0  0  0  0  0  0  0  0  0  0
   -3.2910   -0.0711   -1.1290 C   0  0  0  0  0  0  0  0  0  0  0  0
   -4.4102    0.3317   -0.9835 O   0  0  0  0  0  0  0  0  0  0  0  0
   -2.7991   -1.4163   -1.5088 C   0  0  0  0  0  0  0  0  0  0  0  0
   -1.4078   -1.3873   -1.5629 C   0  0  0  0  0  0  0  0  0  0  0  0
   -0.6864   -2.5354   -1.8850 C   0  0  0  0  0  0  0  0  0  0  0  0
   -1.4081   -3.7041   -2.1535 C   0  0  0  0  0  0  0  0  0  0  0  0
   -2.8122   -3.7287   -2.1019 C   0  0  0  0  0  0  0  0  0  0  0  0
   -3.5278   -2.5756   -1.7756 C   0  0  0  0  0  0  0  0  0  0  0  0
   -3.4740    0.0595    5.0655 H   0  0  0  0  0  0  0  0  0  0  0  0
   -2.1772    0.1931    7.2040 H   0  0  0  0  0  0  0  0  0  0  0  0
    0.3402    0.3115    7.0801 H   0  0  0  0  0  0  0  0  0  0  0  0
    1.4295    0.2907    4.7949 H   0  0  0  0  0  0  0  0  0  0  0  0
   -1.7600    0.0974    1.3972 H   0  0  0  0  0  0  0  0  0  0  0  0
    3.9458    0.7909   -0.1851 H   0  0  0  0  0  0  0  0  0  0  0  0
    5.3547    0.7352   -2.2785 H   0  0  0  0  0  0  0  0  0  0  0  0
    4.2828   -0.0452   -4.4273 H   0  0  0  0  0  0  0  0  0  0  0  0
    1.8705   -0.7243   -4.3737 H   0  0  0  0  0  0  0  0  0  0  0  0
    0.4018   -2.5158   -1.9308 H   0  0  0  0  0  0  0  0  0  0  0  0
   -0.8675   -4.6189   -2.4087 H   0  0  0  0  0  0  0  0  0  0  0  0
   -3.3431   -4.6587   -2.3171 H   0  0  0  0  0  0  0  0  0  0  0  0
   -4.6185   -2.5634   -1.7252 H   0  0  0  0  0  0  0  0  0  0  0  0
  1  2  1  0
  1 12  2  0
  1 19  1  0
  2  3  2  0
  2 13  1  0
  3  4  1  0
  4  5  2  0
  5  6  1  0
  5 12  1  0
  6  7  2  0
  6 11  1  0
  7  8  1  0
  8  9  2  0
  8 30  1  0
  9 10  1  0
  9 31  1  0
 10 11  2  0
 10 32  1  0
 11 33  1  0
 12 34  1  0
 13 14  2  0
 13 18  1  0
 14 15  1  0
 14 35  1  0
 15 16  2  0
 15 36  1  0
 16 17  1  0
 16 37  1  0
 17 18  2  0
 17 38  1  0
 19 20  1  6
 19 21  1  0
 19 25  1  0
 21 22  1  0
 22 23  2  0
 22 24  1  0
 24 25  2  0
 24 29  1  0
 25 26  1  0
 26 27  2  0
 26 39  1  0
 27 28  1  0
 27 40  1  0
 28 29  2  0
 28 41  1  0
 29 42  1  0
M  END

