rmsd101.gzmat
 OpenBabel08211713373D

 42 46  0  0  1  0  0  0  0  0999 V2000
    0.0000    0.0000    0.0000 C   0  0  0  0  0  0  0  0  0  0  0  0
    1.4038    0.0000    0.0000 C   0  0  0  0  0  0  0  0  0  0  0  0
    2.1004    0.0000    1.1788 N   0  0  0  0  0  0  0  0  0  0  0  0
    1.5068    0.0080    2.3132 N   0  0  0  0  0  0  0  0  0  0  0  0
    0.1414    0.0237    2.3986 C   0  0  0  0  0  0  0  0  0  0  0  0
   -0.4486    0.0501    3.7486 C   0  0  0  0  0  0  0  0  0  0  0  0
   -1.7900   -0.1258    3.8066 N   0  0  0  0  0  0  0  0  0  0  0  0
   -2.3928   -0.0948    5.0039 C   0  0  0  0  0  0  0  0  0  0  0  0
   -1.6877    0.1107    6.2002 C   0  0  0  0  0  0  0  0  0  0  0  0
   -0.3081    0.2818    6.1367 C   0  0  0  0  0  0  0  0  0  0  0  0
    0.3298    0.2517    4.8971 C   0  0  0  0  0  0  0  0  0  0  0  0
   -0.6437    0.0212    1.2379 C   0  0  0  0  0  0  0  0  0  0  0  0
    2.2477    0.0245   -1.2103 C   0  0  0  0  0  0  0  0  0  0  0  0
    3.3725    0.8601   -1.2781 C   0  0  0  0  0  0  0  0  0  0  0  0
    4.1350    0.8537   -2.4442 C   0  0  0  0  0  0  0  0  0  0  0  0
    3.7648    0.0221   -3.4982 C   0  0  0  0  0  0  0  0  0  0  0  0
    2.6306   -0.7872   -3.3463 C   0  0  0  0  0  0  0  0  0  0  0  0
    1.8856   -0.7872   -2.2279 N   0  0  0  0  0  0  0  0  0  0  0  0
   -0.8149   -0.0180   -1.2556 C   0  0  2  0  0  0  0  0  0  0  0  0
   -0.2806    0.4000   -2.1417 H   0  0  0  0  0  0  0  0  0  0  0  0
   -1.9410    0.8659   -1.0592 O   0  0  0  0  0  0  0  0  0  0  0  0
   -3.1406    0.1647   -1.1646 C   0  0  0  0  0  0  0  0  0  0  0  0
   -4.1742    0.7496   -1.0371 O   0  0  0  0  0  0  0  0  0  0  0  0
   -2.8193   -1.2482   -1.4443 C   0  0  0  0  0  0  0  0  0  0  0  0
   -1.4205   -1.3749   -1.5151 C   0  0  0  0  0  0  0  0  0  0  0  0
   -0.8269   -2.5913   -1.7773 C   0  0  0  0  0  0  0  0  0  0  0  0
   -1.6664   -3.6990   -1.9623 C   0  0  0  0  0  0  0  0  0  0  0  0
   -3.0522   -3.5758   -1.8856 C   0  0  0  0  0  0  0  0  0  0  0  0
   -3.6502   -2.3359   -1.6239 C   0  0  0  0  0  0  0  0  0  0  0  0
   -3.4799   -0.2394    4.9921 H   0  0  0  0  0  0  0  0  0  0  0  0
   -2.2142    0.1350    7.1494 H   0  0  0  0  0  0  0  0  0  0  0  0
    0.2724    0.4391    7.0456 H   0  0  0  0  0  0  0  0  0  0  0  0
    1.4105    0.3798    4.8136 H   0  0  0  0  0  0  0  0  0  0  0  0
   -1.7385    0.0409    1.3113 H   0  0  0  0  0  0  0  0  0  0  0  0
    3.6427    1.4877   -0.4284 H   0  0  0  0  0  0  0  0  0  0  0  0
    5.0133    1.4937   -2.5276 H   0  0  0  0  0  0  0  0  0  0  0  0
    4.3390   -0.0027   -4.4194 H   0  0  0  0  0  0  0  0  0  0  0  0
    2.2928   -1.4626   -4.1411 H   0  0  0  0  0  0  0  0  0  0  0  0
    0.2585   -2.6872   -1.8406 H   0  0  0  0  0  0  0  0  0  0  0  0
   -1.2218   -4.6728   -2.1670 H   0  0  0  0  0  0  0  0  0  0  0  0
   -3.6816   -4.4519   -2.0301 H   0  0  0  0  0  0  0  0  0  0  0  0
   -4.7331   -2.2349   -1.5633 H   0  0  0  0  0  0  0  0  0  0  0  0
  1 12  2  0  0  0  0
  2  1  1  0  0  0  0
  2  3  2  0  0  0  0
  3  4  1  0  0  0  0
  4  5  2  0  0  0  0
  5  6  1  0  0  0  0
  6  7  2  0  0  0  0
  6 11  1  0  0  0  0
  7  8  2  0  0  0  0
  8  9  1  0  0  0  0
  9 31  1  0  0  0  0
 10  9  2  0  0  0  0
 10 32  1  0  0  0  0
 11 10  1  0  0  0  0
 12 34  1  0  0  0  0
 12  5  1  0  0  0  0
 13  2  1  0  0  0  0
 14 13  1  0  0  0  0
 14 35  1  0  0  0  0
 15 14  1  0  0  0  0
 16 17  1  0  0  0  0
 16 15  2  0  0  0  0
 17 18  2  0  0  0  0
 18 13  2  0  0  0  0
 19 20  1  6  0  0  0
 19 21  1  0  0  0  0
 19  1  1  0  0  0  0
 22 21  1  0  0  0  0
 22 23  2  0  0  0  0
 24 22  1  0  0  0  0
 25 24  1  0  0  0  0
 25 19  1  0  0  0  0
 26 25  2  0  0  0  0
 27 28  2  0  0  0  0
 27 26  1  0  0  0  0
 28 29  1  0  0  0  0
 29 42  1  0  0  0  0
 29 24  2  0  0  0  0
 30  8  1  0  0  0  0
 33 11  1  0  0  0  0
 36 15  1  0  0  0  0
 37 16  1  0  0  0  0
 38 17  1  0  0  0  0
 39 26  1  0  0  0  0
 40 27  1  0  0  0  0
 41 28  1  0  0  0  0
M  RAD  2  11   2  14   2
M  END
$$$$
