42
rmsd118.gzmat
C          0.00000        0.00000        0.00000
C          1.40420        0.00000        0.00000
N          2.09810        0.00000        1.18140
N          1.50490        0.00870        2.31470
C          0.13920        0.02610        2.39960
C         -0.44210        0.04310        3.75340
N         -1.77950       -0.15900        3.82350
C         -2.36850       -0.15310        5.02820
C         -1.65420        0.05360        6.21890
C         -0.28030        0.25980        6.14210
C          0.34400        0.25580        4.89540
C         -0.64430        0.02440        1.23860
C          2.26230        0.01990       -1.20060
C          3.46020        0.75210       -1.20990
C          4.23970        0.73950       -2.36450
C          3.81470        0.00340       -3.46780
C          2.60920       -0.70570       -3.37490
N          1.84830       -0.69870       -2.26760
C         -0.81510       -0.02700       -1.25530
H         -0.29580        0.42630       -2.13410
O         -1.97380        0.81140       -1.04770
C         -3.14690        0.07420       -1.19400
O         -4.20200        0.62170       -1.07730
C         -2.77380       -1.32130       -1.49490
C         -1.37050       -1.40020       -1.54330
C         -0.73380       -2.59250       -1.81610
C         -1.53270       -3.72300       -2.03790
C         -2.92290       -3.64720       -1.98210
C         -3.56520       -2.43210       -1.70780
H         -3.45270       -0.32050        5.02870
H         -2.16860        0.05130        7.17480
H          0.30610        0.42370        7.04590
H          1.42090        0.40950        4.80290
H         -1.73950        0.04520        1.31140
H          3.77210        1.30420       -0.32190
H          5.17360        1.30070       -2.40090
H          4.40000       -0.02470       -4.38190
H          2.22570       -1.30460       -4.20930
H          0.35460       -2.65330       -1.86230
H         -1.05200       -4.67650       -2.25620
H         -3.52080       -4.54100       -2.15080
H         -4.65160       -2.36750       -1.66340
