rmsd122.gzmat
 OpenBabel08211713373D

 42 46  0  0  1  0  0  0  0  0999 V2000
    0.0000    0.0000    0.0000 C   0  0  0  0  0  0  0  0  0  0  0  0
    1.4040    0.0000    0.0000 C   0  0  0  0  0  0  0  0  0  0  0  0
    2.1019    0.0000    1.1777 N   0  0  0  0  0  0  0  0  0  0  0  0
    1.5087    0.0017    2.3122 N   0  0  0  0  0  0  0  0  0  0  0  0
    0.1432    0.0032    2.3976 C   0  0  0  0  0  0  0  0  0  0  0  0
   -0.4378    0.0104    3.7518 C   0  0  0  0  0  0  0  0  0  0  0  0
   -1.7443   -0.3343    3.8343 N   0  0  0  0  0  0  0  0  0  0  0  0
   -2.3324   -0.3395    5.0398 C   0  0  0  0  0  0  0  0  0  0  0  0
   -1.6480   -0.0012    6.2177 C   0  0  0  0  0  0  0  0  0  0  0  0
   -0.3049    0.3520    6.1272 C   0  0  0  0  0  0  0  0  0  0  0  0
    0.3186    0.3594    4.8801 C   0  0  0  0  0  0  0  0  0  0  0  0
   -0.6438    0.0035    1.2383 C   0  0  0  0  0  0  0  0  0  0  0  0
    2.2517    0.0139   -1.2079 C   0  0  0  0  0  0  0  0  0  0  0  0
    3.3778    0.8476   -1.2794 C   0  0  0  0  0  0  0  0  0  0  0  0
    4.1588    0.8102   -2.4326 C   0  0  0  0  0  0  0  0  0  0  0  0
    3.8033   -0.0470   -3.4712 C   0  0  0  0  0  0  0  0  0  0  0  0
    2.6613   -0.8456   -3.3201 C   0  0  0  0  0  0  0  0  0  0  0  0
    1.8989   -0.8173   -2.2138 N   0  0  0  0  0  0  0  0  0  0  0  0
   -0.8080    0.0136   -1.2595 C   0  0  2  0  0  0  0  0  0  0  0  0
   -0.2595    0.4424   -2.1326 H   0  0  0  0  0  0  0  0  0  0  0  0
   -1.9218    0.9113   -1.0526 O   0  0  0  0  0  0  0  0  0  0  0  0
   -3.1316    0.2396   -1.2174 C   0  0  0  0  0  0  0  0  0  0  0  0
   -4.1566    0.8409   -1.0971 O   0  0  0  0  0  0  0  0  0  0  0  0
   -2.8306   -1.1688   -1.5371 C   0  0  0  0  0  0  0  0  0  0  0  0
   -1.4330   -1.3244   -1.5664 C   0  0  0  0  0  0  0  0  0  0  0  0
   -0.8576   -2.5454   -1.8479 C   0  0  0  0  0  0  0  0  0  0  0  0
   -1.7149   -3.6259   -2.1007 C   0  0  0  0  0  0  0  0  0  0  0  0
   -3.0996   -3.4727   -2.0710 C   0  0  0  0  0  0  0  0  0  0  0  0
   -3.6791   -2.2296   -1.7838 C   0  0  0  0  0  0  0  0  0  0  0  0
   -3.3913   -0.6249    5.0493 H   0  0  0  0  0  0  0  0  0  0  0  0
   -2.1606   -0.0164    7.1746 H   0  0  0  0  0  0  0  0  0  0  0  0
    0.2583    0.6212    7.0205 H   0  0  0  0  0  0  0  0  0  0  0  0
    1.3725    0.6236    4.7769 H   0  0  0  0  0  0  0  0  0  0  0  0
   -1.7386    0.0099    1.3116 H   0  0  0  0  0  0  0  0  0  0  0  0
    3.6361    1.4950   -0.4410 H   0  0  0  0  0  0  0  0  0  0  0  0
    5.0414    1.4443   -2.5164 H   0  0  0  0  0  0  0  0  0  0  0  0
    4.3955   -0.0998   -4.3797 H   0  0  0  0  0  0  0  0  0  0  0  0
    2.3332   -1.5382   -4.1040 H   0  0  0  0  0  0  0  0  0  0  0  0
    0.2272   -2.6650   -1.8769 H   0  0  0  0  0  0  0  0  0  0  0  0
   -1.2861   -4.6033   -2.3223 H   0  0  0  0  0  0  0  0  0  0  0  0
   -3.7421   -4.3278   -2.2727 H   0  0  0  0  0  0  0  0  0  0  0  0
   -4.7610   -2.1057   -1.7549 H   0  0  0  0  0  0  0  0  0  0  0  0
  1  2  1  0  0  0  0
  1 12  2  0  0  0  0
  2  3  2  0  0  0  0
  3  4  1  0  0  0  0
  4  5  2  0  0  0  0
  5  6  1  0  0  0  0
  6  7  2  0  0  0  0
  6 11  1  0  0  0  0
  7  8  2  0  0  0  0
  8 30  1  0  0  0  0
  8  9  1  0  0  0  0
  9 31  1  0  0  0  0
 10  9  2  0  0  0  0
 10 32  1  0  0  0  0
 11 10  1  0  0  0  0
 12 34  1  0  0  0  0
 12  5  1  0  0  0  0
 13  2  1  0  0  0  0
 14 13  1  0  0  0  0
 14 35  1  0  0  0  0
 15 14  1  0  0  0  0
 16 17  1  0  0  0  0
 16 15  2  0  0  0  0
 17 18  2  0  0  0  0
 18 13  2  0  0  0  0
 19 20  1  6  0  0  0
 19 21  1  0  0  0  0
 19  1  1  0  0  0  0
 22 23  2  0  0  0  0
 22 21  1  0  0  0  0
 24 22  1  0  0  0  0
 25 24  1  0  0  0  0
 25 19  1  0  0  0  0
 26 25  2  0  0  0  0
 27 28  2  0  0  0  0
 27 26  1  0  0  0  0
 28 29  1  0  0  0  0
 29 42  1  0  0  0  0
 29 24  2  0  0  0  0
 33 11  1  0  0  0  0
 36 15  1  0  0  0  0
 37 16  1  0  0  0  0
 38 17  1  0  0  0  0
 39 26  1  0  0  0  0
 40 27  1  0  0  0  0
 41 28  1  0  0  0  0
M  RAD  2  11   2  14   2
M  END
$$$$
