rmsd123.gzmat
 OpenBabel08211713373D

 42 46  0  0  1  0  0  0  0  0999 V2000
    0.0000    0.0000    0.0000 C   0  0  0  0  0  0  0  0  0  0  0  0
    1.4040    0.0000    0.0000 C   0  0  0  0  0  0  0  0  0  0  0  0
    2.1000    0.0000    1.1791 N   0  0  0  0  0  0  0  0  0  0  0  0
    1.5059   -0.0089    2.3130 N   0  0  0  0  0  0  0  0  0  0  0  0
    0.1402   -0.0083    2.3983 C   0  0  0  0  0  0  0  0  0  0  0  0
   -0.4467   -0.0323    3.7498 C   0  0  0  0  0  0  0  0  0  0  0  0
   -1.7900   -0.1971    3.8035 N   0  0  0  0  0  0  0  0  0  0  0  0
   -2.3874   -0.2273    5.0036 C   0  0  0  0  0  0  0  0  0  0  0  0
   -1.6750   -0.0979    6.2063 C   0  0  0  0  0  0  0  0  0  0  0  0
   -0.2947    0.0694    6.1465 C   0  0  0  0  0  0  0  0  0  0  0  0
    0.3375    0.1034    4.9043 C   0  0  0  0  0  0  0  0  0  0  0  0
   -0.6443    0.0091    1.2377 C   0  0  0  0  0  0  0  0  0  0  0  0
    2.2515    0.0097   -1.2081 C   0  0  0  0  0  0  0  0  0  0  0  0
    3.3957    0.8188   -1.2739 C   0  0  0  0  0  0  0  0  0  0  0  0
    4.1719    0.7785   -2.4303 C   0  0  0  0  0  0  0  0  0  0  0  0
    3.7924   -0.0548   -3.4798 C   0  0  0  0  0  0  0  0  0  0  0  0
    2.6334   -0.8300   -3.3346 C   0  0  0  0  0  0  0  0  0  0  0  0
    1.8783   -0.8009   -2.2237 N   0  0  0  0  0  0  0  0  0  0  0  0
   -0.8099   -0.0211   -1.2581 C   0  0  2  0  0  0  0  0  0  0  0  0
   -0.2732    0.3985   -2.1422 H   0  0  0  0  0  0  0  0  0  0  0  0
   -1.9437    0.8548   -1.0727 O   0  0  0  0  0  0  0  0  0  0  0  0
   -3.1372    0.1502   -1.2175 C   0  0  0  0  0  0  0  0  0  0  0  0
   -4.1759    0.7326   -1.1251 O   0  0  0  0  0  0  0  0  0  0  0  0
   -2.8035   -1.2620   -1.4853 C   0  0  0  0  0  0  0  0  0  0  0  0
   -1.4031   -1.3831   -1.5203 C   0  0  0  0  0  0  0  0  0  0  0  0
   -0.7974   -2.5991   -1.7560 C   0  0  0  0  0  0  0  0  0  0  0  0
   -1.6267   -3.7117   -1.9549 C   0  0  0  0  0  0  0  0  0  0  0  0
   -3.0147   -3.5938   -1.9173 C   0  0  0  0  0  0  0  0  0  0  0  0
   -3.6248   -2.3544   -1.6803 C   0  0  0  0  0  0  0  0  0  0  0  0
   -3.4762   -0.3609    4.9881 H   0  0  0  0  0  0  0  0  0  0  0  0
   -2.1960   -0.1286    7.1582 H   0  0  0  0  0  0  0  0  0  0  0  0
    0.2908    0.1729    7.0598 H   0  0  0  0  0  0  0  0  0  0  0  0
    1.4190    0.2301    4.8240 H   0  0  0  0  0  0  0  0  0  0  0  0
   -1.7390    0.0310    1.3106 H   0  0  0  0  0  0  0  0  0  0  0  0
    3.6706    1.4506   -0.4292 H   0  0  0  0  0  0  0  0  0  0  0  0
    5.0686    1.3936   -2.5093 H   0  0  0  0  0  0  0  0  0  0  0  0
    4.3793   -0.1079   -4.3915 H   0  0  0  0  0  0  0  0  0  0  0  0
    2.2855   -1.5028   -4.1272 H   0  0  0  0  0  0  0  0  0  0  0  0
    0.2896   -2.6908   -1.7890 H   0  0  0  0  0  0  0  0  0  0  0  0
   -1.1723   -4.6850   -2.1395 H   0  0  0  0  0  0  0  0  0  0  0  0
   -3.6365   -4.4733   -2.0728 H   0  0  0  0  0  0  0  0  0  0  0  0
   -4.7092   -2.2575   -1.6505 H   0  0  0  0  0  0  0  0  0  0  0  0
  1  2  1  0  0  0  0
  1 12  2  0  0  0  0
  2  3  2  0  0  0  0
  3  4  1  0  0  0  0
  4  5  2  0  0  0  0
  5  6  1  0  0  0  0
  6  7  2  0  0  0  0
  6 11  1  0  0  0  0
  7  8  2  0  0  0  0
  8  9  1  0  0  0  0
  9 31  1  0  0  0  0
 10  9  2  0  0  0  0
 10 32  1  0  0  0  0
 11 10  1  0  0  0  0
 12 34  1  0  0  0  0
 12  5  1  0  0  0  0
 13  2  1  0  0  0  0
 14 13  1  0  0  0  0
 14 35  1  0  0  0  0
 15 14  1  0  0  0  0
 16 17  1  0  0  0  0
 16 15  2  0  0  0  0
 17 18  2  0  0  0  0
 18 13  2  0  0  0  0
 19 20  1  6  0  0  0
 19 21  1  0  0  0  0
 19  1  1  0  0  0  0
 22 23  2  0  0  0  0
 22 21  1  0  0  0  0
 24 22  1  0  0  0  0
 25 24  1  0  0  0  0
 25 19  1  0  0  0  0
 26 25  2  0  0  0  0
 27 28  2  0  0  0  0
 27 26  1  0  0  0  0
 28 29  1  0  0  0  0
 29 42  1  0  0  0  0
 29 24  2  0  0  0  0
 30  8  1  0  0  0  0
 33 11  1  0  0  0  0
 36 15  1  0  0  0  0
 37 16  1  0  0  0  0
 38 17  1  0  0  0  0
 39 26  1  0  0  0  0
 40 27  1  0  0  0  0
 41 28  1  0  0  0  0
M  RAD  2  11   2  14   2
M  END
$$$$
