rmsd118.gzmat
 OpenBabel08211713373D

 42 46  0  0  1  0  0  0  0  0999 V2000
    0.0000    0.0000    0.0000 C   0  0  0  0  0  0  0  0  0  0  0  0
    1.4042    0.0000    0.0000 C   0  0  0  0  0  0  0  0  0  0  0  0
    2.0981    0.0000    1.1814 N   0  0  0  0  0  0  0  0  0  0  0  0
    1.5049    0.0087    2.3147 N   0  0  0  0  0  0  0  0  0  0  0  0
    0.1392    0.0261    2.3996 C   0  0  0  0  0  0  0  0  0  0  0  0
   -0.4421    0.0431    3.7534 C   0  0  0  0  0  0  0  0  0  0  0  0
   -1.7795   -0.1590    3.8235 N   0  0  0  0  0  0  0  0  0  0  0  0
   -2.3685   -0.1531    5.0282 C   0  0  0  0  0  0  0  0  0  0  0  0
   -1.6542    0.0536    6.2189 C   0  0  0  0  0  0  0  0  0  0  0  0
   -0.2803    0.2598    6.1421 C   0  0  0  0  0  0  0  0  0  0  0  0
    0.3440    0.2558    4.8954 C   0  0  0  0  0  0  0  0  0  0  0  0
   -0.6443    0.0244    1.2386 C   0  0  0  0  0  0  0  0  0  0  0  0
    2.2623    0.0199   -1.2006 C   0  0  0  0  0  0  0  0  0  0  0  0
    3.4602    0.7521   -1.2099 C   0  0  0  0  0  0  0  0  0  0  0  0
    4.2397    0.7395   -2.3645 C   0  0  0  0  0  0  0  0  0  0  0  0
    3.8147    0.0034   -3.4678 C   0  0  0  0  0  0  0  0  0  0  0  0
    2.6092   -0.7057   -3.3749 C   0  0  0  0  0  0  0  0  0  0  0  0
    1.8483   -0.6987   -2.2676 N   0  0  0  0  0  0  0  0  0  0  0  0
   -0.8151   -0.0270   -1.2553 C   0  0  2  0  0  0  0  0  0  0  0  0
   -0.2958    0.4263   -2.1341 H   0  0  0  0  0  0  0  0  0  0  0  0
   -1.9738    0.8114   -1.0477 O   0  0  0  0  0  0  0  0  0  0  0  0
   -3.1469    0.0742   -1.1940 C   0  0  0  0  0  0  0  0  0  0  0  0
   -4.2020    0.6217   -1.0773 O   0  0  0  0  0  0  0  0  0  0  0  0
   -2.7738   -1.3213   -1.4949 C   0  0  0  0  0  0  0  0  0  0  0  0
   -1.3705   -1.4002   -1.5433 C   0  0  0  0  0  0  0  0  0  0  0  0
   -0.7338   -2.5925   -1.8161 C   0  0  0  0  0  0  0  0  0  0  0  0
   -1.5327   -3.7230   -2.0379 C   0  0  0  0  0  0  0  0  0  0  0  0
   -2.9229   -3.6472   -1.9821 C   0  0  0  0  0  0  0  0  0  0  0  0
   -3.5652   -2.4321   -1.7078 C   0  0  0  0  0  0  0  0  0  0  0  0
   -3.4527   -0.3205    5.0287 H   0  0  0  0  0  0  0  0  0  0  0  0
   -2.1686    0.0513    7.1748 H   0  0  0  0  0  0  0  0  0  0  0  0
    0.3061    0.4237    7.0459 H   0  0  0  0  0  0  0  0  0  0  0  0
    1.4209    0.4095    4.8029 H   0  0  0  0  0  0  0  0  0  0  0  0
   -1.7395    0.0452    1.3114 H   0  0  0  0  0  0  0  0  0  0  0  0
    3.7721    1.3042   -0.3219 H   0  0  0  0  0  0  0  0  0  0  0  0
    5.1736    1.3007   -2.4009 H   0  0  0  0  0  0  0  0  0  0  0  0
    4.4000   -0.0247   -4.3819 H   0  0  0  0  0  0  0  0  0  0  0  0
    2.2257   -1.3046   -4.2093 H   0  0  0  0  0  0  0  0  0  0  0  0
    0.3546   -2.6533   -1.8623 H   0  0  0  0  0  0  0  0  0  0  0  0
   -1.0520   -4.6765   -2.2562 H   0  0  0  0  0  0  0  0  0  0  0  0
   -3.5208   -4.5410   -2.1508 H   0  0  0  0  0  0  0  0  0  0  0  0
   -4.6516   -2.3675   -1.6634 H   0  0  0  0  0  0  0  0  0  0  0  0
  1 12  2  0  0  0  0
  2  1  1  0  0  0  0
  2  3  2  0  0  0  0
  3  4  1  0  0  0  0
  4  5  2  0  0  0  0
  5  6  1  0  0  0  0
  6  7  2  0  0  0  0
  6 11  1  0  0  0  0
  7  8  2  0  0  0  0
  8 30  1  0  0  0  0
  8  9  1  0  0  0  0
  9 31  1  0  0  0  0
 10  9  2  0  0  0  0
 10 32  1  0  0  0  0
 11 10  1  0  0  0  0
 12 34  1  0  0  0  0
 12  5  1  0  0  0  0
 13  2  1  0  0  0  0
 14 13  1  0  0  0  0
 14 35  1  0  0  0  0
 15 14  1  0  0  0  0
 16 17  1  0  0  0  0
 16 15  2  0  0  0  0
 17 18  2  0  0  0  0
 18 13  2  0  0  0  0
 19 20  1  6  0  0  0
 19 21  1  0  0  0  0
 19  1  1  0  0  0  0
 22 23  2  0  0  0  0
 22 21  1  0  0  0  0
 24 22  1  0  0  0  0
 25 24  1  0  0  0  0
 25 19  1  0  0  0  0
 26 25  2  0  0  0  0
 27 28  2  0  0  0  0
 27 26  1  0  0  0  0
 28 29  1  0  0  0  0
 29 42  1  0  0  0  0
 29 24  2  0  0  0  0
 33 11  1  0  0  0  0
 36 15  1  0  0  0  0
 37 16  1  0  0  0  0
 38 17  1  0  0  0  0
 39 26  1  0  0  0  0
 40 27  1  0  0  0  0
 41 28  1  0  0  0  0
M  RAD  2  11   2  14   2
M  END
$$$$
