42
rmsd1.gzmat
C          0.00000        0.00000        0.00000
C          1.40440        0.00000        0.00000
N          2.10090        0.00000        1.17860
N          1.50700        0.00150        2.31310
C          0.14160        0.00870        2.39730
C         -0.44730        0.01450        3.74790
N         -1.75010       -0.34580        3.82230
C         -2.34740       -0.35190        5.02310
C         -1.67550        0.00030        6.20400
C         -0.33620        0.36880        6.12190
C          0.29640        0.37850        4.87940
C         -0.64420        0.01250        1.23790
C          2.24710        0.02070       -1.21140
C          3.38900        0.83340       -1.27660
C          4.14130        0.82790       -2.44940
C          3.74750        0.01670       -3.51070
C          2.59980       -0.77370       -3.36000
N          1.86310       -0.77200       -2.23640
C         -0.81380       -0.01450       -1.25600
H         -0.28030        0.40750       -2.14100
O         -1.94190        0.86720       -1.05990
C         -3.14030        0.16890       -1.19280
O         -4.17510        0.75520       -1.08280
C         -2.81610       -1.24340       -1.47100
C         -1.41650       -1.37160       -1.52130
C         -0.82020       -2.58950       -1.77040
C         -1.65760       -3.69700       -1.96370
C         -3.04430       -3.57240       -1.90810
C         -3.64510       -2.33080       -1.65990
H         -3.40300       -0.64990        5.02660
H         -2.19520       -0.01510        7.15690
H          0.21650        0.64830        7.01850
H          1.34710        0.65570        4.78110
H         -1.73880        0.02590        1.31150
H          3.68070        1.44270       -0.42090
H          5.02950        1.45420       -2.53310
H          4.31410       -0.00720       -4.43640
H          2.24400       -1.43360       -4.15990
H          0.26590       -2.68660       -1.81680
H         -1.21100       -4.67220       -2.15820
H         -3.67190       -4.44910       -2.05690
H         -4.72860       -2.22850       -1.61580
