rmsd121.gzmat
 OpenBabel08211713373D

 42 46  0  0  1  0  0  0  0  0999 V2000
    0.0000    0.0000    0.0000 C   0  0  0  0  0  0  0  0  0  0  0  0
    1.4042    0.0000    0.0000 C   0  0  0  0  0  0  0  0  0  0  0  0
    2.0999    0.0000    1.1796 N   0  0  0  0  0  0  0  0  0  0  0  0
    1.5066    0.0025    2.3136 N   0  0  0  0  0  0  0  0  0  0  0  0
    0.1408    0.0087    2.3983 C   0  0  0  0  0  0  0  0  0  0  0  0
   -0.4406    0.0122    3.7523 C   0  0  0  0  0  0  0  0  0  0  0  0
   -1.7530   -0.3103    3.8330 N   0  0  0  0  0  0  0  0  0  0  0  0
   -2.3386   -0.3212    5.0397 C   0  0  0  0  0  0  0  0  0  0  0  0
   -1.6456   -0.0115    6.2207 C   0  0  0  0  0  0  0  0  0  0  0  0
   -0.2971    0.3195    6.1320 C   0  0  0  0  0  0  0  0  0  0  0  0
    0.3231    0.3336    4.8835 C   0  0  0  0  0  0  0  0  0  0  0  0
   -0.6444    0.0115    1.2383 C   0  0  0  0  0  0  0  0  0  0  0  0
    2.2574    0.0162   -1.2041 C   0  0  0  0  0  0  0  0  0  0  0  0
    3.4278    0.7897   -1.2389 C   0  0  0  0  0  0  0  0  0  0  0  0
    4.2064    0.7653   -2.3939 C   0  0  0  0  0  0  0  0  0  0  0  0
    3.8047   -0.0186   -3.4729 C   0  0  0  0  0  0  0  0  0  0  0  0
    2.6241   -0.7649   -3.3553 C   0  0  0  0  0  0  0  0  0  0  0  0
    1.8658   -0.7498   -2.2463 N   0  0  0  0  0  0  0  0  0  0  0  0
   -0.8108   -0.0086   -1.2581 C   0  0  2  0  0  0  0  0  0  0  0  0
   -0.2762    0.4322   -2.1337 H   0  0  0  0  0  0  0  0  0  0  0  0
   -1.9492    0.8587   -1.0560 O   0  0  0  0  0  0  0  0  0  0  0  0
   -3.1396    0.1520   -1.2160 C   0  0  0  0  0  0  0  0  0  0  0  0
   -4.1810    0.7271   -1.1074 O   0  0  0  0  0  0  0  0  0  0  0  0
   -2.7993   -1.2517   -1.5167 C   0  0  0  0  0  0  0  0  0  0  0  0
   -1.3981   -1.3666   -1.5512 C   0  0  0  0  0  0  0  0  0  0  0  0
   -0.7884   -2.5746   -1.8158 C   0  0  0  0  0  0  0  0  0  0  0  0
   -1.6134   -3.6860   -2.0390 C   0  0  0  0  0  0  0  0  0  0  0  0
   -3.0019   -3.5740   -2.0009 C   0  0  0  0  0  0  0  0  0  0  0  0
   -3.6166   -2.3418   -1.7395 C   0  0  0  0  0  0  0  0  0  0  0  0
   -3.4020   -0.5894    5.0486 H   0  0  0  0  0  0  0  0  0  0  0  0
   -2.1561   -0.0303    7.1786 H   0  0  0  0  0  0  0  0  0  0  0  0
    0.2726    0.5671    7.0275 H   0  0  0  0  0  0  0  0  0  0  0  0
    1.3806    0.5825    4.7805 H   0  0  0  0  0  0  0  0  0  0  0  0
   -1.7391    0.0241    1.3110 H   0  0  0  0  0  0  0  0  0  0  0  0
    3.7195    1.3838   -0.3723 H   0  0  0  0  0  0  0  0  0  0  0  0
    5.1222    1.3540   -2.4482 H   0  0  0  0  0  0  0  0  0  0  0  0
    4.3900   -0.0549   -4.3865 H   0  0  0  0  0  0  0  0  0  0  0  0
    2.2591   -1.4019   -4.1699 H   0  0  0  0  0  0  0  0  0  0  0  0
    0.2989   -2.6620   -1.8535 H   0  0  0  0  0  0  0  0  0  0  0  0
   -1.1556   -4.6537   -2.2434 H   0  0  0  0  0  0  0  0  0  0  0  0
   -3.6197   -4.4530   -2.1744 H   0  0  0  0  0  0  0  0  0  0  0  0
   -4.7016   -2.2491   -1.7114 H   0  0  0  0  0  0  0  0  0  0  0  0
  1  2  1  0  0  0  0
  1 12  2  0  0  0  0
  2  3  2  0  0  0  0
  3  4  1  0  0  0  0
  4  5  2  0  0  0  0
  5  6  1  0  0  0  0
  6  7  2  0  0  0  0
  6 11  1  0  0  0  0
  7  8  2  0  0  0  0
  8 30  1  0  0  0  0
  8  9  1  0  0  0  0
  9 31  1  0  0  0  0
 10  9  2  0  0  0  0
 10 32  1  0  0  0  0
 11 10  1  0  0  0  0
 12 34  1  0  0  0  0
 12  5  1  0  0  0  0
 13  2  1  0  0  0  0
 14 13  1  0  0  0  0
 14 35  1  0  0  0  0
 15 14  1  0  0  0  0
 16 17  1  0  0  0  0
 16 15  2  0  0  0  0
 17 18  2  0  0  0  0
 18 13  2  0  0  0  0
 19 20  1  6  0  0  0
 19 21  1  0  0  0  0
 19  1  1  0  0  0  0
 22 23  2  0  0  0  0
 22 21  1  0  0  0  0
 24 22  1  0  0  0  0
 25 24  1  0  0  0  0
 25 19  1  0  0  0  0
 26 25  2  0  0  0  0
 27 28  2  0  0  0  0
 27 26  1  0  0  0  0
 28 29  1  0  0  0  0
 29 42  1  0  0  0  0
 29 24  2  0  0  0  0
 33 11  1  0  0  0  0
 36 15  1  0  0  0  0
 37 16  1  0  0  0  0
 38 17  1  0  0  0  0
 39 26  1  0  0  0  0
 40 27  1  0  0  0  0
 41 28  1  0  0  0  0
M  RAD  2  11   2  14   2
M  END
$$$$
