42

C         -0.07530        0.06980        0.02570
C          1.34240        0.10190        0.01540
N          2.04550        0.18420        1.15880
N          1.46640        0.20600        2.33120
C          0.12930        0.15180        2.41770
C         -0.46650        0.16540        3.77800
N         -1.80370        0.10100        3.84860
C         -2.37950        0.11230        5.04840
C         -1.65670        0.18680        6.24420
C         -0.26340        0.25230        6.17110
C          0.34820        0.24170        4.91920
C         -0.67810        0.09770        1.27520
C          2.18800        0.07780       -1.21060
C          3.53780        0.47150       -1.14250
C          4.30520        0.43210       -2.30280
C          3.71610        0.00160       -3.49530
C          2.37220       -0.37390       -3.46480
N          1.63080       -0.33910       -2.35650
C         -0.96040        0.01690       -1.20650
H         -0.45680        0.49230       -2.05640
O         -2.18560        0.72350       -0.94940
C         -3.29100       -0.07110       -1.12900
O         -4.41020        0.33170       -0.98350
C         -2.79910       -1.41630       -1.50880
C         -1.40780       -1.38730       -1.56290
C         -0.68640       -2.53540       -1.88500
C         -1.40810       -3.70410       -2.15350
C         -2.81220       -3.72870       -2.10190
C         -3.52780       -2.57560       -1.77560
H         -3.47400        0.05950        5.06550
H         -2.17720        0.19310        7.20400
H          0.34020        0.31150        7.08010
H          1.42950        0.29070        4.79490
H         -1.76000        0.09740        1.39720
H          3.94580        0.79090       -0.18510
H          5.35470        0.73520       -2.27850
H          4.28280       -0.04520       -4.42730
H          1.87050       -0.72430       -4.37370
H          0.40180       -2.51580       -1.93080
H         -0.86750       -4.61890       -2.40870
H         -3.34310       -4.65870       -2.31710
H         -4.61850       -2.56340       -1.72520
