rmsd111.gzmat
 OpenBabel08211713373D

 42 46  0  0  1  0  0  0  0  0999 V2000
    0.0000    0.0000    0.0000 C   0  0  0  0  0  0  0  0  0  0  0  0
    1.4043    0.0000    0.0000 C   0  0  0  0  0  0  0  0  0  0  0  0
    2.0988    0.0000    1.1809 N   0  0  0  0  0  0  0  0  0  0  0  0
    1.5056    0.0066    2.3151 N   0  0  0  0  0  0  0  0  0  0  0  0
    0.1401    0.0159    2.3986 C   0  0  0  0  0  0  0  0  0  0  0  0
   -0.4506    0.0306    3.7483 C   0  0  0  0  0  0  0  0  0  0  0  0
   -1.7391   -0.3770    3.8304 N   0  0  0  0  0  0  0  0  0  0  0  0
   -2.3381   -0.3753    5.0306 C   0  0  0  0  0  0  0  0  0  0  0  0
   -1.6827    0.0330    6.2026 C   0  0  0  0  0  0  0  0  0  0  0  0
   -0.3573    0.4475    6.1126 C   0  0  0  0  0  0  0  0  0  0  0  0
    0.2773    0.4481    4.8709 C   0  0  0  0  0  0  0  0  0  0  0  0
   -0.6442    0.0136    1.2384 C   0  0  0  0  0  0  0  0  0  0  0  0
    2.2563    0.0177   -1.2050 C   0  0  0  0  0  0  0  0  0  0  0  0
    3.4482    0.7584   -1.2285 C   0  0  0  0  0  0  0  0  0  0  0  0
    4.2179    0.7436   -2.3898 C   0  0  0  0  0  0  0  0  0  0  0  0
    3.7895   -0.0030   -3.4847 C   0  0  0  0  0  0  0  0  0  0  0  0
    2.5905   -0.7211   -3.3773 C   0  0  0  0  0  0  0  0  0  0  0  0
    1.8389   -0.7120   -2.2639 N   0  0  0  0  0  0  0  0  0  0  0  0
   -0.8199   -0.0109   -1.2524 C   0  0  2  0  0  0  0  0  0  0  0  0
   -0.2978    0.4341   -2.1331 H   0  0  0  0  0  0  0  0  0  0  0  0
   -1.9613    0.8490   -1.0356 O   0  0  0  0  0  0  0  0  0  0  0  0
   -3.1489    0.1319   -1.1635 C   0  0  0  0  0  0  0  0  0  0  0  0
   -4.1921    0.6980   -1.0292 O   0  0  0  0  0  0  0  0  0  0  0  0
   -2.8040   -1.2691   -1.4715 C   0  0  0  0  0  0  0  0  0  0  0  0
   -1.4029   -1.3728   -1.5374 C   0  0  0  0  0  0  0  0  0  0  0  0
   -0.7902   -2.5751   -1.8207 C   0  0  0  0  0  0  0  0  0  0  0  0
   -1.6118   -3.6906   -2.0366 C   0  0  0  0  0  0  0  0  0  0  0  0
   -2.9995   -3.5900   -1.9654 C   0  0  0  0  0  0  0  0  0  0  0  0
   -3.6172   -2.3652   -1.6784 C   0  0  0  0  0  0  0  0  0  0  0  0
   -3.3819   -0.7121    5.0400 H   0  0  0  0  0  0  0  0  0  0  0  0
   -2.2048    0.0253    7.1547 H   0  0  0  0  0  0  0  0  0  0  0  0
    0.1826    0.7696    7.0029 H   0  0  0  0  0  0  0  0  0  0  0  0
    1.3177    0.7593    4.7658 H   0  0  0  0  0  0  0  0  0  0  0  0
   -1.7385    0.0231    1.3112 H   0  0  0  0  0  0  0  0  0  0  0  0
    3.7640    1.3192   -0.3477 H   0  0  0  0  0  0  0  0  0  0  0  0
    5.1478    1.3102   -2.4372 H   0  0  0  0  0  0  0  0  0  0  0  0
    4.3681   -0.0324   -4.4029 H   0  0  0  0  0  0  0  0  0  0  0  0
    2.2045   -1.3284   -4.2045 H   0  0  0  0  0  0  0  0  0  0  0  0
    0.2965   -2.6546   -1.8779 H   0  0  0  0  0  0  0  0  0  0  0  0
   -1.1514   -4.6526   -2.2619 H   0  0  0  0  0  0  0  0  0  0  0  0
   -3.6149   -4.4718   -2.1341 H   0  0  0  0  0  0  0  0  0  0  0  0
   -4.7016   -2.2820   -1.6200 H   0  0  0  0  0  0  0  0  0  0  0  0
  1 12  2  0  0  0  0
  2  1  1  0  0  0  0
  2  3  2  0  0  0  0
  3  4  1  0  0  0  0
  4  5  2  0  0  0  0
  5  6  1  0  0  0  0
  6  7  2  0  0  0  0
  6 11  1  0  0  0  0
  7  8  2  0  0  0  0
  8 30  1  0  0  0  0
  8  9  1  0  0  0  0
  9 31  1  0  0  0  0
 10  9  2  0  0  0  0
 10 32  1  0  0  0  0
 11 10  1  0  0  0  0
 12 34  1  0  0  0  0
 12  5  1  0  0  0  0
 13  2  1  0  0  0  0
 14 13  1  0  0  0  0
 14 35  1  0  0  0  0
 15 14  1  0  0  0  0
 16 17  1  0  0  0  0
 16 15  2  0  0  0  0
 17 18  2  0  0  0  0
 18 13  2  0  0  0  0
 19 20  1  6  0  0  0
 19 21  1  0  0  0  0
 19  1  1  0  0  0  0
 22 21  1  0  0  0  0
 22 23  2  0  0  0  0
 24 22  1  0  0  0  0
 25 24  1  0  0  0  0
 25 19  1  0  0  0  0
 26 25  2  0  0  0  0
 27 28  2  0  0  0  0
 27 26  1  0  0  0  0
 28 29  1  0  0  0  0
 29 42  1  0  0  0  0
 29 24  2  0  0  0  0
 33 11  1  0  0  0  0
 36 15  1  0  0  0  0
 37 16  1  0  0  0  0
 38 17  1  0  0  0  0
 39 26  1  0  0  0  0
 40 27  1  0  0  0  0
 41 28  1  0  0  0  0
M  RAD  2  11   2  14   2
M  END
$$$$
