34
rmsd25.gzmat
O          0.00000        0.00000        0.00000
C          1.41080        0.00000        0.00000
C          1.95140        0.00000        1.43520
H          1.69570        0.96260        1.93480
C          3.50100       -0.17790        1.42700
H          3.95620        0.04990        0.44050
O          4.09040        0.79110        2.25330
C          3.82230       -1.60660        1.91830
C          2.52550       -2.15680        2.48580
N          2.36270       -3.58490        2.40990
C          3.10590       -4.36720        3.32370
O          3.84100       -3.86120        4.14250
N          2.94040       -5.74940        3.22080
H          3.46060       -6.33170        3.88340
C          2.10970       -6.39170        2.26150
O          2.06470       -7.59830        2.29520
C          1.40950       -5.49880        1.34240
C          1.55330       -4.15360        1.43670
C          0.55440       -6.14910        0.32080
C          1.38500       -1.17360        2.20770
H          0.37710       -1.48040        1.92830
C          1.86640       -1.39100        3.62450
H         -0.34970        0.79680        0.44470
H          1.77800        0.86640       -0.57910
H          1.65190       -0.93570       -0.54040
H          3.91780        0.61260        3.20000
H          4.20570       -2.23570        1.09590
H          4.62730       -1.60160        2.68110
H          1.04250       -3.45150        0.76330
H          0.01210       -5.43350       -0.30980
H         -0.19510       -6.81000        0.79040
H          1.15260       -6.79300       -0.34670
H          1.22840       -1.92660        4.32700
H          2.42300       -0.62640        4.15660
