rmsd20.gzmat
 OpenBabel08211713373D

 34 36  0  0  1  0  0  0  0  0999 V2000
    0.0000    0.0000    0.0000 O   0  0  0  0  0  0  0  0  0  0  0  0
    1.4041    0.0000    0.0000 C   0  0  0  0  0  0  0  0  0  0  0  0
    1.9443    0.0000    1.4410 C   0  0  2  0  0  0  0  0  0  0  0  0
    3.0301   -0.2411    1.4320 H   0  0  0  0  0  0  0  0  0  0  0  0
    1.1710   -1.0605    2.2775 C   0  0  1  0  0  0  0  0  0  0  0  0
    0.6579   -1.8169    1.6427 H   0  0  0  0  0  0  0  0  0  0  0  0
    2.0617   -1.8489    3.0249 O   0  0  0  0  0  0  0  0  0  0  0  0
    0.1879   -0.3125    3.2147 C   0  0  0  0  0  0  0  0  0  0  0  0
    0.6022    1.1454    3.1705 C   0  0  2  0  0  0  0  0  0  0  0  0
   -0.4369    2.1207    3.3833 N   0  0  0  0  0  0  0  0  0  0  0  0
   -1.1408    2.6193    2.2712 C   0  0  0  0  0  0  0  0  0  0  0  0
   -0.8794    2.2853    1.1306 O   0  0  0  0  0  0  0  0  0  0  0  0
   -2.1437    3.5482    2.5369 N   0  0  0  0  0  0  0  0  0  0  0  0
   -2.6541    3.9282    1.7327 H   0  0  0  0  0  0  0  0  0  0  0  0
   -2.5286    3.9638    3.8438 C   0  0  0  0  0  0  0  0  0  0  0  0
   -3.4247    4.7681    3.9206 O   0  0  0  0  0  0  0  0  0  0  0  0
   -1.7739    3.3567    4.9371 C   0  0  0  0  0  0  0  0  0  0  0  0
   -0.7835    2.4662    4.6854 C   0  0  0  0  0  0  0  0  0  0  0  0
   -2.1557    3.7779    6.3060 C   0  0  0  0  0  0  0  0  0  0  0  0
    1.6846    1.3380    2.1019 C   0  0  1  0  0  0  0  0  0  0  0  0
    1.7060    2.2110    1.4488 H   0  0  0  0  0  0  0  0  0  0  0  0
    2.0289    1.4993    3.5665 C   0  0  0  0  0  0  0  0  0  0  0  0
   -0.3535    0.8072    0.4303 H   0  0  0  0  0  0  0  0  0  0  0  0
    1.7762    0.8658   -0.5768 H   0  0  0  0  0  0  0  0  0  0  0  0
    1.6588   -0.9366   -0.5325 H   0  0  0  0  0  0  0  0  0  0  0  0
    2.6190   -1.3125    3.6184 H   0  0  0  0  0  0  0  0  0  0  0  0
   -0.8499   -0.4433    2.8505 H   0  0  0  0  0  0  0  0  0  0  0  0
    0.2123   -0.7368    4.2321 H   0  0  0  0  0  0  0  0  0  0  0  0
   -0.1966    1.9840    5.4779 H   0  0  0  0  0  0  0  0  0  0  0  0
   -1.4954    3.3750    7.0839 H   0  0  0  0  0  0  0  0  0  0  0  0
   -3.1857    3.4649    6.5483 H   0  0  0  0  0  0  0  0  0  0  0  0
   -2.1435    4.8781    6.4017 H   0  0  0  0  0  0  0  0  0  0  0  0
    2.2511    2.4951    3.9443 H   0  0  0  0  0  0  0  0  0  0  0  0
    2.6422    0.7678    4.0815 H   0  0  0  0  0  0  0  0  0  0  0  0
  1 23  1  0  0  0  0
  2  1  1  0  0  0  0
  2  3  1  0  0  0  0
  3 20  1  0  0  0  0
  3  4  1  1  0  0  0
  5  3  1  0  0  0  0
  5  7  1  0  0  0  0
  5  8  1  0  0  0  0
  5  6  1  6  0  0  0
  7 26  1  0  0  0  0
  8 28  1  0  0  0  0
  9 20  1  0  0  0  0
  9  8  1  0  0  0  0
  9 10  1  1  0  0  0
  9 22  1  0  0  0  0
 10 18  1  0  0  0  0
 11 13  1  0  0  0  0
 11 10  1  0  0  0  0
 12 11  2  0  0  0  0
 13 15  1  0  0  0  0
 14 13  1  0  0  0  0
 15 16  2  0  0  0  0
 15 17  1  0  0  0  0
 17 19  1  0  0  0  0
 18 17  2  0  0  0  0
 18 29  1  0  0  0  0
 19 32  1  0  0  0  0
 19 31  1  0  0  0  0
 19 30  1  0  0  0  0
 20 21  1  6  0  0  0
 20 22  1  0  0  0  0
 22 33  1  0  0  0  0
 22 34  1  0  0  0  0
 24  2  1  0  0  0  0
 25  2  1  0  0  0  0
 27  8  1  0  0  0  0
M  END
$$$$
