rmsd23.gzmat
 OpenBabel08211713373D

 34 36  0  0  1  0  0  0  0  0999 V2000
    0.0000    0.0000    0.0000 O   0  0  0  0  0  0  0  0  0  0  0  0
    1.4118    0.0000    0.0000 C   0  0  0  0  0  0  0  0  0  0  0  0
    1.9513    0.0000    1.4362 C   0  0  2  0  0  0  0  0  0  0  0  0
    1.3545   -0.7293    2.0366 H   0  0  0  0  0  0  0  0  0  0  0  0
    1.8263    1.4181    2.0670 C   0  0  1  0  0  0  0  0  0  0  0  0
    1.2354    2.1201    1.4387 H   0  0  0  0  0  0  0  0  0  0  0  0
    1.0595    1.3707    3.2416 O   0  0  0  0  0  0  0  0  0  0  0  0
    3.2470    1.9620    2.3556 C   0  0  0  0  0  0  0  0  0  0  0  0
    4.2060    0.8365    2.0181 C   0  0  2  0  0  0  0  0  0  0  0  0
    5.4810    1.2280    1.4759 N   0  0  0  0  0  0  0  0  0  0  0  0
    5.5957    1.3819    0.0761 C   0  0  0  0  0  0  0  0  0  0  0  0
    4.6765    1.1324   -0.6726 O   0  0  0  0  0  0  0  0  0  0  0  0
    6.8334    1.8277   -0.3912 N   0  0  0  0  0  0  0  0  0  0  0  0
    6.9368    1.9417   -1.4040 H   0  0  0  0  0  0  0  0  0  0  0  0
    7.9467    2.1321    0.4395 C   0  0  0  0  0  0  0  0  0  0  0  0
    8.9552    2.5067   -0.1089 O   0  0  0  0  0  0  0  0  0  0  0  0
    7.7250    1.9533    1.8723 C   0  0  0  0  0  0  0  0  0  0  0  0
    6.5267    1.5249    2.3397 C   0  0  0  0  0  0  0  0  0  0  0  0
    8.8750    2.2622    2.7551 C   0  0  0  0  0  0  0  0  0  0  0  0
    3.4211   -0.3572    1.4629 C   0  0  1  0  0  0  0  0  0  0  0  0
    3.7925   -0.9514    0.6270 H   0  0  0  0  0  0  0  0  0  0  0  0
    4.1007   -0.4575    2.8115 C   0  0  0  0  0  0  0  0  0  0  0  0
   -0.3494    0.6411    0.6515 H   0  0  0  0  0  0  0  0  0  0  0  0
    1.7716    0.8665   -0.5860 H   0  0  0  0  0  0  0  0  0  0  0  0
    1.6619   -0.9310   -0.5434 H   0  0  0  0  0  0  0  0  0  0  0  0
    1.4461    0.7747    3.9107 H   0  0  0  0  0  0  0  0  0  0  0  0
    3.4506    2.8568    1.7377 H   0  0  0  0  0  0  0  0  0  0  0  0
    3.3365    2.2956    3.4037 H   0  0  0  0  0  0  0  0  0  0  0  0
    6.3190    1.3842    3.4082 H   0  0  0  0  0  0  0  0  0  0  0  0
    8.6296    2.2092    3.8227 H   0  0  0  0  0  0  0  0  0  0  0  0
    9.2692    3.2743    2.5569 H   0  0  0  0  0  0  0  0  0  0  0  0
    9.7137    1.5684    2.5719 H   0  0  0  0  0  0  0  0  0  0  0  0
    4.9731   -1.0996    2.9128 H   0  0  0  0  0  0  0  0  0  0  0  0
    3.5181   -0.4810    3.7265 H   0  0  0  0  0  0  0  0  0  0  0  0
  1 23  1  0  0  0  0
  2  1  1  0  0  0  0
  2  3  1  0  0  0  0
  3 20  1  0  0  0  0
  3  4  1  1  0  0  0
  5  3  1  0  0  0  0
  5  8  1  0  0  0  0
  5  7  1  0  0  0  0
  5  6  1  6  0  0  0
  7 26  1  0  0  0  0
  8 28  1  0  0  0  0
  9 20  1  0  0  0  0
  9  8  1  0  0  0  0
  9 22  1  0  0  0  0
  9 10  1  6  0  0  0
 10 18  1  0  0  0  0
 11 10  1  0  0  0  0
 12 11  2  0  0  0  0
 13 11  1  0  0  0  0
 13 15  1  0  0  0  0
 14 13  1  0  0  0  0
 15 17  1  0  0  0  0
 16 15  2  0  0  0  0
 17 18  2  0  0  0  0
 17 19  1  0  0  0  0
 18 29  1  0  0  0  0
 19 30  1  0  0  0  0
 20 21  1  6  0  0  0
 20 22  1  0  0  0  0
 22 33  1  0  0  0  0
 22 34  1  0  0  0  0
 24  2  1  0  0  0  0
 25  2  1  0  0  0  0
 27  8  1  0  0  0  0
 31 19  1  0  0  0  0
 32 19  1  0  0  0  0
M  END
$$$$
