34
rmsd26.gzmat
O          0.00000        0.00000        0.00000
C          1.41140        0.00000        0.00000
C          1.95220        0.00000        1.43500
H          1.72040        0.97410        1.92420
C          3.49710       -0.21690        1.43310
H          3.95680       -0.03500        0.43900
O          4.11380        0.76400        2.22450
C          3.78690       -1.63520        1.97450
C          2.47230       -2.14750        2.53490
N          2.27730       -3.57260        2.48270
C          2.92790       -4.35260        3.46650
O          3.61160       -3.84730        4.32890
N          2.73270       -5.73210        3.37910
H          3.18730       -6.31430        4.08830
C          1.94920       -6.37290        2.37960
O          1.86130       -7.57610        2.44020
C          1.34280       -5.48340        1.39280
C          1.52140       -4.14120        1.46660
C          0.53900       -6.13110        0.32870
C          1.35380       -1.14960        2.21920
H          0.34680       -1.44930        1.92800
C          1.81080       -1.34570        3.64670
H         -0.35050        0.79330        0.45210
H          1.77800        0.86620       -0.57970
H          1.65290       -0.93570       -0.54040
H          3.92230        0.63490        3.17570
H          4.17510       -2.29640        1.17950
H          4.57950       -1.61720        2.75040
H          1.08090       -3.44160        0.74280
H         -0.00880       -5.41500       -0.29660
H         -0.20290       -6.82800        0.75750
H          1.17510       -6.73690       -0.33840
H          1.15540       -1.85680        4.35110
H          2.37360       -0.57960        4.17040
