34
rmsd23.gzmat
O          0.00000        0.00000        0.00000
C          1.41180        0.00000        0.00000
C          1.95130        0.00000        1.43620
H          1.35450       -0.72930        2.03660
C          1.82630        1.41810        2.06700
H          1.23540        2.12010        1.43870
O          1.05950        1.37070        3.24160
C          3.24700        1.96200        2.35560
C          4.20600        0.83650        2.01810
N          5.48100        1.22800        1.47590
C          5.59570        1.38190        0.07610
O          4.67650        1.13240       -0.67260
N          6.83340        1.82770       -0.39120
H          6.93680        1.94170       -1.40400
C          7.94670        2.13210        0.43950
O          8.95520        2.50670       -0.10890
C          7.72500        1.95330        1.87230
C          6.52670        1.52490        2.33970
C          8.87500        2.26220        2.75510
C          3.42110       -0.35720        1.46290
H          3.79250       -0.95140        0.62700
C          4.10070       -0.45750        2.81150
H         -0.34940        0.64110        0.65150
H          1.77160        0.86650       -0.58600
H          1.66190       -0.93100       -0.54340
H          1.44610        0.77470        3.91070
H          3.45060        2.85680        1.73770
H          3.33650        2.29560        3.40370
H          6.31900        1.38420        3.40820
H          8.62960        2.20920        3.82270
H          9.26920        3.27430        2.55690
H          9.71370        1.56840        2.57190
H          4.97310       -1.09960        2.91280
H          3.51810       -0.48100        3.72650
