34
rmsd30.gzmat
O          0.00000        0.00000        0.00000
C          1.41040        0.00000        0.00000
C          1.95190        0.00000        1.43440
H          1.65880        0.94660        1.94470
C          3.50650       -0.11820        1.42880
H          3.95450        0.12650        0.44330
O          4.05970        0.87120        2.25610
C          3.88730       -1.53330        1.92400
C          2.61120       -2.14030        2.47970
N          2.48770       -3.56930        2.37190
C          2.84980       -4.36060        3.48510
O          3.22320       -3.86740        4.52580
N          2.74330       -5.74240        3.31080
H          2.99770       -6.33420        4.10700
C          2.31320       -6.37370        2.11120
O          2.27370       -7.58080        2.11050
C          1.97100       -5.47040        1.01590
C          2.06390       -4.12720        1.17320
C          1.52090       -6.10220       -0.24750
C          1.43060       -1.20170        2.19300
H          0.44420       -1.56020        1.89730
C          1.90940       -1.40860        3.61110
H         -0.34960        0.78860        0.46100
H          1.77630        0.86590       -0.58050
H          1.65170       -0.93490       -0.54000
H          3.84340        0.71640        3.19840
H          4.30550       -2.14540        1.10620
H          4.68620       -1.48400        2.68970
H          1.80820       -3.41480        0.37730
H          1.44580       -5.39400       -1.08200
H          0.53260       -6.57700       -0.12490
H          2.20870       -6.90740       -0.55910
H          1.29240       -1.97540        4.30980
H          2.43180       -0.62760        4.15420
