34
rmsd19.gzmat
O          0.00000        0.00000        0.00000
C          1.40640        0.00000        0.00000
C          1.95140        0.00000        1.43630
H          3.04600       -0.20660        1.41180
C          1.22730       -1.09730        2.27020
H          0.69820       -1.84110        1.63410
O          2.16090       -1.89420        2.95300
C          0.27730       -0.39710        3.27440
C          0.65180        1.07270        3.24870
N         -0.39930        2.00080        3.58220
C         -1.06380        2.70210        2.55740
O         -0.76580        2.57630        1.38660
N         -2.07300        3.57570        2.95980
H         -2.55260        4.10570        2.22460
C         -2.50230        3.74500        4.30610
O         -3.39110        4.53740        4.50320
C         -1.79780        2.92860        5.29140
C         -0.79460        2.09980        4.91280
C         -2.24490        3.06760        6.69790
C          1.66740        1.31910        2.12760
H          1.62910        2.20290        1.48870
C          2.09010        1.45910        3.57320
H         -0.34410        0.80140        0.46060
H          1.77500        0.86490       -0.58010
H          1.65830       -0.93660       -0.53440
H          2.71930       -1.37010        3.55640
H         -0.77590       -0.54440        2.96570
H          0.36720       -0.84570        4.27780
H         -0.23790        1.47510        5.62340
H         -1.67100        2.44910        7.39900
H         -3.30850        2.79230        6.80720
H         -2.16670        4.11440        7.04040
H          2.30100        2.45340        3.96320
H          2.75460        0.73640        4.03310
