34
rmsd21.gzmat
O          0.00000        0.00000        0.00000
C          1.40620        0.00000        0.00000
C          1.95300        0.00000        1.43570
H          3.04400       -0.22380        1.40950
C          1.21700       -1.08390        2.27540
H          0.67160       -1.82000        1.64450
O          2.14520       -1.89270        2.95200
C          0.28570       -0.36780        3.28640
C          0.67430        1.09860        3.24610
N         -0.36640        2.04310        3.56640
C         -1.03840        2.71780        2.52850
O         -0.72630        2.58820        1.36180
N         -2.07240        3.57130        2.91060
H         -2.56270        4.07400        2.16340
C         -2.52470        3.73890        4.24960
O         -3.45650        4.48570        4.42490
C         -1.78860        2.97510        5.25400
C         -0.76290        2.16540        4.89520
C         -2.23440        3.14310        6.65740
C          1.69270        1.32510        2.12370
H          1.66950        2.20790        1.48240
C          2.11760        1.46580        3.56930
H         -0.34320        0.80510        0.45400
H          1.77570        0.86390       -0.58100
H          1.65760       -0.93790       -0.53280
H          2.72940       -1.37120        3.53380
H         -0.77240       -0.51010        2.99370
H          0.38670       -0.81060        4.29180
H         -0.18630        1.57580        5.61980
H         -1.60960        2.60390        7.37960
H         -3.27260        2.79270        6.78940
H         -2.23470        4.20730        6.95110
H          2.34330        2.45800        3.95500
H          2.77020        0.73530        4.03420
