67
rmsd31.gzmat
C          0.00000        0.00000        0.00000
S          1.74520        0.00000        0.00000
O          2.23490        0.00000        1.37840
O          2.26930       -0.96730       -0.93450
N          2.18860        1.54920       -0.66910
C          2.42230        2.66310        0.26850
C          3.56660        3.60500       -0.18430
N          4.77290        3.48120        0.63590
C          5.90370        2.67190        0.11930
C          5.52670        1.19440       -0.03500
C          6.41450        3.25560       -1.20670
C          4.81480        3.86110        1.96150
O          5.76730        3.54920        2.65330
C          3.68600        4.72390        2.57580
H          3.00470        5.14750        1.78510
C          4.34230        5.87470        3.34480
N          2.89520        3.86730        3.44320
C          1.54930        3.62390        3.26280
O          0.87890        4.19020        2.43220
C          1.10410        2.51650        4.24760
H          0.19520        2.85540        4.81130
C          2.32560        2.33780        5.19500
C          3.50080        3.10140        4.54630
N          0.80720        1.34610        3.44750
S         -0.21300        0.08300        4.03210
O         -1.07550        0.65550        5.04020
O         -0.75900       -0.56820        2.86160
C          0.90840       -1.01490        4.83180
C          0.66300       -1.37700        6.17880
C          1.53570       -2.19900        6.84440
C          2.70020       -2.69100        6.19340
C          3.62900       -3.53340        6.86510
C          4.73370       -3.96230        6.18440
C          5.00450       -3.60840        4.84420
C          4.11190       -2.80130        4.18770
C          2.94210       -2.33030        4.84910
C          2.01370       -1.49080        4.17470
Cl         5.85560       -4.98030        6.97620
H         -0.42470       -0.75930        0.69510
H         -0.43010       -0.20130       -0.98870
H         -0.43300        0.95060        0.35750
H          2.87880        1.50460       -1.41570
H          2.63630        2.30470        1.30310
H          1.46620        3.24620        0.32830
H          3.21160        4.66250       -0.15520
H          3.82640        3.42000       -1.25240
H          6.73850        2.74640        0.87990
H          4.93200        0.99950       -0.93040
H          4.95570        0.83490        0.83360
H          6.42570        0.57080       -0.10440
H          5.72180        3.09530       -2.03730
H          7.36800        2.78890       -1.48280
H          6.58990        4.33510       -1.12020
H          3.59500        6.45010        3.90490
H          4.85970        6.56060        2.66380
H          5.09190        5.50730        4.06190
H          2.09780        2.73560        6.19700
H          2.58020        1.27490        5.33930
H          4.00100        3.78620        5.26110
H          4.28260        2.41020        4.15740
H          1.51370        1.09790        2.74840
H         -0.22790       -0.99440        6.69340
H          1.35420       -2.48460        7.87940
H          3.43980       -3.81610        7.90020
H          5.90660       -3.97450        4.35200
H          4.28230       -2.50360        3.14940
H          2.22860       -1.24200        3.12090
