
     RDKit          3D

 67 69  0  0  0  0  0  0  0  0999 V2000
    0.6954   -0.1953   -0.0106 C   0  0  0  0  0  0  0  0  0  0  0  0
    2.3604    0.2834   -0.4563 S   0  0  0  0  0  0  0  0  0  0  0  0
    3.1563    0.3195    0.7810 O   0  0  0  0  0  0  0  0  0  0  0  0
    2.7886   -0.5394   -1.5894 O   0  0  0  0  0  0  0  0  0  0  0  0
    2.1719    1.8397   -1.0703 N   0  0  0  0  0  0  0  0  0  0  0  0
    2.4489    2.9841   -0.1933 C   0  0  0  0  0  0  0  0  0  0  0  0
    1.8010    4.2693   -0.7508 C   0  0  0  0  0  0  0  0  0  0  0  0
    0.9126    4.9375    0.1995 N   0  0  0  0  0  0  0  0  0  0  0  0
   -0.5444    4.7909    0.0230 C   0  0  0  0  0  0  0  0  0  0  0  0
   -1.0365    5.6199   -1.1667 C   0  0  0  0  0  0  0  0  0  0  0  0
   -0.9564    3.3197   -0.0752 C   0  0  0  0  0  0  0  0  0  0  0  0
    1.5453    5.6060    1.2022 C   0  0  0  0  0  0  0  0  0  0  0  0
    2.7700    5.5976    1.3002 O   0  0  0  0  0  0  0  0  0  0  0  0
    0.7272    6.3762    2.2622 C   0  0  2  0  0  0  0  0  0  0  0  0
   -0.2991    6.5617    1.9288 H   0  0  0  0  0  0  0  0  0  0  0  0
    1.4053    7.7073    2.5761 C   0  0  0  0  0  0  0  0  0  0  0  0
    0.6003    5.5338    3.4497 N   0  0  0  0  0  0  0  0  0  0  0  0
   -0.5396    4.8523    3.7108 C   0  0  0  0  0  0  0  0  0  0  0  0
   -1.5944    4.9011    3.0962 O   0  0  0  0  0  0  0  0  0  0  0  0
   -0.3053    3.9509    4.9308 C   0  0  2  0  0  0  0  0  0  0  0  0
   -0.9798    4.2906    5.7316 H   0  0  0  0  0  0  0  0  0  0  0  0
    1.1698    4.1611    5.3124 C   0  0  0  0  0  0  0  0  0  0  0  0
    1.7549    5.1036    4.2354 C   0  0  0  0  0  0  0  0  0  0  0  0
   -0.7269    2.5701    4.6498 N   0  0  0  0  0  0  0  0  0  0  0  0
    0.1392    1.6841    3.5056 S   0  0  0  0  0  0  0  0  0  0  0  0
   -0.8480    0.8527    2.8060 O   0  0  0  0  0  0  0  0  0  0  0  0
    1.0096    2.5760    2.7193 O   0  0  0  0  0  0  0  0  0  0  0  0
    1.2056    0.6437    4.4841 C   0  0  0  0  0  0  0  0  0  0  0  0
    2.3654    0.1395    3.8411 C   0  0  0  0  0  0  0  0  0  0  0  0
    3.1809   -0.7245    4.5363 C   0  0  0  0  0  0  0  0  0  0  0  0
    2.8850   -1.1077    5.8746 C   0  0  0  0  0  0  0  0  0  0  0  0
    3.7241   -1.9905    6.6049 C   0  0  0  0  0  0  0  0  0  0  0  0
    3.4006   -2.3346    7.8997 C   0  0  0  0  0  0  0  0  0  0  0  0
    2.2377   -1.8248    8.5326 C   0  0  0  0  0  0  0  0  0  0  0  0
    1.4123   -0.9670    7.8422 C   0  0  0  0  0  0  0  0  0  0  0  0
    1.7058   -0.5850    6.5039 C   0  0  0  0  0  0  0  0  0  0  0  0
    0.8676    0.2965    5.7745 C   0  0  0  0  0  0  0  0  0  0  0  0
    4.4299   -3.4191    8.7983 Cl  0  0  0  0  0  0  0  0  0  0  0  0
    0.7706   -1.2244    0.3656 H   0  0  0  0  0  0  0  0  0  0  0  0
    0.0792   -0.1537   -0.9163 H   0  0  0  0  0  0  0  0  0  0  0  0
    0.3053    0.4624    0.7744 H   0  0  0  0  0  0  0  0  0  0  0  0
    2.6498    1.8535   -1.9715 H   0  0  0  0  0  0  0  0  0  0  0  0
    3.5293    3.1315   -0.0423 H   0  0  0  0  0  0  0  0  0  0  0  0
    2.0231    2.7645    0.7922 H   0  0  0  0  0  0  0  0  0  0  0  0
    1.2162    4.0233   -1.6458 H   0  0  0  0  0  0  0  0  0  0  0  0
    2.5859    4.9812   -1.0411 H   0  0  0  0  0  0  0  0  0  0  0  0
   -1.0203    5.1691    0.9333 H   0  0  0  0  0  0  0  0  0  0  0  0
   -0.6100    5.2624   -2.1181 H   0  0  0  0  0  0  0  0  0  0  0  0
   -0.7600    6.6792   -1.0476 H   0  0  0  0  0  0  0  0  0  0  0  0
   -2.1325    5.5563   -1.2500 H   0  0  0  0  0  0  0  0  0  0  0  0
   -0.5104    2.8154   -0.9461 H   0  0  0  0  0  0  0  0  0  0  0  0
   -2.0510    3.2531   -0.1668 H   0  0  0  0  0  0  0  0  0  0  0  0
   -0.6608    2.7757    0.8294 H   0  0  0  0  0  0  0  0  0  0  0  0
    0.8890    8.2101    3.4074 H   0  0  0  0  0  0  0  0  0  0  0  0
    1.3681    8.3630    1.6933 H   0  0  0  0  0  0  0  0  0  0  0  0
    2.4627    7.5548    2.8301 H   0  0  0  0  0  0  0  0  0  0  0  0
    1.2359    4.6158    6.3100 H   0  0  0  0  0  0  0  0  0  0  0  0
    1.7255    3.2167    5.3545 H   0  0  0  0  0  0  0  0  0  0  0  0
    2.2596    5.9738    4.6811 H   0  0  0  0  0  0  0  0  0  0  0  0
    2.4759    4.5913    3.5835 H   0  0  0  0  0  0  0  0  0  0  0  0
   -1.7031    2.5387    4.3449 H   0  0  0  0  0  0  0  0  0  0  0  0
    2.6063    0.4183    2.8126 H   0  0  0  0  0  0  0  0  0  0  0  0
    4.0756   -1.1237    4.0533 H   0  0  0  0  0  0  0  0  0  0  0  0
    4.6234   -2.3939    6.1373 H   0  0  0  0  0  0  0  0  0  0  0  0
    2.0154   -2.1216    9.5582 H   0  0  0  0  0  0  0  0  0  0  0  0
    0.5139   -0.5699    8.3208 H   0  0  0  0  0  0  0  0  0  0  0  0
   -0.0302    0.7078    6.2371 H   0  0  0  0  0  0  0  0  0  0  0  0
  1  2  1  0
  1 39  1  0
  1 40  1  0
  1 41  1  0
  2  3  2  0
  2  4  2  0
  2  5  1  0
  5  6  1  0
  5 42  1  0
  6  7  1  0
  6 43  1  0
  6 44  1  0
  7  8  1  0
  7 45  1  0
  7 46  1  0
  8  9  1  0
  8 12  1  0
  9 10  1  0
  9 11  1  0
  9 47  1  0
 10 48  1  0
 10 49  1  0
 10 50  1  0
 11 51  1  0
 11 52  1  0
 11 53  1  0
 12 13  2  0
 12 14  1  0
 14 15  1  6
 14 16  1  0
 14 17  1  0
 16 54  1  0
 16 55  1  0
 16 56  1  0
 17 18  1  0
 17 23  1  0
 18 19  2  0
 18 20  1  0
 20 21  1  1
 20 22  1  0
 20 24  1  0
 22 23  1  0
 22 57  1  0
 22 58  1  0
 23 59  1  0
 23 60  1  0
 25 24  1  0
 24 61  1  0
 25 26  2  0
 25 27  2  0
 25 28  1  0
 28 29  2  0
 28 37  1  0
 29 30  1  0
 29 62  1  0
 30 31  2  0
 30 63  1  0
 31 32  1  0
 31 36  1  0
 32 33  2  0
 32 64  1  0
 33 34  1  0
 33 38  1  0
 34 35  2  0
 34 65  1  0
 35 36  1  0
 35 66  1  0
 36 37  2  0
 37 67  1  0
M  END

