67
rmsd105.gzmat
C          0.00000        0.00000        0.00000
S          1.75610        0.00000        0.00000
O          2.22650        0.00000        1.37240
O          2.26920       -0.96910       -0.93680
N          2.16720        1.54640       -0.68880
C          2.37290        2.69810        0.19600
C          1.40510        3.81730       -0.29260
N          1.58110        5.05140        0.46820
C          2.41280        6.12870       -0.11680
C          3.85510        5.66170       -0.35630
C          1.77840        6.63680       -1.42090
C          1.11490        5.21650        1.75280
O          1.43940        6.19560        2.40030
C          0.14780        4.18280        2.36710
H         -0.36730        3.57030        1.57390
C         -0.91090        4.94670        3.16940
N          0.92870        3.26910        3.19070
C          0.47650        2.00850        3.53180
O         -0.46590        1.47000        2.99260
C          1.38900        1.41430        4.63080
H          0.77240        1.26530        5.56220
C          2.45050        2.52320        4.87970
C          1.97040        3.77040        4.10960
N          2.01930        0.18250        4.20490
S          1.36140       -1.33260        4.74140
O          2.43660       -2.29160        4.77520
O          0.59590       -1.00770        5.92770
C          0.22060       -1.83810        3.49530
C          0.59290       -2.85310        2.58110
C         -0.28380       -3.26110        1.60760
C         -1.57000       -2.66560        1.50320
C         -2.48660       -3.04980        0.48500
C         -3.69970       -2.42370        0.42540
C         -4.09810       -1.41680        1.33120
C         -3.22140       -1.04190        2.31650
C         -1.94140       -1.65500        2.41870
C         -1.01950       -1.25710        3.42640
Cl        -4.80240       -2.86210       -0.80540
H         -0.43240        0.57650       -0.82850
H         -0.41880        0.42410        0.93500
H         -0.41370       -1.01790       -0.07940
H          2.82950        1.51690       -1.46080
H          3.42270        3.05990        0.17230
H          2.16980        2.45620        1.26470
H          0.35240        3.46270       -0.22270
H          1.58260        4.01260       -1.37470
H          2.43380        6.98250        0.62510
H          3.92060        4.88980       -1.12900
H          4.29790        5.26190        0.56430
H          4.48100        6.50300       -0.67870
H          1.84880        5.90810       -2.23380
H          2.27720        7.55350       -1.75720
H          0.71700        6.87340       -1.27640
H         -1.60170        4.25540        3.66740
H         -1.50040        5.60640        2.52130
H         -0.45280        5.58580        3.93900
H          2.56750        2.72490        5.95530
H          3.44470        2.19090        4.52490
H          1.56620        4.55530        4.78330
H          2.78990        4.24240        3.52740
H          2.40530        0.21720        3.25200
H          1.58830       -3.31280        2.65270
H         -0.00740       -4.04210        0.90130
H         -2.20310       -3.83250       -0.21840
H         -5.08190       -0.95560        1.24180
H         -3.48770       -0.26360        3.03450
H         -1.33420       -0.47210        4.12680
