rmsd146.gzmat
 OpenBabel08211713433D

 67 69  0  0  1  0  0  0  0  0999 V2000
    0.0000    0.0000    0.0000 C   0  0  0  0  0  0  0  0  0  0  0  0
    1.7576    0.0000    0.0000 S   0  0  0  0  0  0  0  0  0  0  0  0
    2.2489    0.0000    1.3588 O   0  0  0  0  0  0  0  0  0  0  0  0
    2.2250   -1.0113   -0.9404 O   0  0  0  0  0  0  0  0  0  0  0  0
    2.1679    1.5413   -0.6921 N   0  0  0  0  0  0  0  0  0  0  0  0
    3.0739    2.4161    0.0691 C   0  0  0  0  0  0  0  0  0  0  0  0
    3.6963    3.5312   -0.8122 C   0  0  0  0  0  0  0  0  0  0  0  0
    2.7547    4.4763   -1.4148 N   0  0  0  0  0  0  0  0  0  0  0  0
    1.7936    5.2202   -0.5584 C   0  0  0  0  0  0  0  0  0  0  0  0
    0.5095    4.4223   -0.2976 C   0  0  0  0  0  0  0  0  0  0  0  0
    2.4527    5.6734    0.7510 C   0  0  0  0  0  0  0  0  0  0  0  0
    2.4943    4.5112   -2.7699 C   0  0  0  0  0  0  0  0  0  0  0  0
    1.4733    5.0332   -3.1825 O   0  0  0  0  0  0  0  0  0  0  0  0
    3.5567    4.0337   -3.7910 C   0  0  2  0  0  0  0  0  0  0  0  0
    4.5274    3.7657   -3.2846 H   0  0  0  0  0  0  0  0  0  0  0  0
    3.8023    5.1921   -4.7621 C   0  0  0  0  0  0  0  0  0  0  0  0
    3.0696    2.8490   -4.4809 N   0  0  0  0  0  0  0  0  0  0  0  0
    3.3435    1.5802   -4.0214 C   0  0  0  0  0  0  0  0  0  0  0  0
    4.1866    1.3393   -3.1846 O   0  0  0  0  0  0  0  0  0  0  0  0
    2.4072    0.5627   -4.7059 C   0  0  2  0  0  0  0  0  0  0  0  0
    3.0010   -0.0584   -5.4251 H   0  0  0  0  0  0  0  0  0  0  0  0
    1.3807    1.4444   -5.4626 C   0  0  0  0  0  0  0  0  0  0  0  0
    1.8917    2.9005   -5.3679 C   0  0  0  0  0  0  0  0  0  0  0  0
    1.8043   -0.2303   -3.6434 N   0  0  0  0  0  0  0  0  0  0  0  0
    0.5623   -1.3865   -3.9961 S   0  0  0  0  0  0  0  0  0  0  0  0
   -0.4539   -1.2365   -2.9773 O   0  0  0  0  0  0  0  0  0  0  0  0
    0.2284   -1.2101   -5.3936 O   0  0  0  0  0  0  0  0  0  0  0  0
    1.3688   -2.9281   -3.7804 C   0  0  0  0  0  0  0  0  0  0  0  0
    1.7965   -3.6434   -4.9262 C   0  0  0  0  0  0  0  0  0  0  0  0
    2.4756   -4.8259   -4.7895 C   0  0  0  0  0  0  0  0  0  0  0  0
    2.7566   -5.3500   -3.4976 C   0  0  0  0  0  0  0  0  0  0  0  0
    3.4798   -6.5633   -3.3312 C   0  0  0  0  0  0  0  0  0  0  0  0
    3.7172   -7.0130   -2.0625 C   0  0  0  0  0  0  0  0  0  0  0  0
    3.2859   -6.3300   -0.9048 C   0  0  0  0  0  0  0  0  0  0  0  0
    2.5937   -5.1561   -1.0573 C   0  0  0  0  0  0  0  0  0  0  0  0
    2.3146   -4.6453   -2.3560 C   0  0  0  0  0  0  0  0  0  0  0  0
    1.6105   -3.4202   -2.5230 C   0  0  0  0  0  0  0  0  0  0  0  0
    4.5843   -8.4710   -1.8464 Cl  0  0  0  0  0  0  0  0  0  0  0  0
   -0.4154   -0.7345    0.7012 H   0  0  0  0  0  0  0  0  0  0  0  0
   -0.4228   -0.2577   -0.9986 H   0  0  0  0  0  0  0  0  0  0  0  0
   -0.4269    0.9760    0.2639 H   0  0  0  0  0  0  0  0  0  0  0  0
    2.3686    1.5277   -1.6904 H   0  0  0  0  0  0  0  0  0  0  0  0
    3.9159    1.8499    0.5407 H   0  0  0  0  0  0  0  0  0  0  0  0
    2.4931    2.8643    0.9103 H   0  0  0  0  0  0  0  0  0  0  0  0
    4.3119    3.0424   -1.6081 H   0  0  0  0  0  0  0  0  0  0  0  0
    4.4139    4.1106   -0.1809 H   0  0  0  0  0  0  0  0  0  0  0  0
    1.5127    6.1468   -1.1444 H   0  0  0  0  0  0  0  0  0  0  0  0
    0.6792    3.5457    0.3343 H   0  0  0  0  0  0  0  0  0  0  0  0
    0.0887    4.0572   -1.2468 H   0  0  0  0  0  0  0  0  0  0  0  0
   -0.2496    5.0481    0.1803 H   0  0  0  0  0  0  0  0  0  0  0  0
    2.6206    4.8466    1.4476 H   0  0  0  0  0  0  0  0  0  0  0  0
    1.8098    6.3982    1.2651 H   0  0  0  0  0  0  0  0  0  0  0  0
    3.4167    6.1619    0.5667 H   0  0  0  0  0  0  0  0  0  0  0  0
    4.4444    4.8794   -5.5949 H   0  0  0  0  0  0  0  0  0  0  0  0
    4.2883    6.0340   -4.2538 H   0  0  0  0  0  0  0  0  0  0  0  0
    2.8609    5.5743   -5.1855 H   0  0  0  0  0  0  0  0  0  0  0  0
    1.2639    1.1083   -6.5069 H   0  0  0  0  0  0  0  0  0  0  0  0
    0.3698    1.3638   -5.0186 H   0  0  0  0  0  0  0  0  0  0  0  0
    2.1992    3.3005   -6.3561 H   0  0  0  0  0  0  0  0  0  0  0  0
    1.1138    3.5828   -4.9552 H   0  0  0  0  0  0  0  0  0  0  0  0
    2.4316   -0.4542   -2.8573 H   0  0  0  0  0  0  0  0  0  0  0  0
    1.5797   -3.2506   -5.9269 H   0  0  0  0  0  0  0  0  0  0  0  0
    2.8127   -5.3818   -5.6625 H   0  0  0  0  0  0  0  0  0  0  0  0
    3.8316   -7.0995   -4.2118 H   0  0  0  0  0  0  0  0  0  0  0  0
    3.5101   -6.7313    0.0840 H   0  0  0  0  0  0  0  0  0  0  0  0
    2.2555   -4.5892   -0.1869 H   0  0  0  0  0  0  0  0  0  0  0  0
    1.2909   -2.8840   -1.6157 H   0  0  0  0  0  0  0  0  0  0  0  0
  1 41  1  0  0  0  0
  1 39  1  0  0  0  0
  2  1  1  0  0  0  0
  2  3  2  0  0  0  0
  4  2  2  0  0  0  0
  5  2  1  0  0  0  0
  5  6  1  0  0  0  0
  6 43  1  0  0  0  0
  6 44  1  0  0  0  0
  7 46  1  0  0  0  0
  7  6  1  0  0  0  0
  8  7  1  0  0  0  0
  8  9  1  0  0  0  0
  9 10  1  0  0  0  0
  9 11  1  0  0  0  0
 10 50  1  0  0  0  0
 10 48  1  0  0  0  0
 11 52  1  0  0  0  0
 11 51  1  0  0  0  0
 12  8  1  0  0  0  0
 13 12  2  0  0  0  0
 14 15  1  1  0  0  0
 14 12  1  0  0  0  0
 16 55  1  0  0  0  0
 16 14  1  0  0  0  0
 17 18  1  0  0  0  0
 17 14  1  0  0  0  0
 18 19  2  0  0  0  0
 20 21  1  6  0  0  0
 20 18  1  0  0  0  0
 20 24  1  0  0  0  0
 22 23  1  0  0  0  0
 22 58  1  0  0  0  0
 22 20  1  0  0  0  0
 23 60  1  0  0  0  0
 23 17  1  0  0  0  0
 24 61  1  0  0  0  0
 25 28  1  0  0  0  0
 25 24  1  0  0  0  0
 25 26  2  0  0  0  0
 27 25  2  0  0  0  0
 28 37  2  0  0  0  0
 29 30  2  0  0  0  0
 29 28  1  0  0  0  0
 30 31  1  0  0  0  0
 31 32  2  0  0  0  0
 31 36  1  0  0  0  0
 32 33  1  0  0  0  0
 33 38  1  0  0  0  0
 33 34  2  0  0  0  0
 34 65  1  0  0  0  0
 35 34  1  0  0  0  0
 35 66  1  0  0  0  0
 36 35  2  0  0  0  0
 37 36  1  0  0  0  0
 37 67  1  0  0  0  0
 40  1  1  0  0  0  0
 42  5  1  0  0  0  0
 45  7  1  0  0  0  0
 47  9  1  0  0  0  0
 49 10  1  0  0  0  0
 53 11  1  0  0  0  0
 54 16  1  0  0  0  0
 56 16  1  0  0  0  0
 57 22  1  0  0  0  0
 59 23  1  0  0  0  0
 62 29  1  0  0  0  0
 63 30  1  0  0  0  0
 64 32  1  0  0  0  0
M  END
$$$$
