
     RDKit          3D

 67 69  0  0  0  0  0  0  0  0999 V2000
    0.6607   -0.1369    0.3278 C   0  0  0  0  0  0  0  0  0  0  0  0
    2.4105    0.2167    0.1835 S   0  0  0  0  0  0  0  0  0  0  0  0
    2.9340    0.4156    1.5495 O   0  0  0  0  0  0  0  0  0  0  0  0
    3.0419   -0.7651   -0.6965 O   0  0  0  0  0  0  0  0  0  0  0  0
    2.4068    1.6708   -0.6634 N   0  0  0  0  0  0  0  0  0  0  0  0
    2.2234    2.8900    0.1307 C   0  0  0  0  0  0  0  0  0  0  0  0
    1.8946    4.0867   -0.7695 C   0  0  0  0  0  0  0  0  0  0  0  0
    1.1513    5.1087   -0.0327 N   0  0  0  0  0  0  0  0  0  0  0  0
   -0.2692    5.3269   -0.3818 C   0  0  0  0  0  0  0  0  0  0  0  0
   -0.3795    6.1107   -1.6928 C   0  0  0  0  0  0  0  0  0  0  0  0
   -1.0729    4.0249   -0.4074 C   0  0  0  0  0  0  0  0  0  0  0  0
    1.8696    5.8024    0.8939 C   0  0  0  0  0  0  0  0  0  0  0  0
    3.0777    5.6248    1.0369 O   0  0  0  0  0  0  0  0  0  0  0  0
    1.1436    6.7273    1.8928 C   0  0  2  0  0  0  0  0  0  0  0  0
    0.1748    7.0702    1.5158 H   0  0  0  0  0  0  0  0  0  0  0  0
    2.0053    7.9318    2.2522 C   0  0  0  0  0  0  0  0  0  0  0  0
    0.8381    5.8956    3.0559 N   0  0  0  0  0  0  0  0  0  0  0  0
   -0.3986    5.3875    3.2878 C   0  0  0  0  0  0  0  0  0  0  0  0
   -1.4181    5.5857    2.6492 O   0  0  0  0  0  0  0  0  0  0  0  0
   -0.3073    4.5208    4.5535 C   0  0  2  0  0  0  0  0  0  0  0  0
   -0.6142    5.1640    5.3977 H   0  0  0  0  0  0  0  0  0  0  0  0
    1.1863    4.2010    4.6682 C   0  0  0  0  0  0  0  0  0  0  0  0
    1.8574    5.4095    3.9872 C   0  0  0  0  0  0  0  0  0  0  0  0
   -1.2531    3.4099    4.5491 N   0  0  0  0  0  0  0  0  0  0  0  0
   -1.0344    2.1050    3.4991 S   0  0  0  0  0  0  0  0  0  0  0  0
   -2.3838    1.6224    3.2085 O   0  0  0  0  0  0  0  0  0  0  0  0
   -0.1233    2.4637    2.3913 O   0  0  0  0  0  0  0  0  0  0  0  0
   -0.1910    0.9049    4.5071 C   0  0  0  0  0  0  0  0  0  0  0  0
   -0.8304    0.4426    5.6865 C   0  0  0  0  0  0  0  0  0  0  0  0
   -0.2205   -0.5361    6.4348 C   0  0  0  0  0  0  0  0  0  0  0  0
    1.0249   -1.1023    6.0313 C   0  0  0  0  0  0  0  0  0  0  0  0
    1.6649   -2.1215    6.7824 C   0  0  0  0  0  0  0  0  0  0  0  0
    2.8626   -2.6467    6.3426 C   0  0  0  0  0  0  0  0  0  0  0  0
    3.4781   -2.1961    5.1476 C   0  0  0  0  0  0  0  0  0  0  0  0
    2.8766   -1.2044    4.4045 C   0  0  0  0  0  0  0  0  0  0  0  0
    1.6450   -0.6316    4.8273 C   0  0  0  0  0  0  0  0  0  0  0  0
    1.0115    0.3932    4.0749 C   0  0  0  0  0  0  0  0  0  0  0  0
    3.6499   -3.9014    7.2656 Cl  0  0  0  0  0  0  0  0  0  0  0  0
    0.5883   -1.0772    0.8906 H   0  0  0  0  0  0  0  0  0  0  0  0
    0.2575   -0.2501   -0.6852 H   0  0  0  0  0  0  0  0  0  0  0  0
    0.1717    0.6782    0.8776 H   0  0  0  0  0  0  0  0  0  0  0  0
    3.2287    1.6614   -1.2700 H   0  0  0  0  0  0  0  0  0  0  0  0
    3.0978    3.1170    0.7577 H   0  0  0  0  0  0  0  0  0  0  0  0
    1.3749    2.7264    0.8058 H   0  0  0  0  0  0  0  0  0  0  0  0
    1.2814    3.7457   -1.6116 H   0  0  0  0  0  0  0  0  0  0  0  0
    2.8192    4.5277   -1.1722 H   0  0  0  0  0  0  0  0  0  0  0  0
   -0.7097    5.9195    0.4252 H   0  0  0  0  0  0  0  0  0  0  0  0
    0.0455    5.5446   -2.5378 H   0  0  0  0  0  0  0  0  0  0  0  0
    0.1562    7.0704   -1.6243 H   0  0  0  0  0  0  0  0  0  0  0  0
   -1.4345    6.3191   -1.9286 H   0  0  0  0  0  0  0  0  0  0  0  0
   -0.7480    3.3431   -1.2094 H   0  0  0  0  0  0  0  0  0  0  0  0
   -2.1315    4.2643   -0.5886 H   0  0  0  0  0  0  0  0  0  0  0  0
   -1.0045    3.5025    0.5545 H   0  0  0  0  0  0  0  0  0  0  0  0
    1.5262    8.5201    3.0489 H   0  0  0  0  0  0  0  0  0  0  0  0
    2.1319    8.5771    1.3702 H   0  0  0  0  0  0  0  0  0  0  0  0
    3.0059    7.6149    2.5748 H   0  0  0  0  0  0  0  0  0  0  0  0
    1.5193    4.0568    5.7042 H   0  0  0  0  0  0  0  0  0  0  0  0
    1.4245    3.2947    4.0998 H   0  0  0  0  0  0  0  0  0  0  0  0
    2.1212    6.1969    4.7154 H   0  0  0  0  0  0  0  0  0  0  0  0
    2.7693    5.1346    3.4391 H   0  0  0  0  0  0  0  0  0  0  0  0
   -2.2040    3.7415    4.3660 H   0  0  0  0  0  0  0  0  0  0  0  0
   -1.7875    0.8705    5.9869 H   0  0  0  0  0  0  0  0  0  0  0  0
   -0.6926   -0.8995    7.3507 H   0  0  0  0  0  0  0  0  0  0  0  0
    1.2086   -2.4899    7.7023 H   0  0  0  0  0  0  0  0  0  0  0  0
    4.4208   -2.6443    4.8316 H   0  0  0  0  0  0  0  0  0  0  0  0
    3.3228   -0.8475    3.4736 H   0  0  0  0  0  0  0  0  0  0  0  0
    1.4929    0.7521    3.1645 H   0  0  0  0  0  0  0  0  0  0  0  0
  1  2  1  0
  1 39  1  0
  1 40  1  0
  1 41  1  0
  2  3  2  0
  2  4  2  0
  2  5  1  0
  5  6  1  0
  5 42  1  0
  6  7  1  0
  6 43  1  0
  6 44  1  0
  7  8  1  0
  7 45  1  0
  7 46  1  0
  8  9  1  0
  8 12  1  0
  9 10  1  0
  9 11  1  0
  9 47  1  0
 10 48  1  0
 10 49  1  0
 10 50  1  0
 11 51  1  0
 11 52  1  0
 11 53  1  0
 12 13  2  0
 12 14  1  0
 14 15  1  6
 14 16  1  0
 14 17  1  0
 16 54  1  0
 16 55  1  0
 16 56  1  0
 17 18  1  0
 17 23  1  0
 18 19  2  0
 18 20  1  0
 20 21  1  1
 20 22  1  0
 20 24  1  0
 22 23  1  0
 22 57  1  0
 22 58  1  0
 23 59  1  0
 23 60  1  0
 25 24  1  0
 24 61  1  0
 25 26  2  0
 25 27  2  0
 25 28  1  0
 28 29  2  0
 28 37  1  0
 29 30  1  0
 29 62  1  0
 30 31  2  0
 30 63  1  0
 31 32  1  0
 31 36  1  0
 32 33  2  0
 32 64  1  0
 33 34  1  0
 33 38  1  0
 34 35  2  0
 34 65  1  0
 35 36  1  0
 35 66  1  0
 36 37  2  0
 37 67  1  0
M  END

