rmsd100.gzmat
 OpenBabel08211713433D

 67 69  0  0  1  0  0  0  0  0999 V2000
    0.0000    0.0000    0.0000 C   0  0  0  0  0  0  0  0  0  0  0  0
    1.7532    0.0000    0.0000 S   0  0  0  0  0  0  0  0  0  0  0  0
    2.2146    0.0000    1.3813 O   0  0  0  0  0  0  0  0  0  0  0  0
    2.2525   -0.9979   -0.9186 O   0  0  0  0  0  0  0  0  0  0  0  0
    2.2157    1.5216   -0.7076 N   0  0  0  0  0  0  0  0  0  0  0  0
    2.8254    2.5429    0.1607 C   0  0  0  0  0  0  0  0  0  0  0  0
    2.3506    3.9582   -0.2713 C   0  0  0  0  0  0  0  0  0  0  0  0
    1.0940    4.3300    0.3989 N   0  0  0  0  0  0  0  0  0  0  0  0
   -0.0932    4.6296   -0.4196 C   0  0  0  0  0  0  0  0  0  0  0  0
    0.0685    6.0040   -1.0922 C   0  0  0  0  0  0  0  0  0  0  0  0
   -0.3535    3.5378   -1.4640 C   0  0  0  0  0  0  0  0  0  0  0  0
    1.1690    4.5603    1.7515 C   0  0  0  0  0  0  0  0  0  0  0  0
    2.2549    4.5133    2.3077 O   0  0  0  0  0  0  0  0  0  0  0  0
   -0.1092    4.7885    2.5879 C   0  0  2  0  0  0  0  0  0  0  0  0
   -1.0390    4.7325    1.9492 H   0  0  0  0  0  0  0  0  0  0  0  0
   -0.0161    6.1653    3.2440 C   0  0  0  0  0  0  0  0  0  0  0  0
   -0.2066    3.7135    3.5692 N   0  0  0  0  0  0  0  0  0  0  0  0
   -0.6397    2.4485    3.1825 C   0  0  0  0  0  0  0  0  0  0  0  0
   -1.2797    2.2573    2.1756 O   0  0  0  0  0  0  0  0  0  0  0  0
   -0.2365    1.4188    4.2575 C   0  0  2  0  0  0  0  0  0  0  0  0
   -1.1682    1.0748    4.7887 H   0  0  0  0  0  0  0  0  0  0  0  0
    0.6883    2.2093    5.2221 C   0  0  0  0  0  0  0  0  0  0  0  0
    0.7104    3.6702    4.7265 C   0  0  0  0  0  0  0  0  0  0  0  0
    0.3964    0.2903    3.5964 N   0  0  0  0  0  0  0  0  0  0  0  0
    0.6345   -1.1601    4.5314 S   0  0  0  0  0  0  0  0  0  0  0  0
    1.9296   -1.0751    5.1614 O   0  0  0  0  0  0  0  0  0  0  0  0
   -0.5535   -1.3146    5.3443 O   0  0  0  0  0  0  0  0  0  0  0  0
    0.6726   -2.3949    3.2897 C   0  0  0  0  0  0  0  0  0  0  0  0
   -0.4764   -3.1977    3.0830 C   0  0  0  0  0  0  0  0  0  0  0  0
   -0.4760   -4.1645    2.1113 C   0  0  0  0  0  0  0  0  0  0  0  0
    0.6721   -4.3649    1.2958 C   0  0  0  0  0  0  0  0  0  0  0  0
    0.6885   -5.3478    0.2688 C   0  0  0  0  0  0  0  0  0  0  0  0
    1.8128   -5.4702   -0.4992 C   0  0  0  0  0  0  0  0  0  0  0  0
    2.9626   -4.6718   -0.3260 C   0  0  0  0  0  0  0  0  0  0  0  0
    2.9576   -3.7275    0.6689 C   0  0  0  0  0  0  0  0  0  0  0  0
    1.8162   -3.5611    1.5024 C   0  0  0  0  0  0  0  0  0  0  0  0
    1.7993   -2.5753    2.5282 C   0  0  0  0  0  0  0  0  0  0  0  0
    1.8427   -6.6424   -1.7452 Cl  0  0  0  0  0  0  0  0  0  0  0  0
   -0.4129   -0.9916    0.2412 H   0  0  0  0  0  0  0  0  0  0  0  0
   -0.4337    0.2939   -0.9636 H   0  0  0  0  0  0  0  0  0  0  0  0
   -0.4290    0.6854    0.7636 H   0  0  0  0  0  0  0  0  0  0  0  0
    2.7085    1.4374   -1.5965 H   0  0  0  0  0  0  0  0  0  0  0  0
    3.9375    2.5052    0.1188 H   0  0  0  0  0  0  0  0  0  0  0  0
    2.5669    2.3760    1.2350 H   0  0  0  0  0  0  0  0  0  0  0  0
    2.2237    4.0066   -1.3725 H   0  0  0  0  0  0  0  0  0  0  0  0
    3.1420    4.6969    0.0064 H   0  0  0  0  0  0  0  0  0  0  0  0
   -0.9899    4.6626    0.2644 H   0  0  0  0  0  0  0  0  0  0  0  0
    0.9020    6.0119   -1.8024 H   0  0  0  0  0  0  0  0  0  0  0  0
    0.2641    6.7905   -0.3544 H   0  0  0  0  0  0  0  0  0  0  0  0
   -0.8378    6.2780   -1.6427 H   0  0  0  0  0  0  0  0  0  0  0  0
    0.4071    3.5160   -2.2507 H   0  0  0  0  0  0  0  0  0  0  0  0
   -1.3267    3.6843   -1.9433 H   0  0  0  0  0  0  0  0  0  0  0  0
   -0.3575    2.5462   -0.9900 H   0  0  0  0  0  0  0  0  0  0  0  0
   -0.8272    6.3121    3.9697 H   0  0  0  0  0  0  0  0  0  0  0  0
   -0.0831    6.9646    2.4967 H   0  0  0  0  0  0  0  0  0  0  0  0
    0.9374    6.2970    3.7773 H   0  0  0  0  0  0  0  0  0  0  0  0
    0.3260    2.1407    6.2603 H   0  0  0  0  0  0  0  0  0  0  0  0
    1.7110    1.7847    5.2351 H   0  0  0  0  0  0  0  0  0  0  0  0
    0.3426    4.3742    5.5013 H   0  0  0  0  0  0  0  0  0  0  0  0
    1.7396    3.9878    4.4408 H   0  0  0  0  0  0  0  0  0  0  0  0
    1.1710    0.5469    2.9705 H   0  0  0  0  0  0  0  0  0  0  0  0
   -1.3663   -3.0450    3.7059 H   0  0  0  0  0  0  0  0  0  0  0  0
   -1.3499   -4.7904    1.9461 H   0  0  0  0  0  0  0  0  0  0  0  0
   -0.1890   -5.9736    0.1146 H   0  0  0  0  0  0  0  0  0  0  0  0
    3.8232   -4.7954   -0.9836 H   0  0  0  0  0  0  0  0  0  0  0  0
    3.8200   -3.0734    0.8203 H   0  0  0  0  0  0  0  0  0  0  0  0
    2.7033   -1.9614    2.6713 H   0  0  0  0  0  0  0  0  0  0  0  0
  1  2  1  0  0  0  0
  1 39  1  0  0  0  0
  1 41  1  0  0  0  0
  2  3  2  0  0  0  0
  4  2  2  0  0  0  0
  5  2  1  0  0  0  0
  5  6  1  0  0  0  0
  6 44  1  0  0  0  0
  7 46  1  0  0  0  0
  7  6  1  0  0  0  0
  7  8  1  0  0  0  0
  8 12  1  0  0  0  0
  9 47  1  0  0  0  0
  9  8  1  0  0  0  0
 10  9  1  0  0  0  0
 10 49  1  0  0  0  0
 11 53  1  0  0  0  0
 11  9  1  0  0  0  0
 12 13  2  0  0  0  0
 12 14  1  0  0  0  0
 14 15  1  6  0  0  0
 14 16  1  0  0  0  0
 14 17  1  0  0  0  0
 16 56  1  0  0  0  0
 16 54  1  0  0  0  0
 17 23  1  0  0  0  0
 18 17  1  0  0  0  0
 18 20  1  0  0  0  0
 19 18  2  0  0  0  0
 20 21  1  1  0  0  0
 20 22  1  0  0  0  0
 22 58  1  0  0  0  0
 22 57  1  0  0  0  0
 23 22  1  0  0  0  0
 23 59  1  0  0  0  0
 24 20  1  0  0  0  0
 24 25  1  0  0  0  0
 25 26  2  0  0  0  0
 25 27  2  0  0  0  0
 28 25  1  0  0  0  0
 29 28  1  0  0  0  0
 29 62  1  0  0  0  0
 30 29  2  0  0  0  0
 31 36  1  0  0  0  0
 31 30  1  0  0  0  0
 32 31  2  0  0  0  0
 33 34  2  0  0  0  0
 33 32  1  0  0  0  0
 34 35  1  0  0  0  0
 35 66  1  0  0  0  0
 35 36  2  0  0  0  0
 36 37  1  0  0  0  0
 37 67  1  0  0  0  0
 37 28  2  0  0  0  0
 38 33  1  0  0  0  0
 40  1  1  0  0  0  0
 42  5  1  0  0  0  0
 43  6  1  0  0  0  0
 45  7  1  0  0  0  0
 48 10  1  0  0  0  0
 50 10  1  0  0  0  0
 51 11  1  0  0  0  0
 52 11  1  0  0  0  0
 55 16  1  0  0  0  0
 60 23  1  0  0  0  0
 61 24  1  0  0  0  0
 63 30  1  0  0  0  0
 64 32  1  0  0  0  0
 65 34  1  0  0  0  0
M  END
$$$$
