
     RDKit          3D

 67 69  0  0  0  0  0  0  0  0999 V2000
   -0.2664    1.1368    0.1796 C   0  0  0  0  0  0  0  0  0  0  0  0
    1.4830    0.8358   -0.0090 S   0  0  0  0  0  0  0  0  0  0  0  0
    2.0804    0.9522    1.3446 O   0  0  0  0  0  0  0  0  0  0  0  0
    1.7010   -0.3807   -0.7899 O   0  0  0  0  0  0  0  0  0  0  0  0
    2.0352    2.0880   -0.9592 N   0  0  0  0  0  0  0  0  0  0  0  0
    2.4727    3.3643   -0.4174 C   0  0  0  0  0  0  0  0  0  0  0  0
    3.9817    3.5114   -0.1510 C   0  0  0  0  0  0  0  0  0  0  0  0
    4.5802    2.5550    0.7724 N   0  0  0  0  0  0  0  0  0  0  0  0
    5.5813    1.5960    0.2523 C   0  0  0  0  0  0  0  0  0  0  0  0
    5.0611    0.7204   -0.8850 C   0  0  0  0  0  0  0  0  0  0  0  0
    6.8752    2.3267   -0.1194 C   0  0  0  0  0  0  0  0  0  0  0  0
    4.3678    2.5629    2.1243 C   0  0  0  0  0  0  0  0  0  0  0  0
    4.8508    1.7238    2.8760 O   0  0  0  0  0  0  0  0  0  0  0  0
    3.5894    3.7406    2.7523 C   0  0  2  0  0  0  0  0  0  0  0  0
    3.0743    4.3444    2.0004 H   0  0  0  0  0  0  0  0  0  0  0  0
    4.5878    4.6295    3.5006 C   0  0  0  0  0  0  0  0  0  0  0  0
    2.5263    3.2497    3.6167 N   0  0  0  0  0  0  0  0  0  0  0  0
    1.2215    3.3229    3.2362 C   0  0  0  0  0  0  0  0  0  0  0  0
    0.7859    3.8854    2.2410 O   0  0  0  0  0  0  0  0  0  0  0  0
    0.4118    2.4382    4.1999 C   0  0  2  0  0  0  0  0  0  0  0  0
   -0.5667    2.8789    4.4319 H   0  0  0  0  0  0  0  0  0  0  0  0
    1.3341    2.3407    5.4218 C   0  0  0  0  0  0  0  0  0  0  0  0
    2.7456    2.4654    4.8360 C   0  0  0  0  0  0  0  0  0  0  0  0
    0.2217    1.2172    3.4194 N   0  0  0  0  0  0  0  0  0  0  0  0
   -0.3142   -0.2234    4.0226 S   0  0  0  0  0  0  0  0  0  0  0  0
   -1.2866    0.0604    5.0801 O   0  0  0  0  0  0  0  0  0  0  0  0
   -0.6583   -1.0228    2.8415 O   0  0  0  0  0  0  0  0  0  0  0  0
    1.1183   -0.9895    4.7925 C   0  0  0  0  0  0  0  0  0  0  0  0
    0.9649   -1.6073    6.0566 C   0  0  0  0  0  0  0  0  0  0  0  0
    2.0600   -2.1850    6.6613 C   0  0  0  0  0  0  0  0  0  0  0  0
    3.3432   -2.1433    6.0473 C   0  0  0  0  0  0  0  0  0  0  0  0
    4.4933   -2.7010    6.6673 C   0  0  0  0  0  0  0  0  0  0  0  0
    5.7208   -2.6025    6.0490 C   0  0  0  0  0  0  0  0  0  0  0  0
    5.8742   -1.9438    4.8017 C   0  0  0  0  0  0  0  0  0  0  0  0
    4.7722   -1.4041    4.1792 C   0  0  0  0  0  0  0  0  0  0  0  0
    3.4823   -1.5003    4.7720 C   0  0  0  0  0  0  0  0  0  0  0  0
    2.3364   -0.9483    4.1464 C   0  0  0  0  0  0  0  0  0  0  0  0
    7.1370   -3.2852    6.8109 Cl  0  0  0  0  0  0  0  0  0  0  0  0
   -0.6459    0.3392    0.8363 H   0  0  0  0  0  0  0  0  0  0  0  0
   -0.7168    1.0990   -0.8192 H   0  0  0  0  0  0  0  0  0  0  0  0
   -0.3926    2.1163    0.6609 H   0  0  0  0  0  0  0  0  0  0  0  0
    2.4924    1.7163   -1.7878 H   0  0  0  0  0  0  0  0  0  0  0  0
    1.8915    3.5625    0.4939 H   0  0  0  0  0  0  0  0  0  0  0  0
    2.1873    4.1563   -1.1311 H   0  0  0  0  0  0  0  0  0  0  0  0
    4.1595    4.5493    0.1789 H   0  0  0  0  0  0  0  0  0  0  0  0
    4.5204    3.4175   -1.1042 H   0  0  0  0  0  0  0  0  0  0  0  0
    5.7915    0.9447    1.1086 H   0  0  0  0  0  0  0  0  0  0  0  0
    4.8371    1.3041   -1.7940 H   0  0  0  0  0  0  0  0  0  0  0  0
    4.1641    0.1595   -0.5954 H   0  0  0  0  0  0  0  0  0  0  0  0
    5.8377   -0.0082   -1.1637 H   0  0  0  0  0  0  0  0  0  0  0  0
    6.7308    3.0148   -0.9692 H   0  0  0  0  0  0  0  0  0  0  0  0
    7.6522    1.6036   -0.4119 H   0  0  0  0  0  0  0  0  0  0  0  0
    7.2538    2.9086    0.7347 H   0  0  0  0  0  0  0  0  0  0  0  0
    4.0613    5.4494    4.0112 H   0  0  0  0  0  0  0  0  0  0  0  0
    5.3090    5.0648    2.7917 H   0  0  0  0  0  0  0  0  0  0  0  0
    5.1550    4.0440    4.2377 H   0  0  0  0  0  0  0  0  0  0  0  0
    1.1199    3.1932    6.0852 H   0  0  0  0  0  0  0  0  0  0  0  0
    1.1898    1.4211    6.0012 H   0  0  0  0  0  0  0  0  0  0  0  0
    3.4403    2.9855    5.5115 H   0  0  0  0  0  0  0  0  0  0  0  0
    3.1935    1.4950    4.5866 H   0  0  0  0  0  0  0  0  0  0  0  0
    0.8888    1.0685    2.6520 H   0  0  0  0  0  0  0  0  0  0  0  0
   -0.0166   -1.6037    6.5324 H   0  0  0  0  0  0  0  0  0  0  0  0
    1.9559   -2.6716    7.6341 H   0  0  0  0  0  0  0  0  0  0  0  0
    4.4027   -3.1999    7.6333 H   0  0  0  0  0  0  0  0  0  0  0  0
    6.8676   -1.8670    4.3582 H   0  0  0  0  0  0  0  0  0  0  0  0
    4.8780   -0.8599    3.2390 H   0  0  0  0  0  0  0  0  0  0  0  0
    2.4476   -0.4760    3.1681 H   0  0  0  0  0  0  0  0  0  0  0  0
  1  2  1  0
  1 39  1  0
  1 40  1  0
  1 41  1  0
  2  3  2  0
  2  4  2  0
  2  5  1  0
  5  6  1  0
  5 42  1  0
  6  7  1  0
  6 43  1  0
  6 44  1  0
  7  8  1  0
  7 45  1  0
  7 46  1  0
  8  9  1  0
  8 12  1  0
  9 10  1  0
  9 11  1  0
  9 47  1  0
 10 48  1  0
 10 49  1  0
 10 50  1  0
 11 51  1  0
 11 52  1  0
 11 53  1  0
 12 13  2  0
 12 14  1  0
 14 15  1  6
 14 16  1  0
 14 17  1  0
 16 54  1  0
 16 55  1  0
 16 56  1  0
 17 18  1  0
 17 23  1  0
 18 19  2  0
 18 20  1  0
 20 21  1  1
 20 22  1  0
 20 24  1  0
 22 23  1  0
 22 57  1  0
 22 58  1  0
 23 59  1  0
 23 60  1  0
 25 24  1  0
 24 61  1  0
 25 26  2  0
 25 27  2  0
 25 28  1  0
 28 29  2  0
 28 37  1  0
 29 30  1  0
 29 62  1  0
 30 31  2  0
 30 63  1  0
 31 32  1  0
 31 36  1  0
 32 33  2  0
 32 64  1  0
 33 34  1  0
 33 38  1  0
 34 35  2  0
 34 65  1  0
 35 36  1  0
 35 66  1  0
 36 37  2  0
 37 67  1  0
M  END

