67

C          0.28590       -0.24000        0.24930
S          2.03060        0.12860        0.33040
O          2.40640        0.36740        1.74060
O          2.75010       -0.88090       -0.45030
N          2.15680        1.61560       -0.45360
C          2.95160        2.69100        0.14140
C          2.42610        4.07950       -0.23200
N          1.15020        4.41830        0.39740
C         -0.02790        4.67870       -0.45050
C          0.24510        5.80160       -1.45890
C         -0.56050        3.40690       -1.10860
C          1.19680        4.61170        1.74830
O          2.26170        4.60810        2.35970
C         -0.10920        4.72590        2.56580
H         -0.99110        4.54860        1.94220
C         -0.21570        6.08320        3.25160
N         -0.08770        3.61350        3.50970
C         -0.48580        2.38160        3.10210
O         -0.99000        2.12270        2.01830
C         -0.15180        1.38170        4.21820
H         -1.07370        1.17260        4.78700
C          0.88870        2.13840        5.06460
C          0.60280        3.62580        4.80070
N          0.28700        0.14500        3.61130
S          0.47430       -1.19880        4.59700
O          1.77780       -1.19380        5.27030
O         -0.75820       -1.32040        5.38250
C          0.51170       -2.43170        3.30360
C         -0.71020       -3.00190        2.87320
C         -0.70620       -3.84740        1.78700
C          0.50070       -4.13490        1.08600
C          0.51830       -4.97350       -0.05990
C          1.70420       -5.20260       -0.72380
C          2.92120       -4.61710       -0.29260
C          2.92540       -3.80650        0.81840
C          1.72890       -3.54760        1.54010
C          1.70900       -2.69970        2.67750
Cl         1.72580       -6.22820       -2.13690
H          0.16690       -1.24770        0.66690
H          0.00030       -0.22830       -0.81000
H         -0.26840        0.50230        0.84150
H          2.36590        1.43190       -1.43420
H          4.01040        2.62230       -0.16620
H          2.93070        2.57730        1.23100
H          2.31010        4.15760       -1.32080
H          3.18750        4.81220        0.07750
H         -0.80890        5.05370        0.22050
H          0.95730        5.49590       -2.24100
H          0.64840        6.69430       -0.95670
H         -0.69130        6.08250       -1.96460
H          0.18190        2.96760       -1.79140
H         -1.46650        3.63640       -1.69130
H         -0.80780        2.66750       -0.33680
H         -1.08870        6.11460        3.92020
H         -0.33020        6.87520        2.49590
H          0.69160        6.30240        3.83170
H          0.85460        1.86850        6.12800
H          1.88930        1.88220        4.68590
H         -0.04110        4.07290        5.57840
H          1.52520        4.21450        4.72290
H          1.12640        0.25450        3.02490
H         -1.62700       -2.75570        3.41050
H         -1.63730       -4.30300        1.44150
H         -0.40700       -5.43040       -0.41360
H          3.83520       -4.80940       -0.85520
H          3.85130       -3.33130        1.14660
H          2.62920       -2.23310        3.03150
