rmsd31.gzmat
 OpenBabel08211713433D

 67 69  0  0  1  0  0  0  0  0999 V2000
    0.0000    0.0000    0.0000 C   0  0  0  0  0  0  0  0  0  0  0  0
    1.7452    0.0000    0.0000 S   0  0  0  0  0  0  0  0  0  0  0  0
    2.2349    0.0000    1.3784 O   0  0  0  0  0  0  0  0  0  0  0  0
    2.2693   -0.9673   -0.9345 O   0  0  0  0  0  0  0  0  0  0  0  0
    2.1886    1.5492   -0.6691 N   0  0  0  0  0  0  0  0  0  0  0  0
    2.4223    2.6631    0.2685 C   0  0  0  0  0  0  0  0  0  0  0  0
    3.5666    3.6050   -0.1843 C   0  0  0  0  0  0  0  0  0  0  0  0
    4.7729    3.4812    0.6359 N   0  0  0  0  0  0  0  0  0  0  0  0
    5.9037    2.6719    0.1193 C   0  0  0  0  0  0  0  0  0  0  0  0
    5.5267    1.1944   -0.0350 C   0  0  0  0  0  0  0  0  0  0  0  0
    6.4145    3.2556   -1.2067 C   0  0  0  0  0  0  0  0  0  0  0  0
    4.8148    3.8611    1.9615 C   0  0  0  0  0  0  0  0  0  0  0  0
    5.7673    3.5492    2.6533 O   0  0  0  0  0  0  0  0  0  0  0  0
    3.6860    4.7239    2.5758 C   0  0  2  0  0  0  0  0  0  0  0  0
    3.0047    5.1475    1.7851 H   0  0  0  0  0  0  0  0  0  0  0  0
    4.3423    5.8747    3.3448 C   0  0  0  0  0  0  0  0  0  0  0  0
    2.8952    3.8673    3.4432 N   0  0  0  0  0  0  0  0  0  0  0  0
    1.5493    3.6239    3.2628 C   0  0  0  0  0  0  0  0  0  0  0  0
    0.8789    4.1902    2.4322 O   0  0  0  0  0  0  0  0  0  0  0  0
    1.1041    2.5165    4.2476 C   0  0  2  0  0  0  0  0  0  0  0  0
    0.1952    2.8554    4.8113 H   0  0  0  0  0  0  0  0  0  0  0  0
    2.3256    2.3378    5.1950 C   0  0  0  0  0  0  0  0  0  0  0  0
    3.5008    3.1014    4.5463 C   0  0  0  0  0  0  0  0  0  0  0  0
    0.8072    1.3461    3.4475 N   0  0  0  0  0  0  0  0  0  0  0  0
   -0.2130    0.0830    4.0321 S   0  0  0  0  0  0  0  0  0  0  0  0
   -1.0755    0.6555    5.0402 O   0  0  0  0  0  0  0  0  0  0  0  0
   -0.7590   -0.5682    2.8616 O   0  0  0  0  0  0  0  0  0  0  0  0
    0.9084   -1.0149    4.8318 C   0  0  0  0  0  0  0  0  0  0  0  0
    0.6630   -1.3770    6.1788 C   0  0  0  0  0  0  0  0  0  0  0  0
    1.5357   -2.1990    6.8444 C   0  0  0  0  0  0  0  0  0  0  0  0
    2.7002   -2.6910    6.1934 C   0  0  0  0  0  0  0  0  0  0  0  0
    3.6290   -3.5334    6.8651 C   0  0  0  0  0  0  0  0  0  0  0  0
    4.7337   -3.9623    6.1844 C   0  0  0  0  0  0  0  0  0  0  0  0
    5.0045   -3.6084    4.8442 C   0  0  0  0  0  0  0  0  0  0  0  0
    4.1119   -2.8013    4.1877 C   0  0  0  0  0  0  0  0  0  0  0  0
    2.9421   -2.3303    4.8491 C   0  0  0  0  0  0  0  0  0  0  0  0
    2.0137   -1.4908    4.1747 C   0  0  0  0  0  0  0  0  0  0  0  0
    5.8556   -4.9803    6.9762 Cl  0  0  0  0  0  0  0  0  0  0  0  0
   -0.4247   -0.7593    0.6951 H   0  0  0  0  0  0  0  0  0  0  0  0
   -0.4301   -0.2013   -0.9887 H   0  0  0  0  0  0  0  0  0  0  0  0
   -0.4330    0.9506    0.3575 H   0  0  0  0  0  0  0  0  0  0  0  0
    2.8788    1.5046   -1.4157 H   0  0  0  0  0  0  0  0  0  0  0  0
    2.6363    2.3047    1.3031 H   0  0  0  0  0  0  0  0  0  0  0  0
    1.4662    3.2462    0.3283 H   0  0  0  0  0  0  0  0  0  0  0  0
    3.2116    4.6625   -0.1552 H   0  0  0  0  0  0  0  0  0  0  0  0
    3.8264    3.4200   -1.2524 H   0  0  0  0  0  0  0  0  0  0  0  0
    6.7385    2.7464    0.8799 H   0  0  0  0  0  0  0  0  0  0  0  0
    4.9320    0.9995   -0.9304 H   0  0  0  0  0  0  0  0  0  0  0  0
    4.9557    0.8349    0.8336 H   0  0  0  0  0  0  0  0  0  0  0  0
    6.4257    0.5708   -0.1044 H   0  0  0  0  0  0  0  0  0  0  0  0
    5.7218    3.0953   -2.0373 H   0  0  0  0  0  0  0  0  0  0  0  0
    7.3680    2.7889   -1.4828 H   0  0  0  0  0  0  0  0  0  0  0  0
    6.5899    4.3351   -1.1202 H   0  0  0  0  0  0  0  0  0  0  0  0
    3.5950    6.4501    3.9049 H   0  0  0  0  0  0  0  0  0  0  0  0
    4.8597    6.5606    2.6638 H   0  0  0  0  0  0  0  0  0  0  0  0
    5.0919    5.5073    4.0619 H   0  0  0  0  0  0  0  0  0  0  0  0
    2.0978    2.7356    6.1970 H   0  0  0  0  0  0  0  0  0  0  0  0
    2.5802    1.2749    5.3393 H   0  0  0  0  0  0  0  0  0  0  0  0
    4.0010    3.7862    5.2611 H   0  0  0  0  0  0  0  0  0  0  0  0
    4.2826    2.4102    4.1574 H   0  0  0  0  0  0  0  0  0  0  0  0
    1.5137    1.0979    2.7484 H   0  0  0  0  0  0  0  0  0  0  0  0
   -0.2279   -0.9944    6.6934 H   0  0  0  0  0  0  0  0  0  0  0  0
    1.3542   -2.4846    7.8794 H   0  0  0  0  0  0  0  0  0  0  0  0
    3.4398   -3.8161    7.9002 H   0  0  0  0  0  0  0  0  0  0  0  0
    5.9066   -3.9745    4.3520 H   0  0  0  0  0  0  0  0  0  0  0  0
    4.2823   -2.5036    3.1494 H   0  0  0  0  0  0  0  0  0  0  0  0
    2.2286   -1.2420    3.1209 H   0  0  0  0  0  0  0  0  0  0  0  0
  1  2  1  0  0  0  0
  1 41  1  0  0  0  0
  1 39  1  0  0  0  0
  2  3  2  0  0  0  0
  4  2  2  0  0  0  0
  5  2  1  0  0  0  0
  5  6  1  0  0  0  0
  6 44  1  0  0  0  0
  6 43  1  0  0  0  0
  7 45  1  0  0  0  0
  7  6  1  0  0  0  0
  7  8  1  0  0  0  0
  8 12  1  0  0  0  0
  9  8  1  0  0  0  0
  9 47  1  0  0  0  0
 10  9  1  0  0  0  0
 10 49  1  0  0  0  0
 11 53  1  0  0  0  0
 11  9  1  0  0  0  0
 12 14  1  0  0  0  0
 12 13  2  0  0  0  0
 14 15  1  6  0  0  0
 14 16  1  0  0  0  0
 14 17  1  0  0  0  0
 16 54  1  0  0  0  0
 16 56  1  0  0  0  0
 17 23  1  0  0  0  0
 18 17  1  0  0  0  0
 18 20  1  0  0  0  0
 19 18  2  0  0  0  0
 20 21  1  1  0  0  0
 20 22  1  0  0  0  0
 22 58  1  0  0  0  0
 22 57  1  0  0  0  0
 23 22  1  0  0  0  0
 23 59  1  0  0  0  0
 24 25  1  0  0  0  0
 24 20  1  0  0  0  0
 25 28  1  0  0  0  0
 25 26  2  0  0  0  0
 27 25  2  0  0  0  0
 28 29  1  0  0  0  0
 29 62  1  0  0  0  0
 29 30  2  0  0  0  0
 30 63  1  0  0  0  0
 31 30  1  0  0  0  0
 31 32  1  0  0  0  0
 32 64  1  0  0  0  0
 33 32  2  0  0  0  0
 33 38  1  0  0  0  0
 34 33  1  0  0  0  0
 35 34  2  0  0  0  0
 35 36  1  0  0  0  0
 36 31  2  0  0  0  0
 37 28  2  0  0  0  0
 37 36  1  0  0  0  0
 40  1  1  0  0  0  0
 42  5  1  0  0  0  0
 46  7  1  0  0  0  0
 48 10  1  0  0  0  0
 50 10  1  0  0  0  0
 51 11  1  0  0  0  0
 52 11  1  0  0  0  0
 55 16  1  0  0  0  0
 60 23  1  0  0  0  0
 61 24  1  0  0  0  0
 65 34  1  0  0  0  0
 66 35  1  0  0  0  0
 67 37  1  0  0  0  0
M  END
$$$$
