rmsd128.gzmat
 OpenBabel08211713433D

 67 69  0  0  1  0  0  0  0  0999 V2000
    0.0000    0.0000    0.0000 C   0  0  0  0  0  0  0  0  0  0  0  0
    1.7635    0.0000    0.0000 S   0  0  0  0  0  0  0  0  0  0  0  0
    2.2652    0.0000    1.3570 O   0  0  0  0  0  0  0  0  0  0  0  0
    2.2647   -0.9920   -0.9325 O   0  0  0  0  0  0  0  0  0  0  0  0
    2.1384    1.5512   -0.7014 N   0  0  0  0  0  0  0  0  0  0  0  0
    3.4755    2.0854   -0.4541 C   0  0  0  0  0  0  0  0  0  0  0  0
    4.6099    1.4075   -1.2766 C   0  0  0  0  0  0  0  0  0  0  0  0
    4.8233    2.0658   -2.5663 N   0  0  0  0  0  0  0  0  0  0  0  0
    5.5829    3.3409   -2.5282 C   0  0  0  0  0  0  0  0  0  0  0  0
    6.8370    3.2189   -3.4071 C   0  0  0  0  0  0  0  0  0  0  0  0
    4.7133    4.5248   -2.9738 C   0  0  0  0  0  0  0  0  0  0  0  0
    4.2791    1.6346   -3.7495 C   0  0  0  0  0  0  0  0  0  0  0  0
    4.4140    2.2937   -4.7678 O   0  0  0  0  0  0  0  0  0  0  0  0
    3.5293    0.2852   -3.8239 C   0  0  2  0  0  0  0  0  0  0  0  0
    3.0460    0.0069   -2.8377 H   0  0  0  0  0  0  0  0  0  0  0  0
    4.5412   -0.7946   -4.2128 C   0  0  0  0  0  0  0  0  0  0  0  0
    2.4514    0.3921   -4.8013 N   0  0  0  0  0  0  0  0  0  0  0  0
    1.2631    1.0228   -4.4891 C   0  0  0  0  0  0  0  0  0  0  0  0
    0.9105    1.3108   -3.3668 O   0  0  0  0  0  0  0  0  0  0  0  0
    0.4568    1.2652   -5.7836 C   0  0  2  0  0  0  0  0  0  0  0  0
   -0.3041    0.4443   -5.8841 H   0  0  0  0  0  0  0  0  0  0  0  0
    1.5306    1.1543   -6.8970 C   0  0  0  0  0  0  0  0  0  0  0  0
    2.7490    0.4555   -6.2487 C   0  0  0  0  0  0  0  0  0  0  0  0
   -0.1604    2.5850   -5.8068 N   0  0  0  0  0  0  0  0  0  0  0  0
   -1.8781    2.7242   -5.5213 S   0  0  0  0  0  0  0  0  0  0  0  0
   -2.3612    1.4168   -5.1435 O   0  0  0  0  0  0  0  0  0  0  0  0
   -2.0385    3.8949   -4.6979 O   0  0  0  0  0  0  0  0  0  0  0  0
   -2.5068    3.0599   -7.1347 C   0  0  0  0  0  0  0  0  0  0  0  0
   -2.4227    4.3689   -7.6678 C   0  0  0  0  0  0  0  0  0  0  0  0
   -2.8678    4.6259   -8.9402 C   0  0  0  0  0  0  0  0  0  0  0  0
   -3.4198    3.5854   -9.7368 C   0  0  0  0  0  0  0  0  0  0  0  0
   -3.8492    3.8145  -11.0744 C   0  0  0  0  0  0  0  0  0  0  0  0
   -4.3686    2.7686  -11.7846 C   0  0  0  0  0  0  0  0  0  0  0  0
   -4.5333    1.4732  -11.2461 C   0  0  0  0  0  0  0  0  0  0  0  0
   -4.1233    1.2434   -9.9586 C   0  0  0  0  0  0  0  0  0  0  0  0
   -3.5405    2.2889   -9.1867 C   0  0  0  0  0  0  0  0  0  0  0  0
   -3.0690    2.0461   -7.8677 C   0  0  0  0  0  0  0  0  0  0  0  0
   -4.8539    3.0177  -13.4045 Cl  0  0  0  0  0  0  0  0  0  0  0  0
   -0.4133   -0.9739    0.2918 H   0  0  0  0  0  0  0  0  0  0  0  0
   -0.4159    0.2389   -0.9950 H   0  0  0  0  0  0  0  0  0  0  0  0
   -0.4085    0.7467    0.6970 H   0  0  0  0  0  0  0  0  0  0  0  0
    1.8284    1.6695   -1.6711 H   0  0  0  0  0  0  0  0  0  0  0  0
    3.7109    2.0010    0.6358 H   0  0  0  0  0  0  0  0  0  0  0  0
    3.4521    3.1794   -0.6750 H   0  0  0  0  0  0  0  0  0  0  0  0
    4.4042    0.3203   -1.4154 H   0  0  0  0  0  0  0  0  0  0  0  0
    5.5589    1.4453   -0.6920 H   0  0  0  0  0  0  0  0  0  0  0  0
    5.9039    3.5108   -1.4642 H   0  0  0  0  0  0  0  0  0  0  0  0
    6.5677    3.1097   -4.4694 H   0  0  0  0  0  0  0  0  0  0  0  0
    7.4351    2.3445   -3.1320 H   0  0  0  0  0  0  0  0  0  0  0  0
    7.4675    4.1082   -3.3209 H   0  0  0  0  0  0  0  0  0  0  0  0
    4.4212    4.4268   -4.0307 H   0  0  0  0  0  0  0  0  0  0  0  0
    5.2571    5.4694   -2.8764 H   0  0  0  0  0  0  0  0  0  0  0  0
    3.7881    4.5960   -2.3933 H   0  0  0  0  0  0  0  0  0  0  0  0
    4.0329   -1.7548   -4.3864 H   0  0  0  0  0  0  0  0  0  0  0  0
    5.2730   -0.9569   -3.4097 H   0  0  0  0  0  0  0  0  0  0  0  0
    5.0992   -0.5349   -5.1211 H   0  0  0  0  0  0  0  0  0  0  0  0
    1.1511    0.6020   -7.7676 H   0  0  0  0  0  0  0  0  0  0  0  0
    1.8120    2.1584   -7.2685 H   0  0  0  0  0  0  0  0  0  0  0  0
    2.8886   -0.5765   -6.6301 H   0  0  0  0  0  0  0  0  0  0  0  0
    3.6871    1.0247   -6.4420 H   0  0  0  0  0  0  0  0  0  0  0  0
    0.4198    3.2939   -5.3544 H   0  0  0  0  0  0  0  0  0  0  0  0
   -2.0091    5.1818   -7.0600 H   0  0  0  0  0  0  0  0  0  0  0  0
   -2.8077    5.6295   -9.3589 H   0  0  0  0  0  0  0  0  0  0  0  0
   -3.7552    4.8126  -11.5039 H   0  0  0  0  0  0  0  0  0  0  0  0
   -4.9782    0.6825  -11.8520 H   0  0  0  0  0  0  0  0  0  0  0  0
   -4.2369    0.2576   -9.5048 H   0  0  0  0  0  0  0  0  0  0  0  0
   -3.1747    1.0303   -7.4647 H   0  0  0  0  0  0  0  0  0  0  0  0
  1 39  1  0  0  0  0
  1 41  1  0  0  0  0
  2  1  1  0  0  0  0
  2  3  2  0  0  0  0
  4  2  2  0  0  0  0
  5  6  1  0  0  0  0
  5  2  1  0  0  0  0
  6 43  1  0  0  0  0
  7 46  1  0  0  0  0
  7  6  1  0  0  0  0
  8  9  1  0  0  0  0
  8  7  1  0  0  0  0
  9 47  1  0  0  0  0
 10 50  1  0  0  0  0
 10 49  1  0  0  0  0
 10  9  1  0  0  0  0
 11 52  1  0  0  0  0
 11  9  1  0  0  0  0
 11 53  1  0  0  0  0
 12  8  1  0  0  0  0
 13 12  2  0  0  0  0
 14 12  1  0  0  0  0
 14 15  1  1  0  0  0
 16 14  1  0  0  0  0
 16 55  1  0  0  0  0
 17 18  1  0  0  0  0
 17 14  1  0  0  0  0
 18 19  2  0  0  0  0
 20 21  1  6  0  0  0
 20 18  1  0  0  0  0
 22 23  1  0  0  0  0
 22 20  1  0  0  0  0
 23 17  1  0  0  0  0
 24 20  1  0  0  0  0
 24 25  1  0  0  0  0
 24 61  1  0  0  0  0
 25 26  2  0  0  0  0
 25 27  2  0  0  0  0
 28 25  1  0  0  0  0
 29 28  1  0  0  0  0
 29 62  1  0  0  0  0
 30 29  2  0  0  0  0
 31 36  1  0  0  0  0
 31 30  1  0  0  0  0
 32 31  2  0  0  0  0
 33 34  2  0  0  0  0
 33 32  1  0  0  0  0
 34 35  1  0  0  0  0
 35 66  1  0  0  0  0
 35 36  2  0  0  0  0
 36 37  1  0  0  0  0
 37 67  1  0  0  0  0
 37 28  2  0  0  0  0
 38 33  1  0  0  0  0
 40  1  1  0  0  0  0
 42  5  1  0  0  0  0
 44  6  1  0  0  0  0
 45  7  1  0  0  0  0
 48 10  1  0  0  0  0
 51 11  1  0  0  0  0
 54 16  1  0  0  0  0
 56 16  1  0  0  0  0
 57 22  1  0  0  0  0
 58 22  1  0  0  0  0
 59 23  1  0  0  0  0
 60 23  1  0  0  0  0
 63 30  1  0  0  0  0
 64 32  1  0  0  0  0
 65 34  1  0  0  0  0
M  END
$$$$
