rmsd191.gzmat
 OpenBabel08211713433D

 67 69  0  0  1  0  0  0  0  0999 V2000
    0.0000    0.0000    0.0000 C   0  0  0  0  0  0  0  0  0  0  0  0
    1.7653    0.0000    0.0000 S   0  0  0  0  0  0  0  0  0  0  0  0
    2.2661    0.0000    1.3539 O   0  0  0  0  0  0  0  0  0  0  0  0
    2.2491   -0.9953   -0.9383 O   0  0  0  0  0  0  0  0  0  0  0  0
    2.1437    1.5480   -0.7123 N   0  0  0  0  0  0  0  0  0  0  0  0
    3.5523    1.9419   -0.7479 C   0  0  0  0  0  0  0  0  0  0  0  0
    4.3708    1.2810   -1.8936 C   0  0  0  0  0  0  0  0  0  0  0  0
    4.2048    1.9697   -3.1774 N   0  0  0  0  0  0  0  0  0  0  0  0
    4.9816    3.2247   -3.3476 C   0  0  0  0  0  0  0  0  0  0  0  0
    5.6829    3.2047   -4.7140 C   0  0  0  0  0  0  0  0  0  0  0  0
    4.1068    4.4749   -3.2125 C   0  0  0  0  0  0  0  0  0  0  0  0
    3.1754    1.6855   -4.0399 C   0  0  0  0  0  0  0  0  0  0  0  0
    2.8294    2.4855   -4.8963 O   0  0  0  0  0  0  0  0  0  0  0  0
    2.4979    0.2912   -4.0043 C   0  0  2  0  0  0  0  0  0  0  0  0
    2.3174   -0.0649   -2.9462 H   0  0  0  0  0  0  0  0  0  0  0  0
    3.4107   -0.7052   -4.7164 C   0  0  0  0  0  0  0  0  0  0  0  0
    1.1852    0.4013   -4.6391 N   0  0  0  0  0  0  0  0  0  0  0  0
    0.2593    1.2850   -4.0976 C   0  0  0  0  0  0  0  0  0  0  0  0
    0.1981    1.5556   -2.9159 O   0  0  0  0  0  0  0  0  0  0  0  0
   -0.6448    1.8668   -5.2108 C   0  0  2  0  0  0  0  0  0  0  0  0
   -1.7287    1.8001   -4.9398 H   0  0  0  0  0  0  0  0  0  0  0  0
   -0.2962    0.9862   -6.4377 C   0  0  0  0  0  0  0  0  0  0  0  0
    1.0840    0.3690   -6.1187 C   0  0  0  0  0  0  0  0  0  0  0  0
   -0.2241    3.2372   -5.4527 N   0  0  0  0  0  0  0  0  0  0  0  0
   -1.1105    4.5651   -4.7577 S   0  0  0  0  0  0  0  0  0  0  0  0
   -1.0871    5.6387   -5.7179 O   0  0  0  0  0  0  0  0  0  0  0  0
   -2.3521    3.9973   -4.2838 O   0  0  0  0  0  0  0  0  0  0  0  0
   -0.1103    5.0341   -3.3904 C   0  0  0  0  0  0  0  0  0  0  0  0
    0.7818    6.1245   -3.5394 C   0  0  0  0  0  0  0  0  0  0  0  0
    1.6044    6.4904   -2.5060 C   0  0  0  0  0  0  0  0  0  0  0  0
    1.5755    5.7762   -1.2769 C   0  0  0  0  0  0  0  0  0  0  0  0
    2.4594    6.1015   -0.2114 C   0  0  0  0  0  0  0  0  0  0  0  0
    2.3967    5.3622    0.9365 C   0  0  0  0  0  0  0  0  0  0  0  0
    1.4795    4.3093    1.1334 C   0  0  0  0  0  0  0  0  0  0  0  0
    0.6205    3.9940    0.1112 C   0  0  0  0  0  0  0  0  0  0  0  0
    0.6646    4.7078   -1.1191 C   0  0  0  0  0  0  0  0  0  0  0  0
   -0.1808    4.3479   -2.2054 C   0  0  0  0  0  0  0  0  0  0  0  0
    3.4895    5.7107    2.2061 Cl  0  0  0  0  0  0  0  0  0  0  0  0
   -0.4217    0.4270   -0.9280 H   0  0  0  0  0  0  0  0  0  0  0  0
   -0.4164    0.5730    0.8381 H   0  0  0  0  0  0  0  0  0  0  0  0
   -0.4038   -1.0188    0.0728 H   0  0  0  0  0  0  0  0  0  0  0  0
    1.6606    1.7475   -1.5933 H   0  0  0  0  0  0  0  0  0  0  0  0
    4.0339    1.7164    0.2349 H   0  0  0  0  0  0  0  0  0  0  0  0
    3.5908    3.0539   -0.8487 H   0  0  0  0  0  0  0  0  0  0  0  0
    4.1043    0.2011   -1.9933 H   0  0  0  0  0  0  0  0  0  0  0  0
    5.4524    1.2860   -1.6234 H   0  0  0  0  0  0  0  0  0  0  0  0
    5.7639    3.2419   -2.5395 H   0  0  0  0  0  0  0  0  0  0  0  0
    4.9550    3.2609   -5.5369 H   0  0  0  0  0  0  0  0  0  0  0  0
    6.2648    2.2878   -4.8547 H   0  0  0  0  0  0  0  0  0  0  0  0
    6.3598    4.0588   -4.8168 H   0  0  0  0  0  0  0  0  0  0  0  0
    3.3542    4.5268   -4.0140 H   0  0  0  0  0  0  0  0  0  0  0  0
    4.7113    5.3856   -3.2731 H   0  0  0  0  0  0  0  0  0  0  0  0
    3.5602    4.4914   -2.2635 H   0  0  0  0  0  0  0  0  0  0  0  0
    2.9162   -1.6832   -4.8150 H   0  0  0  0  0  0  0  0  0  0  0  0
    4.3327   -0.8689   -4.1406 H   0  0  0  0  0  0  0  0  0  0  0  0
    3.7041   -0.3692   -5.7177 H   0  0  0  0  0  0  0  0  0  0  0  0
   -1.0602    0.2082   -6.5898 H   0  0  0  0  0  0  0  0  0  0  0  0
   -0.2690    1.5865   -7.3647 H   0  0  0  0  0  0  0  0  0  0  0  0
    1.1590   -0.6813   -6.4627 H   0  0  0  0  0  0  0  0  0  0  0  0
    1.9047    0.9518   -6.5919 H   0  0  0  0  0  0  0  0  0  0  0  0
    0.7845    3.3264   -5.5887 H   0  0  0  0  0  0  0  0  0  0  0  0
    0.8082    6.6827   -4.4847 H   0  0  0  0  0  0  0  0  0  0  0  0
    2.2929    7.3272   -2.6094 H   0  0  0  0  0  0  0  0  0  0  0  0
    3.1637    6.9229   -0.3353 H   0  0  0  0  0  0  0  0  0  0  0  0
    1.4729    3.7517    2.0715 H   0  0  0  0  0  0  0  0  0  0  0  0
   -0.0956    3.1779    0.2179 H   0  0  0  0  0  0  0  0  0  0  0  0
   -0.8714    3.5040   -2.0621 H   0  0  0  0  0  0  0  0  0  0  0  0
  1  2  1  0  0  0  0
  1 41  1  0  0  0  0
  1 40  1  0  0  0  0
  2  3  2  0  0  0  0
  4  2  2  0  0  0  0
  5  2  1  0  0  0  0
  6  5  1  0  0  0  0
  6 43  1  0  0  0  0
  7 46  1  0  0  0  0
  7  6  1  0  0  0  0
  8  7  1  0  0  0  0
  9 11  1  0  0  0  0
  9  8  1  0  0  0  0
  9 47  1  0  0  0  0
 10  9  1  0  0  0  0
 11 53  1  0  0  0  0
 12 14  1  0  0  0  0
 12  8  1  0  0  0  0
 13 12  2  0  0  0  0
 14 15  1  1  0  0  0
 16 55  1  0  0  0  0
 16 14  1  0  0  0  0
 17 18  1  0  0  0  0
 17 14  1  0  0  0  0
 18 19  2  0  0  0  0
 20 21  1  1  0  0  0
 20 18  1  0  0  0  0
 22 23  1  0  0  0  0
 22 20  1  0  0  0  0
 23 17  1  0  0  0  0
 24 20  1  0  0  0  0
 24 25  1  0  0  0  0
 25 27  2  0  0  0  0
 25 28  1  0  0  0  0
 26 25  2  0  0  0  0
 28 37  1  0  0  0  0
 29 28  2  0  0  0  0
 29 30  1  0  0  0  0
 30 31  2  0  0  0  0
 31 36  1  0  0  0  0
 31 32  1  0  0  0  0
 32 33  2  0  0  0  0
 33 34  1  0  0  0  0
 33 38  1  0  0  0  0
 34 65  1  0  0  0  0
 35 66  1  0  0  0  0
 35 34  2  0  0  0  0
 36 35  1  0  0  0  0
 37 67  1  0  0  0  0
 37 36  2  0  0  0  0
 39  1  1  0  0  0  0
 42  5  1  0  0  0  0
 44  6  1  0  0  0  0
 45  7  1  0  0  0  0
 48 10  1  0  0  0  0
 49 10  1  0  0  0  0
 50 10  1  0  0  0  0
 51 11  1  0  0  0  0
 52 11  1  0  0  0  0
 54 16  1  0  0  0  0
 56 16  1  0  0  0  0
 57 22  1  0  0  0  0
 58 22  1  0  0  0  0
 59 23  1  0  0  0  0
 60 23  1  0  0  0  0
 61 24  1  0  0  0  0
 62 29  1  0  0  0  0
 63 30  1  0  0  0  0
 64 32  1  0  0  0  0
M  END
$$$$
