
     RDKit          3D

 67 69  0  0  0  0  0  0  0  0999 V2000
    0.0193   -0.1512    0.0042 C   0  0  0  0  0  0  0  0  0  0  0  0
    1.7740   -0.3821   -0.2461 S   0  0  0  0  0  0  0  0  0  0  0  0
    2.4323   -0.7103    1.0200 O   0  0  0  0  0  0  0  0  0  0  0  0
    1.9455   -1.3124   -1.3808 O   0  0  0  0  0  0  0  0  0  0  0  0
    2.2344    1.1889   -0.6508 N   0  0  0  0  0  0  0  0  0  0  0  0
    3.6752    1.4304   -0.6414 C   0  0  0  0  0  0  0  0  0  0  0  0
    4.4017    1.0180   -1.9320 C   0  0  0  0  0  0  0  0  0  0  0  0
    4.1124    1.9040   -3.0603 N   0  0  0  0  0  0  0  0  0  0  0  0
    4.8222    3.2115   -3.0560 C   0  0  0  0  0  0  0  0  0  0  0  0
    5.6353    3.4133   -4.3365 C   0  0  0  0  0  0  0  0  0  0  0  0
    3.8940    4.3846   -2.7416 C   0  0  0  0  0  0  0  0  0  0  0  0
    3.1714    1.6558   -4.0069 C   0  0  0  0  0  0  0  0  0  0  0  0
    2.8317    2.4985   -4.8398 O   0  0  0  0  0  0  0  0  0  0  0  0
    2.5344    0.2427   -4.0744 C   0  0  2  0  0  0  0  0  0  0  0  0
    2.3576   -0.1730   -3.0772 H   0  0  0  0  0  0  0  0  0  0  0  0
    3.4320   -0.7251   -4.8435 C   0  0  0  0  0  0  0  0  0  0  0  0
    1.2245    0.4062   -4.6895 N   0  0  0  0  0  0  0  0  0  0  0  0
    0.3168    1.1731   -4.0388 C   0  0  0  0  0  0  0  0  0  0  0  0
    0.3587    1.4584   -2.8407 O   0  0  0  0  0  0  0  0  0  0  0  0
   -0.6306    1.7707   -5.0821 C   0  0  2  0  0  0  0  0  0  0  0  0
   -1.6582    1.8779   -4.7167 H   0  0  0  0  0  0  0  0  0  0  0  0
   -0.4725    0.8011   -6.2576 C   0  0  0  0  0  0  0  0  0  0  0  0
    0.9863    0.3378   -6.1338 C   0  0  0  0  0  0  0  0  0  0  0  0
   -0.1306    3.1015   -5.4138 N   0  0  0  0  0  0  0  0  0  0  0  0
   -0.9439    4.4997   -4.9903 S   0  0  0  0  0  0  0  0  0  0  0  0
   -0.7762    5.4535   -6.0846 O   0  0  0  0  0  0  0  0  0  0  0  0
   -2.2717    4.0669   -4.5461 O   0  0  0  0  0  0  0  0  0  0  0  0
   -0.0429    5.1759   -3.5925 C   0  0  0  0  0  0  0  0  0  0  0  0
    0.6079    6.4239   -3.7466 C   0  0  0  0  0  0  0  0  0  0  0  0
    1.3249    6.9445   -2.6919 C   0  0  0  0  0  0  0  0  0  0  0  0
    1.4422    6.2331   -1.4664 C   0  0  0  0  0  0  0  0  0  0  0  0
    2.2449    6.7093   -0.3957 C   0  0  0  0  0  0  0  0  0  0  0  0
    2.3936    5.9480    0.7434 C   0  0  0  0  0  0  0  0  0  0  0  0
    1.7456    4.6940    0.8876 C   0  0  0  0  0  0  0  0  0  0  0  0
    0.9428    4.2280   -0.1283 C   0  0  0  0  0  0  0  0  0  0  0  0
    0.7717    4.9721   -1.3283 C   0  0  0  0  0  0  0  0  0  0  0  0
    0.0076    4.4700   -2.4105 C   0  0  0  0  0  0  0  0  0  0  0  0
    3.4092    6.5155    2.0457 Cl  0  0  0  0  0  0  0  0  0  0  0  0
   -0.3971    0.2860   -0.9127 H   0  0  0  0  0  0  0  0  0  0  0  0
   -0.1219    0.5023    0.8731 H   0  0  0  0  0  0  0  0  0  0  0  0
   -0.3917   -1.1524    0.1888 H   0  0  0  0  0  0  0  0  0  0  0  0
    1.7365    1.4740   -1.5074 H   0  0  0  0  0  0  0  0  0  0  0  0
    4.0977    0.8752    0.2092 H   0  0  0  0  0  0  0  0  0  0  0  0
    3.8376    2.4997   -0.4361 H   0  0  0  0  0  0  0  0  0  0  0  0
    4.1431   -0.0191   -2.1733 H   0  0  0  0  0  0  0  0  0  0  0  0
    5.4886    1.0391   -1.7548 H   0  0  0  0  0  0  0  0  0  0  0  0
    5.5387    3.1263   -2.2244 H   0  0  0  0  0  0  0  0  0  0  0  0
    4.9744    3.5307   -5.2047 H   0  0  0  0  0  0  0  0  0  0  0  0
    6.3036    2.5561   -4.5137 H   0  0  0  0  0  0  0  0  0  0  0  0
    6.2563    4.3175   -4.2423 H   0  0  0  0  0  0  0  0  0  0  0  0
    3.1383    4.5153   -3.5254 H   0  0  0  0  0  0  0  0  0  0  0  0
    4.4780    5.3139   -2.6593 H   0  0  0  0  0  0  0  0  0  0  0  0
    3.3766    4.2304   -1.7862 H   0  0  0  0  0  0  0  0  0  0  0  0
    2.9464   -1.7081   -4.9291 H   0  0  0  0  0  0  0  0  0  0  0  0
    4.3788   -0.8642   -4.3030 H   0  0  0  0  0  0  0  0  0  0  0  0
    3.6715   -0.3516   -5.8498 H   0  0  0  0  0  0  0  0  0  0  0  0
   -1.1534   -0.0538   -6.1230 H   0  0  0  0  0  0  0  0  0  0  0  0
   -0.6909    1.2821   -7.2191 H   0  0  0  0  0  0  0  0  0  0  0  0
    1.1420   -0.6835   -6.5093 H   0  0  0  0  0  0  0  0  0  0  0  0
    1.6796    1.0140   -6.6598 H   0  0  0  0  0  0  0  0  0  0  0  0
    0.8848    3.2035   -5.4993 H   0  0  0  0  0  0  0  0  0  0  0  0
    0.5269    6.9452   -4.7006 H   0  0  0  0  0  0  0  0  0  0  0  0
    1.8325    7.9064   -2.7958 H   0  0  0  0  0  0  0  0  0  0  0  0
    2.7602    7.6665   -0.4873 H   0  0  0  0  0  0  0  0  0  0  0  0
    1.8965    4.1137    1.7985 H   0  0  0  0  0  0  0  0  0  0  0  0
    0.4558    3.2571   -0.0336 H   0  0  0  0  0  0  0  0  0  0  0  0
   -0.4825    3.5014   -2.3176 H   0  0  0  0  0  0  0  0  0  0  0  0
  1  2  1  0
  1 39  1  0
  1 40  1  0
  1 41  1  0
  2  3  2  0
  2  4  2  0
  2  5  1  0
  5  6  1  0
  5 42  1  0
  6  7  1  0
  6 43  1  0
  6 44  1  0
  7  8  1  0
  7 45  1  0
  7 46  1  0
  8  9  1  0
  8 12  1  0
  9 10  1  0
  9 11  1  0
  9 47  1  0
 10 48  1  0
 10 49  1  0
 10 50  1  0
 11 51  1  0
 11 52  1  0
 11 53  1  0
 12 13  2  0
 12 14  1  0
 14 15  1  1
 14 16  1  0
 14 17  1  0
 16 54  1  0
 16 55  1  0
 16 56  1  0
 17 18  1  0
 17 23  1  0
 18 19  2  0
 18 20  1  0
 20 21  1  1
 20 22  1  0
 20 24  1  0
 22 23  1  0
 22 57  1  0
 22 58  1  0
 23 59  1  0
 23 60  1  0
 25 24  1  0
 24 61  1  0
 25 26  2  0
 25 27  2  0
 25 28  1  0
 28 29  2  0
 28 37  1  0
 29 30  1  0
 29 62  1  0
 30 31  2  0
 30 63  1  0
 31 32  1  0
 31 36  1  0
 32 33  2  0
 32 64  1  0
 33 34  1  0
 33 38  1  0
 34 35  2  0
 34 65  1  0
 35 36  1  0
 35 66  1  0
 36 37  2  0
 37 67  1  0
M  END

