67
rmsd191.gzmat
C          0.00000        0.00000        0.00000
S          1.76530        0.00000        0.00000
O          2.26610        0.00000        1.35390
O          2.24910       -0.99530       -0.93830
N          2.14370        1.54800       -0.71230
C          3.55230        1.94190       -0.74790
C          4.37080        1.28100       -1.89360
N          4.20480        1.96970       -3.17740
C          4.98160        3.22470       -3.34760
C          5.68290        3.20470       -4.71400
C          4.10680        4.47490       -3.21250
C          3.17540        1.68550       -4.03990
O          2.82940        2.48550       -4.89630
C          2.49790        0.29120       -4.00430
H          2.31740       -0.06490       -2.94620
C          3.41070       -0.70520       -4.71640
N          1.18520        0.40130       -4.63910
C          0.25930        1.28500       -4.09760
O          0.19810        1.55560       -2.91590
C         -0.64480        1.86680       -5.21080
H         -1.72870        1.80010       -4.93980
C         -0.29620        0.98620       -6.43770
C          1.08400        0.36900       -6.11870
N         -0.22410        3.23720       -5.45270
S         -1.11050        4.56510       -4.75770
O         -1.08710        5.63870       -5.71790
O         -2.35210        3.99730       -4.28380
C         -0.11030        5.03410       -3.39040
C          0.78180        6.12450       -3.53940
C          1.60440        6.49040       -2.50600
C          1.57550        5.77620       -1.27690
C          2.45940        6.10150       -0.21140
C          2.39670        5.36220        0.93650
C          1.47950        4.30930        1.13340
C          0.62050        3.99400        0.11120
C          0.66460        4.70780       -1.11910
C         -0.18080        4.34790       -2.20540
Cl         3.48950        5.71070        2.20610
H         -0.42170        0.42700       -0.92800
H         -0.41640        0.57300        0.83810
H         -0.40380       -1.01880        0.07280
H          1.66060        1.74750       -1.59330
H          4.03390        1.71640        0.23490
H          3.59080        3.05390       -0.84870
H          4.10430        0.20110       -1.99330
H          5.45240        1.28600       -1.62340
H          5.76390        3.24190       -2.53950
H          4.95500        3.26090       -5.53690
H          6.26480        2.28780       -4.85470
H          6.35980        4.05880       -4.81680
H          3.35420        4.52680       -4.01400
H          4.71130        5.38560       -3.27310
H          3.56020        4.49140       -2.26350
H          2.91620       -1.68320       -4.81500
H          4.33270       -0.86890       -4.14060
H          3.70410       -0.36920       -5.71770
H         -1.06020        0.20820       -6.58980
H         -0.26900        1.58650       -7.36470
H          1.15900       -0.68130       -6.46270
H          1.90470        0.95180       -6.59190
H          0.78450        3.32640       -5.58870
H          0.80820        6.68270       -4.48470
H          2.29290        7.32720       -2.60940
H          3.16370        6.92290       -0.33530
H          1.47290        3.75170        2.07150
H         -0.09560        3.17790        0.21790
H         -0.87140        3.50400       -2.06210
