
     RDKit          3D

 41 43  0  0  0  0  0  0  0  0999 V2000
    0.1194   -0.1401    0.0081 C   0  0  0  0  0  0  0  0  0  0  0  0
    1.5149   -0.0859    0.0178 C   0  0  0  0  0  0  0  0  0  0  0  0
    2.2020    0.0669    1.2240 C   0  0  0  0  0  0  0  0  0  0  0  0
    1.4786    0.1740    2.4137 C   0  0  0  0  0  0  0  0  0  0  0  0
    0.0820    0.1269    2.4039 C   0  0  0  0  0  0  0  0  0  0  0  0
   -0.6181   -0.0444    1.1993 C   0  0  0  0  0  0  0  0  0  0  0  0
   -2.1459   -0.0359    1.1385 C   0  0  2  0  0  0  0  0  0  0  0  0
   -2.6383    1.4254    0.9981 C   0  0  0  0  0  0  0  0  0  0  0  0
   -2.8330   -0.5999    2.4025 C   0  0  0  0  0  0  0  0  0  0  0  0
   -2.6221   -0.2963    3.5566 O   0  0  0  0  0  0  0  0  0  0  0  0
   -3.8429   -1.4643    2.0084 N   0  0  0  0  0  0  0  0  0  0  0  0
   -3.9118   -1.6467    0.6304 C   0  0  0  0  0  0  0  0  0  0  0  0
   -4.7610   -2.2944    0.0642 O   0  0  0  0  0  0  0  0  0  0  0  0
   -2.7322   -0.9198    0.0148 C   0  0  0  0  0  0  0  0  0  0  0  0
   -4.7799   -2.1153    2.9627 C   0  0  0  0  0  0  0  0  0  0  0  0
   -5.9582   -1.4049    3.3127 N   0  0  0  0  0  0  0  0  0  0  0  0
   -5.8735   -0.2877    4.2457 C   0  0  0  0  0  0  0  0  0  0  0  0
   -5.8328    1.0630    3.5283 C   0  0  0  0  0  0  0  0  0  0  0  0
   -6.9032    1.1894    2.6103 O   0  0  0  0  0  0  0  0  0  0  0  0
   -6.9034    0.1577    1.6424 C   0  0  0  0  0  0  0  0  0  0  0  0
   -6.9932   -1.2197    2.3026 C   0  0  0  0  0  0  0  0  0  0  0  0
   -0.3960   -0.2508   -0.9483 H   0  0  0  0  0  0  0  0  0  0  0  0
    2.0652   -0.1641   -0.9229 H   0  0  0  0  0  0  0  0  0  0  0  0
    3.2938    0.1054    1.2356 H   0  0  0  0  0  0  0  0  0  0  0  0
    2.0037    0.2977    3.3640 H   0  0  0  0  0  0  0  0  0  0  0  0
   -0.4740    0.2178    3.3359 H   0  0  0  0  0  0  0  0  0  0  0  0
   -3.7366    1.4703    0.9231 H   0  0  0  0  0  0  0  0  0  0  0  0
   -2.2054    1.8755    0.0928 H   0  0  0  0  0  0  0  0  0  0  0  0
   -2.3237    2.0168    1.8691 H   0  0  0  0  0  0  0  0  0  0  0  0
   -2.0197   -1.6911   -0.3151 H   0  0  0  0  0  0  0  0  0  0  0  0
   -3.0542   -0.3667   -0.8782 H   0  0  0  0  0  0  0  0  0  0  0  0
   -4.1861   -2.3108    3.8658 H   0  0  0  0  0  0  0  0  0  0  0  0
   -5.0503   -3.0668    2.4839 H   0  0  0  0  0  0  0  0  0  0  0  0
   -4.9823   -0.4034    4.8787 H   0  0  0  0  0  0  0  0  0  0  0  0
   -6.7680   -0.3061    4.8963 H   0  0  0  0  0  0  0  0  0  0  0  0
   -5.9323    1.8887    4.2495 H   0  0  0  0  0  0  0  0  0  0  0  0
   -4.8632    1.1858    3.0084 H   0  0  0  0  0  0  0  0  0  0  0  0
   -7.7701    0.3340    0.9869 H   0  0  0  0  0  0  0  0  0  0  0  0
   -5.9895    0.2170    1.0166 H   0  0  0  0  0  0  0  0  0  0  0  0
   -7.9829   -1.3046    2.7893 H   0  0  0  0  0  0  0  0  0  0  0  0
   -6.9106   -2.0092    1.5421 H   0  0  0  0  0  0  0  0  0  0  0  0
  1  2  2  0
  1  6  1  0
  1 22  1  0
  2  3  1  0
  2 23  1  0
  3  4  2  0
  3 24  1  0
  4  5  1  0
  4 25  1  0
  5  6  2  0
  5 26  1  0
  6  7  1  0
  7  8  1  6
  7  9  1  0
  7 14  1  0
  8 27  1  0
  8 28  1  0
  8 29  1  0
  9 10  2  0
  9 11  1  0
 11 12  1  0
 11 15  1  0
 12 13  2  0
 12 14  1  0
 14 30  1  0
 14 31  1  0
 15 16  1  0
 15 32  1  0
 15 33  1  0
 16 17  1  0
 16 21  1  0
 17 18  1  0
 17 34  1  0
 17 35  1  0
 18 19  1  0
 18 36  1  0
 18 37  1  0
 19 20  1  0
 20 21  1  0
 20 38  1  0
 20 39  1  0
 21 40  1  0
 21 41  1  0
M  END

