41

C          0.06800        0.67520        0.26190
C          1.45560        0.76340        0.41050
C          2.10000        0.08590        1.44590
C          1.34380       -0.68240        2.33550
C         -0.03990       -0.77140        2.18330
C         -0.70080       -0.09800        1.14100
C         -2.22690       -0.19240        1.02280
C         -2.78550        0.43840       -0.25580
C         -2.81110        0.57070        2.23510
O         -2.80800        1.76780        2.39880
N         -3.34900       -0.35080        3.12260
C         -3.30910       -1.66230        2.65570
O         -3.70060       -2.62310        3.27640
C         -2.73740       -1.63490        1.24850
C         -3.93030        0.02730        4.43650
N         -5.31660        0.33440        4.46740
C         -5.77570        1.58950        3.88330
C         -6.31790        1.40160        2.46440
O         -7.30400        0.38760        2.42520
C         -6.80250       -0.85490        2.87800
C         -6.28100       -0.74860        4.31300
H         -0.40890        1.22060       -0.55170
H          2.03360        1.37000       -0.29090
H          3.18390        0.15670        1.56180
H          1.83270       -1.21600        3.15400
H         -0.60640       -1.37430        2.89650
H         -3.88000        0.32520       -0.28480
H         -2.36520       -0.04530       -1.15010
H         -2.56270        1.51310       -0.28870
H         -1.96930       -2.41070        1.13540
H         -3.55810       -1.88740        0.55820
H         -3.35090        0.89950        4.76920
H         -3.72630       -0.82730        5.09650
H         -4.95020        2.31520        3.87700
H         -6.59170        1.99310        4.51170
H         -6.79460        2.32650        2.10500
H         -5.48900        1.15730        1.76970
H         -7.63120       -1.57710        2.81760
H         -5.99580       -1.21010        2.20440
H         -7.14370       -0.55090        4.97660
H         -5.81930       -1.69850        4.61830
