rmsd116.gzmat
 OpenBabel08211713403D

 41 43  0  0  1  0  0  0  0  0999 V2000
    0.0000    0.0000    0.0000 C   0  0  0  0  0  0  0  0  0  0  0  0
    1.3932    0.0000    0.0000 C   0  0  0  0  0  0  0  0  0  0  0  0
    2.0942    0.0000    1.2039 C   0  0  0  0  0  0  0  0  0  0  0  0
    1.3954   -0.0055    2.4093 C   0  0  0  0  0  0  0  0  0  0  0  0
    0.0026   -0.0034    2.4113 C   0  0  0  0  0  0  0  0  0  0  0  0
   -0.7050    0.0082    1.2055 C   0  0  0  0  0  0  0  0  0  0  0  0
   -2.2106   -0.0170    1.2068 C   0  0  2  0  0  0  0  0  0  0  0  0
   -2.8316    0.7894    0.0718 C   0  0  0  0  0  0  0  0  0  0  0  0
   -2.7557    0.5712    2.5269 C   0  0  0  0  0  0  0  0  0  0  0  0
   -2.6760    1.7014    2.9217 O   0  0  0  0  0  0  0  0  0  0  0  0
   -3.4014   -0.4557    3.2447 N   0  0  0  0  0  0  0  0  0  0  0  0
   -3.4195   -1.6773    2.5407 C   0  0  0  0  0  0  0  0  0  0  0  0
   -3.9290   -2.6779    2.9689 O   0  0  0  0  0  0  0  0  0  0  0  0
   -2.7088   -1.4874    1.2178 C   0  0  0  0  0  0  0  0  0  0  0  0
   -4.0393   -0.2545    4.5647 C   0  0  0  0  0  0  0  0  0  0  0  0
   -5.4395    0.1380    4.5647 N   0  0  0  0  0  0  0  0  0  0  0  0
   -5.7415    1.4564    3.9843 C   0  0  0  0  0  0  0  0  0  0  0  0
   -6.0759    1.4099    2.4831 C   0  0  0  0  0  0  0  0  0  0  0  0
   -7.0852    0.4540    2.2228 O   0  0  0  0  0  0  0  0  0  0  0  0
   -6.7252   -0.8521    2.6298 C   0  0  0  0  0  0  0  0  0  0  0  0
   -6.3969   -0.8932    4.1326 C   0  0  0  0  0  0  0  0  0  0  0  0
   -0.5316   -0.0058   -0.9497 H   0  0  0  0  0  0  0  0  0  0  0  0
    1.9345    0.0008   -0.9441 H   0  0  0  0  0  0  0  0  0  0  0  0
    3.1822    0.0044    1.2026 H   0  0  0  0  0  0  0  0  0  0  0  0
    1.9380   -0.0088    3.3536 H   0  0  0  0  0  0  0  0  0  0  0  0
   -0.5225   -0.0055    3.3665 H   0  0  0  0  0  0  0  0  0  0  0  0
   -3.9272    0.8227    0.1401 H   0  0  0  0  0  0  0  0  0  0  0  0
   -2.5837    0.3747   -0.9129 H   0  0  0  0  0  0  0  0  0  0  0  0
   -2.4756    1.8319    0.0918 H   0  0  0  0  0  0  0  0  0  0  0  0
   -1.8754   -2.2111    1.1180 H   0  0  0  0  0  0  0  0  0  0  0  0
   -3.3896   -1.7078    0.3744 H   0  0  0  0  0  0  0  0  0  0  0  0
   -3.4543    0.5424    5.0998 H   0  0  0  0  0  0  0  0  0  0  0  0
   -3.9412   -1.2181    5.1345 H   0  0  0  0  0  0  0  0  0  0  0  0
   -4.8960    2.1570    4.1648 H   0  0  0  0  0  0  0  0  0  0  0  0
   -6.6199    1.8535    4.5472 H   0  0  0  0  0  0  0  0  0  0  0  0
   -6.5396    2.3512    2.1363 H   0  0  0  0  0  0  0  0  0  0  0  0
   -5.1904    1.1905    1.8650 H   0  0  0  0  0  0  0  0  0  0  0  0
   -7.6340   -1.4360    2.3956 H   0  0  0  0  0  0  0  0  0  0  0  0
   -5.8904   -1.2134    2.0081 H   0  0  0  0  0  0  0  0  0  0  0  0
   -7.3285   -0.7214    4.7233 H   0  0  0  0  0  0  0  0  0  0  0  0
   -6.0209   -1.9031    4.4098 H   0  0  0  0  0  0  0  0  0  0  0  0
  1  6  1  0  0  0  0
  2  1  2  0  0  0  0
  2  3  1  0  0  0  0
  3  4  2  0  0  0  0
  4  5  1  0  0  0  0
  4 25  1  0  0  0  0
  5 26  1  0  0  0  0
  6  7  1  0  0  0  0
  6  5  2  0  0  0  0
  7  8  1  6  0  0  0
  7 14  1  0  0  0  0
  7  9  1  0  0  0  0
  8 29  1  0  0  0  0
  8 27  1  0  0  0  0
  9 10  2  0  0  0  0
  9 11  1  0  0  0  0
 11 15  1  0  0  0  0
 12 13  2  0  0  0  0
 12 11  1  0  0  0  0
 14 12  1  0  0  0  0
 15 16  1  0  0  0  0
 15 32  1  0  0  0  0
 15 33  1  0  0  0  0
 17 34  1  0  0  0  0
 17 35  1  0  0  0  0
 17 16  1  0  0  0  0
 18 17  1  0  0  0  0
 19 18  1  0  0  0  0
 19 20  1  0  0  0  0
 20 21  1  0  0  0  0
 21 41  1  0  0  0  0
 21 16  1  0  0  0  0
 21 40  1  0  0  0  0
 22  1  1  0  0  0  0
 23  2  1  0  0  0  0
 24  3  1  0  0  0  0
 28  8  1  0  0  0  0
 30 14  1  0  0  0  0
 31 14  1  0  0  0  0
 36 18  1  0  0  0  0
 37 18  1  0  0  0  0
 38 20  1  0  0  0  0
 39 20  1  0  0  0  0
M  END
$$$$
