rmsd1.gzmat
 OpenBabel08211713403D

 41 42  0  0  1  0  0  0  0  0999 V2000
    0.0000    0.0000    0.0000 C   0  0  0  0  0  0  0  0  0  0  0  0
    1.3907    0.0000    0.0000 C   0  0  0  0  0  0  0  0  0  0  0  0
    2.0894    0.0000    1.2064 C   0  0  0  0  0  0  0  0  0  0  0  0
    1.3872   -0.0089    2.4081 C   0  0  0  0  0  0  0  0  0  0  0  0
   -0.0075   -0.0146    2.4076 C   0  0  0  0  0  0  0  0  0  0  0  0
   -0.7131   -0.0016    1.2055 C   0  0  0  0  0  0  0  0  0  0  0  0
   -2.2202    0.0420    1.1396 C   0  0  2  0  0  0  0  0  0  0  0  0
   -2.7687   -1.1727    0.3983 C   0  0  0  0  0  0  0  0  0  0  0  0
   -2.5823    1.3304    0.3598 C   0  0  0  0  0  0  0  0  0  0  0  0
   -2.3734    1.5722   -0.7977 O   0  0  0  0  0  0  0  0  0  0  0  0
   -3.2169    2.2267    1.2385 N   0  0  0  0  0  0  0  0  0  0  0  0
   -3.4317    1.6654    2.5130 C   0  0  0  0  0  0  0  0  0  0  0  0
   -3.9387    2.2628    3.4241 O   0  0  0  0  0  0  0  0  0  0  0  0
   -2.9425    0.2319    2.4966 C   0  0  0  0  0  0  0  0  0  0  0  0
   -3.5004    3.6381    0.8975 C   0  0  0  0  0  0  0  0  0  0  0  0
   -2.4365    4.5936    1.1596 N   0  0  0  0  0  0  0  0  0  0  0  0
   -2.1172    4.8316    2.5768 C   0  0  0  0  0  0  0  0  0  0  0  0
   -0.9779    3.9500    3.1187 C   0  0  0  0  0  0  0  0  0  0  0  0
    0.1556    4.0292    2.2769 O   0  0  0  0  0  0  0  0  0  0  0  0
   -0.1186    3.6076    0.9550 C   0  0  0  0  0  0  0  0  0  0  0  0
   -1.2302    4.4655    0.3253 C   0  0  0  0  0  0  0  0  0  0  0  0
   -0.5367    0.0189   -0.9519 H   0  0  0  0  0  0  0  0  0  0  0  0
    1.9326    0.0069   -0.9443 H   0  0  0  0  0  0  0  0  0  0  0  0
    3.1774    0.0120    1.2068 H   0  0  0  0  0  0  0  0  0  0  0  0
    1.9257   -0.0022    3.3545 H   0  0  0  0  0  0  0  0  0  0  0  0
   -0.5282   -0.0216    3.3646 H   0  0  0  0  0  0  0  0  0  0  0  0
   -3.8639   -1.1583    0.3364 H   0  0  0  0  0  0  0  0  0  0  0  0
   -2.4688   -2.1060    0.8920 H   0  0  0  0  0  0  0  0  0  0  0  0
   -2.3937   -1.2183   -0.6352 H   0  0  0  0  0  0  0  0  0  0  0  0
   -2.3017    0.0256    3.3736 H   0  0  0  0  0  0  0  0  0  0  0  0
   -3.7988   -0.4632    2.6102 H   0  0  0  0  0  0  0  0  0  0  0  0
   -4.4078    3.9482    1.4823 H   0  0  0  0  0  0  0  0  0  0  0  0
   -3.7466    3.6729   -0.1984 H   0  0  0  0  0  0  0  0  0  0  0  0
   -3.0284    4.7021    3.2016 H   0  0  0  0  0  0  0  0  0  0  0  0
   -1.8199    5.9052    2.6529 H   0  0  0  0  0  0  0  0  0  0  0  0
   -0.5909    4.3281    4.0823 H   0  0  0  0  0  0  0  0  0  0  0  0
   -1.2792    2.8969    3.2367 H   0  0  0  0  0  0  0  0  0  0  0  0
    0.8519    3.7548    0.4477 H   0  0  0  0  0  0  0  0  0  0  0  0
   -0.3632    2.5322    0.9547 H   0  0  0  0  0  0  0  0  0  0  0  0
   -0.8509    5.5040    0.1688 H   0  0  0  0  0  0  0  0  0  0  0  0
   -1.4980    4.0611   -0.6758 H   0  0  0  0  0  0  0  0  0  0  0  0
  1  2  2  0  0  0  0
  1  6  1  0  0  0  0
  2  3  1  0  0  0  0
  3 24  1  0  0  0  0
  3  4  2  0  0  0  0
  4 25  1  0  0  0  0
  5  4  1  0  0  0  0
  5 26  1  0  0  0  0
  6  5  2  0  0  0  0
  7  8  1  6  0  0  0
  7  6  1  0  0  0  0
  7 14  1  0  0  0  0
  8 28  1  0  0  0  0
  9  7  1  0  0  0  0
  9 11  1  0  0  0  0
 10  9  2  0  0  0  0
 11 12  1  0  0  0  0
 12 13  2  0  0  0  0
 14 12  1  0  0  0  0
 14 31  1  0  0  0  0
 14 30  1  0  0  0  0
 15 16  1  0  0  0  0
 15 11  1  0  0  0  0
 15 32  1  0  0  0  0
 16 17  1  0  0  0  0
 17 35  1  0  0  0  0
 17 18  1  0  0  0  0
 17 34  1  0  0  0  0
 18 37  1  0  0  0  0
 18 36  1  0  0  0  0
 19 18  1  0  0  0  0
 20 19  1  0  0  0  0
 21 20  1  0  0  0  0
 21 16  1  0  0  0  0
 22  1  1  0  0  0  0
 23  2  1  0  0  0  0
 27  8  1  0  0  0  0
 29  8  1  0  0  0  0
 38 20  1  0  0  0  0
 39 20  1  0  0  0  0
 40 21  1  0  0  0  0
 41 21  1  0  0  0  0
M  RAD  2  15   2  33   2
M  END
$$$$
