
     RDKit          3D

 41 43  0  0  0  0  0  0  0  0999 V2000
   -0.1760   -0.3470    0.0572 C   0  0  0  0  0  0  0  0  0  0  0  0
    1.2114   -0.5108    0.0060 C   0  0  0  0  0  0  0  0  0  0  0  0
    1.9873   -0.2979    1.1450 C   0  0  0  0  0  0  0  0  0  0  0  0
    1.3629    0.0770    2.3380 C   0  0  0  0  0  0  0  0  0  0  0  0
   -0.0224    0.2320    2.3896 C   0  0  0  0  0  0  0  0  0  0  0  0
   -0.8159    0.0278    1.2478 C   0  0  0  0  0  0  0  0  0  0  0  0
   -2.3470    0.0938    1.3760 C   0  0  2  0  0  0  0  0  0  0  0  0
   -2.8201    1.3273    2.1502 C   0  0  0  0  0  0  0  0  0  0  0  0
   -2.7167   -1.2087    2.1279 C   0  0  0  0  0  0  0  0  0  0  0  0
   -2.6212   -1.4125    3.3153 O   0  0  0  0  0  0  0  0  0  0  0  0
   -3.1199   -2.1458    1.1853 N   0  0  0  0  0  0  0  0  0  0  0  0
   -3.2762   -1.6046   -0.0893 C   0  0  0  0  0  0  0  0  0  0  0  0
   -3.5514   -2.2413   -1.0792 O   0  0  0  0  0  0  0  0  0  0  0  0
   -3.0787   -0.1018    0.0369 C   0  0  0  0  0  0  0  0  0  0  0  0
   -3.3678   -3.5758    1.5092 C   0  0  0  0  0  0  0  0  0  0  0  0
   -2.2700   -4.4688    1.4000 N   0  0  0  0  0  0  0  0  0  0  0  0
   -1.7960   -4.8563    0.0767 C   0  0  0  0  0  0  0  0  0  0  0  0
   -0.5727   -4.0452   -0.3542 C   0  0  0  0  0  0  0  0  0  0  0  0
    0.4483   -4.1006    0.6239 O   0  0  0  0  0  0  0  0  0  0  0  0
    0.0073   -3.6086    1.8778 C   0  0  0  0  0  0  0  0  0  0  0  0
   -1.1979   -4.4024    2.3872 C   0  0  0  0  0  0  0  0  0  0  0  0
   -0.7505   -0.5350   -0.8493 H   0  0  0  0  0  0  0  0  0  0  0  0
    1.6818   -0.8188   -0.9302 H   0  0  0  0  0  0  0  0  0  0  0  0
    3.0705   -0.4327    1.1071 H   0  0  0  0  0  0  0  0  0  0  0  0
    1.9569    0.2375    3.2408 H   0  0  0  0  0  0  0  0  0  0  0  0
   -0.4951    0.4801    3.3399 H   0  0  0  0  0  0  0  0  0  0  0  0
   -3.9187    1.3403    2.2199 H   0  0  0  0  0  0  0  0  0  0  0  0
   -2.4892    2.2466    1.6448 H   0  0  0  0  0  0  0  0  0  0  0  0
   -2.4273    1.3288    3.1748 H   0  0  0  0  0  0  0  0  0  0  0  0
   -2.5823    0.3144   -0.8468 H   0  0  0  0  0  0  0  0  0  0  0  0
   -4.0829    0.3502    0.0859 H   0  0  0  0  0  0  0  0  0  0  0  0
   -4.1701   -3.8928    0.8287 H   0  0  0  0  0  0  0  0  0  0  0  0
   -3.7400   -3.5710    2.5433 H   0  0  0  0  0  0  0  0  0  0  0  0
   -2.6067   -4.7309   -0.6552 H   0  0  0  0  0  0  0  0  0  0  0  0
   -1.5113   -5.9251    0.1036 H   0  0  0  0  0  0  0  0  0  0  0  0
   -0.1466   -4.4501   -1.2853 H   0  0  0  0  0  0  0  0  0  0  0  0
   -0.8656   -2.9951   -0.5423 H   0  0  0  0  0  0  0  0  0  0  0  0
    0.8556   -3.7014    2.5729 H   0  0  0  0  0  0  0  0  0  0  0  0
   -0.2441   -2.5365    1.7960 H   0  0  0  0  0  0  0  0  0  0  0  0
   -0.8646   -5.4329    2.6133 H   0  0  0  0  0  0  0  0  0  0  0  0
   -1.5807   -3.9526    3.3150 H   0  0  0  0  0  0  0  0  0  0  0  0
  1  2  2  0
  1  6  1  0
  1 22  1  0
  2  3  1  0
  2 23  1  0
  3  4  2  0
  3 24  1  0
  4  5  1  0
  4 25  1  0
  5  6  2  0
  5 26  1  0
  6  7  1  0
  7  8  1  1
  7  9  1  0
  7 14  1  0
  8 27  1  0
  8 28  1  0
  8 29  1  0
  9 10  2  0
  9 11  1  0
 11 12  1  0
 11 15  1  0
 12 13  2  0
 12 14  1  0
 14 30  1  0
 14 31  1  0
 15 16  1  0
 15 32  1  0
 15 33  1  0
 16 17  1  0
 16 21  1  0
 17 18  1  0
 17 34  1  0
 17 35  1  0
 18 19  1  0
 18 36  1  0
 18 37  1  0
 19 20  1  0
 20 21  1  0
 20 38  1  0
 20 39  1  0
 21 40  1  0
 21 41  1  0
M  END

