
     RDKit          3D

 41 43  0  0  0  0  0  0  0  0999 V2000
    0.1147   -0.4805    0.0746 C   0  0  0  0  0  0  0  0  0  0  0  0
    1.5049   -0.3525    0.0335 C   0  0  0  0  0  0  0  0  0  0  0  0
    2.1878    0.2250    1.1060 C   0  0  0  0  0  0  0  0  0  0  0  0
    1.4652    0.6792    2.2115 C   0  0  0  0  0  0  0  0  0  0  0  0
    0.0738    0.5580    2.2503 C   0  0  0  0  0  0  0  0  0  0  0  0
   -0.6211   -0.0362    1.1849 C   0  0  0  0  0  0  0  0  0  0  0  0
   -2.1450   -0.1283    1.1657 C   0  0  2  0  0  0  0  0  0  0  0  0
   -2.7317    1.1861    0.5929 C   0  0  0  0  0  0  0  0  0  0  0  0
   -2.7989   -0.2909    2.5545 C   0  0  0  0  0  0  0  0  0  0  0  0
   -2.6021    0.3668    3.5522 O   0  0  0  0  0  0  0  0  0  0  0  0
   -3.7740   -1.2724    2.4625 N   0  0  0  0  0  0  0  0  0  0  0  0
   -3.8729   -1.8485    1.2012 C   0  0  0  0  0  0  0  0  0  0  0  0
   -4.7423   -2.6172    0.8627 O   0  0  0  0  0  0  0  0  0  0  0  0
   -2.6937   -1.3477    0.3897 C   0  0  0  0  0  0  0  0  0  0  0  0
   -4.7758   -1.4732    3.5136 C   0  0  0  0  0  0  0  0  0  0  0  0
   -5.8494   -0.5241    3.4160 N   0  0  0  0  0  0  0  0  0  0  0  0
   -7.1280   -1.0234    2.9162 C   0  0  0  0  0  0  0  0  0  0  0  0
   -7.9838   -1.5794    4.0546 C   0  0  0  0  0  0  0  0  0  0  0  0
   -8.1476   -0.6190    5.0820 O   0  0  0  0  0  0  0  0  0  0  0  0
   -6.9111   -0.1847    5.6167 C   0  0  0  0  0  0  0  0  0  0  0  0
   -6.0232    0.4102    4.5235 C   0  0  0  0  0  0  0  0  0  0  0  0
   -0.3984   -0.9278   -0.7793 H   0  0  0  0  0  0  0  0  0  0  0  0
    2.0546   -0.7072   -0.8418 H   0  0  0  0  0  0  0  0  0  0  0  0
    3.2756    0.3229    1.0786 H   0  0  0  0  0  0  0  0  0  0  0  0
    1.9872    1.1358    3.0561 H   0  0  0  0  0  0  0  0  0  0  0  0
   -0.4830    0.9192    3.1139 H   0  0  0  0  0  0  0  0  0  0  0  0
   -3.8328    1.1466    0.5643 H   0  0  0  0  0  0  0  0  0  0  0  0
   -2.3547    1.3463   -0.4279 H   0  0  0  0  0  0  0  0  0  0  0  0
   -2.4300    2.0379    1.2179 H   0  0  0  0  0  0  0  0  0  0  0  0
   -1.9588   -2.1662    0.3451 H   0  0  0  0  0  0  0  0  0  0  0  0
   -3.0087   -1.1287   -0.6396 H   0  0  0  0  0  0  0  0  0  0  0  0
   -4.2406   -1.3757    4.4679 H   0  0  0  0  0  0  0  0  0  0  0  0
   -5.1207   -2.5119    3.4043 H   0  0  0  0  0  0  0  0  0  0  0  0
   -6.9460   -1.7831    2.1417 H   0  0  0  0  0  0  0  0  0  0  0  0
   -7.6712   -0.1865    2.4423 H   0  0  0  0  0  0  0  0  0  0  0  0
   -8.9924   -1.8473    3.7032 H   0  0  0  0  0  0  0  0  0  0  0  0
   -7.5106   -2.4982    4.4643 H   0  0  0  0  0  0  0  0  0  0  0  0
   -7.1426    0.5599    6.3944 H   0  0  0  0  0  0  0  0  0  0  0  0
   -6.3862   -1.0354    6.1037 H   0  0  0  0  0  0  0  0  0  0  0  0
   -6.5071    1.3248    4.1366 H   0  0  0  0  0  0  0  0  0  0  0  0
   -5.0367    0.7004    4.9144 H   0  0  0  0  0  0  0  0  0  0  0  0
  1  2  2  0
  1  6  1  0
  1 22  1  0
  2  3  1  0
  2 23  1  0
  3  4  2  0
  3 24  1  0
  4  5  1  0
  4 25  1  0
  5  6  2  0
  5 26  1  0
  6  7  1  0
  7  8  1  6
  7  9  1  0
  7 14  1  0
  8 27  1  0
  8 28  1  0
  8 29  1  0
  9 10  2  0
  9 11  1  0
 11 12  1  0
 11 15  1  0
 12 13  2  0
 12 14  1  0
 14 30  1  0
 14 31  1  0
 15 16  1  0
 15 32  1  0
 15 33  1  0
 16 17  1  0
 16 21  1  0
 17 18  1  0
 17 34  1  0
 17 35  1  0
 18 19  1  0
 18 36  1  0
 18 37  1  0
 19 20  1  0
 20 21  1  0
 20 38  1  0
 20 39  1  0
 21 40  1  0
 21 41  1  0
M  END

