
     RDKit          3D

 41 43  0  0  0  0  0  0  0  0999 V2000
    0.0680    0.6752    0.2619 C   0  0  0  0  0  0  0  0  0  0  0  0
    1.4556    0.7634    0.4105 C   0  0  0  0  0  0  0  0  0  0  0  0
    2.1000    0.0859    1.4459 C   0  0  0  0  0  0  0  0  0  0  0  0
    1.3438   -0.6824    2.3355 C   0  0  0  0  0  0  0  0  0  0  0  0
   -0.0399   -0.7714    2.1833 C   0  0  0  0  0  0  0  0  0  0  0  0
   -0.7008   -0.0980    1.1410 C   0  0  0  0  0  0  0  0  0  0  0  0
   -2.2269   -0.1924    1.0228 C   0  0  2  0  0  0  0  0  0  0  0  0
   -2.7855    0.4384   -0.2558 C   0  0  0  0  0  0  0  0  0  0  0  0
   -2.8111    0.5707    2.2351 C   0  0  0  0  0  0  0  0  0  0  0  0
   -2.8080    1.7678    2.3988 O   0  0  0  0  0  0  0  0  0  0  0  0
   -3.3490   -0.3508    3.1226 N   0  0  0  0  0  0  0  0  0  0  0  0
   -3.3091   -1.6623    2.6557 C   0  0  0  0  0  0  0  0  0  0  0  0
   -3.7006   -2.6231    3.2764 O   0  0  0  0  0  0  0  0  0  0  0  0
   -2.7374   -1.6349    1.2485 C   0  0  0  0  0  0  0  0  0  0  0  0
   -3.9303    0.0273    4.4365 C   0  0  0  0  0  0  0  0  0  0  0  0
   -5.3166    0.3344    4.4674 N   0  0  0  0  0  0  0  0  0  0  0  0
   -5.7757    1.5895    3.8833 C   0  0  0  0  0  0  0  0  0  0  0  0
   -6.3179    1.4016    2.4644 C   0  0  0  0  0  0  0  0  0  0  0  0
   -7.3040    0.3876    2.4252 O   0  0  0  0  0  0  0  0  0  0  0  0
   -6.8025   -0.8549    2.8780 C   0  0  0  0  0  0  0  0  0  0  0  0
   -6.2810   -0.7486    4.3130 C   0  0  0  0  0  0  0  0  0  0  0  0
   -0.4089    1.2206   -0.5517 H   0  0  0  0  0  0  0  0  0  0  0  0
    2.0336    1.3700   -0.2909 H   0  0  0  0  0  0  0  0  0  0  0  0
    3.1839    0.1567    1.5618 H   0  0  0  0  0  0  0  0  0  0  0  0
    1.8327   -1.2160    3.1540 H   0  0  0  0  0  0  0  0  0  0  0  0
   -0.6064   -1.3743    2.8965 H   0  0  0  0  0  0  0  0  0  0  0  0
   -3.8800    0.3252   -0.2848 H   0  0  0  0  0  0  0  0  0  0  0  0
   -2.3652   -0.0453   -1.1501 H   0  0  0  0  0  0  0  0  0  0  0  0
   -2.5627    1.5131   -0.2887 H   0  0  0  0  0  0  0  0  0  0  0  0
   -1.9693   -2.4107    1.1354 H   0  0  0  0  0  0  0  0  0  0  0  0
   -3.5581   -1.8874    0.5582 H   0  0  0  0  0  0  0  0  0  0  0  0
   -3.3509    0.8995    4.7692 H   0  0  0  0  0  0  0  0  0  0  0  0
   -3.7263   -0.8273    5.0965 H   0  0  0  0  0  0  0  0  0  0  0  0
   -4.9502    2.3152    3.8770 H   0  0  0  0  0  0  0  0  0  0  0  0
   -6.5917    1.9931    4.5117 H   0  0  0  0  0  0  0  0  0  0  0  0
   -6.7946    2.3265    2.1050 H   0  0  0  0  0  0  0  0  0  0  0  0
   -5.4890    1.1573    1.7697 H   0  0  0  0  0  0  0  0  0  0  0  0
   -7.6312   -1.5771    2.8176 H   0  0  0  0  0  0  0  0  0  0  0  0
   -5.9958   -1.2101    2.2044 H   0  0  0  0  0  0  0  0  0  0  0  0
   -7.1437   -0.5509    4.9766 H   0  0  0  0  0  0  0  0  0  0  0  0
   -5.8193   -1.6985    4.6183 H   0  0  0  0  0  0  0  0  0  0  0  0
  1  2  2  0
  1  6  1  0
  1 22  1  0
  2  3  1  0
  2 23  1  0
  3  4  2  0
  3 24  1  0
  4  5  1  0
  4 25  1  0
  5  6  2  0
  5 26  1  0
  6  7  1  0
  7  8  1  6
  7  9  1  0
  7 14  1  0
  8 27  1  0
  8 28  1  0
  8 29  1  0
  9 10  2  0
  9 11  1  0
 11 12  1  0
 11 15  1  0
 12 13  2  0
 12 14  1  0
 14 30  1  0
 14 31  1  0
 15 16  1  0
 15 32  1  0
 15 33  1  0
 16 17  1  0
 16 21  1  0
 17 18  1  0
 17 34  1  0
 17 35  1  0
 18 19  1  0
 18 36  1  0
 18 37  1  0
 19 20  1  0
 20 21  1  0
 20 38  1  0
 20 39  1  0
 21 40  1  0
 21 41  1  0
M  END

