46

C          0.07550       -0.33320        0.15880
C          1.46960       -0.27580        0.16430
C          2.15270        0.11490        1.31970
C          1.43200        0.45640        2.46700
C          0.03630        0.40640        2.45790
C         -0.65730        0.00740        1.30570
C         -2.14720       -0.07720        1.31630
C         -2.90640        1.06240        1.48390
C         -4.35280        0.97010        1.52710
O         -5.13230        1.90910        1.66090
N         -4.87730       -0.33330        1.37180
C         -4.13730       -1.48200        1.19390
C         -4.90070       -2.76940        1.12330
C         -2.76350       -1.37490        1.15180
C         -1.90800       -2.58460        0.97190
C         -1.07210       -3.02890        2.00840
C         -0.24080       -4.13540        1.83010
C         -0.23260       -4.82000        0.61130
C         -1.06290       -4.39060       -0.42710
C         -1.89080       -3.27980       -0.24750
N         -6.26050       -0.41110        1.43130
C         -6.80340       -0.58490        2.70580
O         -6.22780       -1.08170        3.64060
O         -8.08170       -0.18270        2.69490
C         -8.79470       -0.35400        3.91880
C         -2.35930        2.45480        1.61940
H         -0.45420       -0.65170       -0.74060
H          2.02600       -0.54270       -0.73740
H          3.24460        0.15280        1.32560
H          1.95800        0.76200        3.37470
H         -0.52790        0.66810        3.35590
H         -4.22330       -3.61030        0.94700
H         -5.65650       -2.73570        0.32420
H         -5.43230       -2.93520        2.07290
H         -1.07160       -2.49260        2.95910
H          0.40490       -4.46490        2.64770
H          0.42010       -5.68490        0.47100
H         -1.06120       -4.91750       -1.38450
H         -2.52780       -2.93420       -1.06550
H         -6.68570        0.36530        0.92480
H         -9.81330        0.00530        3.72920
H         -8.32790        0.23100        4.72510
H         -8.81100       -1.41330        4.21600
H         -1.30840        2.51610        1.31250
H         -2.43750        2.81010        2.66130
H         -2.96310        3.14990        1.01680
