46
rmsd120.gzmat
C          0.00000        0.00000        0.00000
C          1.39250        0.00000        0.00000
C          2.09150        0.00000        1.20620
C          1.39900        0.00080        2.41620
C          0.00640        0.00170        2.42380
C         -0.68930       -0.00260        1.21390
C         -2.16180       -0.03440        1.20950
C         -2.89070        1.11960        1.19490
C         -4.33520        1.07940        1.16010
O         -5.12320        2.00090        1.15650
N         -4.91010       -0.23910        1.15530
C         -4.17520       -1.41660        1.14670
C         -4.88900       -2.71900        1.08390
C         -2.80150       -1.31130        1.20210
C         -1.95710       -2.51090        1.24510
C         -1.54910       -3.02680        2.47770
C         -0.69600       -4.12650        2.51940
C         -0.25810       -4.71630        1.33470
C         -0.67920       -4.21100        0.10560
C         -1.52900       -3.10890        0.05730
N         -6.30820       -0.34040        1.07900
C         -6.80470       -0.46120       -0.25100
O         -6.22600       -0.94740       -1.18760
O         -8.10350       -0.05700       -0.25000
C         -8.80150       -0.30630       -1.47060
C         -2.28540        2.47620        1.17590
H         -0.55170       -0.00540       -0.93890
H          1.93400       -0.00400       -0.94360
H          3.17920       -0.00110        1.20320
H          1.94660       -0.00180        3.35630
H         -0.53950       -0.00220        3.36540
H         -4.22140       -3.57300        1.27760
H         -5.33070       -2.87630        0.08130
H         -5.71700       -2.77710        1.80920
H         -1.89030       -2.56070        3.39960
H         -0.36670       -4.52150        3.47780
H          0.41490       -5.56960        1.36960
H         -0.33900       -4.67540       -0.81750
H         -1.85530       -2.70590       -0.90010
H         -6.76390        0.38000        1.66940
H         -8.84380       -1.38170       -1.67080
H         -8.31750        0.22360       -2.29920
H         -9.79680        0.10380       -1.25850
H         -1.32400        2.50850        1.70920
H         -2.94290        3.22940        1.64080
H         -2.09740        2.81400        0.14430
