46
rmsd112.gzmat
C          0.00000        0.00000        0.00000
C          1.39290        0.00000        0.00000
C          2.09220        0.00000        1.20590
C          1.39960        0.00610        2.41540
C          0.00690        0.00530        2.42290
C         -0.69060       -0.00440        1.21320
C         -2.16290       -0.06000        1.22030
C         -2.91800        1.07680        1.25900
C         -4.36200        1.00380        1.28820
O         -5.17040        1.90700        1.31640
N         -4.90890       -0.32600        1.24980
C         -4.14840       -1.48630        1.23850
C         -4.82970       -2.80740        1.26230
C         -2.77690       -1.34910        1.20100
C         -1.91390       -2.53520        1.17170
C         -1.51540       -3.12630        2.37300
C         -0.65630       -4.22130        2.35260
C         -0.20040       -4.72920        1.13700
C         -0.61220       -4.14870       -0.06160
C         -1.47090       -3.05240       -0.04780
N         -6.30500       -0.46200        1.30870
C         -6.80990       -0.62320        2.63160
O         -6.22490       -1.10740        3.56530
O         -8.12260       -0.26550        2.62390
C         -8.80930       -0.51410        3.85110
C         -2.34200        2.44530        1.30900
H         -0.54970       -0.00670       -0.93910
H          1.93590       -0.00430       -0.94270
H          3.18020       -0.00580        1.20270
H          1.94670        0.00730        3.35590
H         -0.53750        0.00270        3.36580
H         -4.13580       -3.63980        1.06490
H         -5.64030       -2.87270        0.51830
H         -5.28660       -2.99670        2.25210
H         -1.87370       -2.72240        3.31860
H         -0.33840       -4.67780        3.28730
H          0.47930       -5.57790        1.12430
H         -0.25960       -4.54910       -1.00950
H         -1.79000       -2.59120       -0.98010
H         -6.77200        0.26130        0.73150
H         -9.83910       -0.22810        3.60450
H         -8.39420        0.11980        4.64290
H         -8.74100       -1.57150        4.12640
H         -1.43150        2.53200        0.69790
H         -2.07130        2.72640        2.33900
H         -3.05190        3.20840        0.94850
