rmsd122.gzmat
 OpenBabel08211713383D

 46 48  0  0  0  0  0  0  0  0999 V2000
    0.0000    0.0000    0.0000 C   0  0  0  0  0  0  0  0  0  0  0  0
    1.3923    0.0000    0.0000 C   0  0  0  0  0  0  0  0  0  0  0  0
    2.0909    0.0000    1.2066 C   0  0  0  0  0  0  0  0  0  0  0  0
    1.3978    0.0099    2.4158 C   0  0  0  0  0  0  0  0  0  0  0  0
    0.0047    0.0091    2.4229 C   0  0  0  0  0  0  0  0  0  0  0  0
   -0.6914   -0.0061    1.2134 C   0  0  0  0  0  0  0  0  0  0  0  0
   -2.1629   -0.0730    1.2116 C   0  0  0  0  0  0  0  0  0  0  0  0
   -2.9258    1.0476    1.3694 C   0  0  0  0  0  0  0  0  0  0  0  0
   -4.3694    0.9653    1.3561 C   0  0  0  0  0  0  0  0  0  0  0  0
   -5.1840    1.8541    1.4850 O   0  0  0  0  0  0  0  0  0  0  0  0
   -4.9056   -0.3587    1.1915 N   0  0  0  0  0  0  0  0  0  0  0  0
   -4.1379   -1.4976    0.9946 C   0  0  0  0  0  0  0  0  0  0  0  0
   -4.8143   -2.8012    0.7633 C   0  0  0  0  0  0  0  0  0  0  0  0
   -2.7664   -1.3552    1.0270 C   0  0  0  0  0  0  0  0  0  0  0  0
   -1.8892   -2.5189    0.8531 C   0  0  0  0  0  0  0  0  0  0  0  0
   -1.3101   -3.1303    1.9676 C   0  0  0  0  0  0  0  0  0  0  0  0
   -0.4357   -4.2003    1.7948 C   0  0  0  0  0  0  0  0  0  0  0  0
   -0.1415   -4.6618    0.5128 C   0  0  0  0  0  0  0  0  0  0  0  0
   -0.7278   -4.0578   -0.5985 C   0  0  0  0  0  0  0  0  0  0  0  0
   -1.6038   -2.9886   -0.4317 C   0  0  0  0  0  0  0  0  0  0  0  0
   -6.3026   -0.4970    1.1605 N   0  0  0  0  0  0  0  0  0  0  0  0
   -6.8601   -0.4243   -0.1499 C   0  0  0  0  0  0  0  0  0  0  0  0
   -6.3177   -0.7416   -1.1761 O   0  0  0  0  0  0  0  0  0  0  0  0
   -8.1655   -0.0623   -0.0244 O   0  0  0  0  0  0  0  0  0  0  0  0
   -8.9117   -0.0909   -1.2412 C   0  0  0  0  0  0  0  0  0  0  0  0
   -2.3685    2.4125    1.5526 C   0  0  0  0  0  0  0  0  0  0  0  0
   -0.5519   -0.0089   -0.9388 H   0  0  0  0  0  0  0  0  0  0  0  0
    1.9350   -0.0066   -0.9430 H   0  0  0  0  0  0  0  0  0  0  0  0
    3.1787   -0.0091    1.2035 H   0  0  0  0  0  0  0  0  0  0  0  0
    1.9451    0.0137    3.3560 H   0  0  0  0  0  0  0  0  0  0  0  0
   -0.5408    0.0124    3.3647 H   0  0  0  0  0  0  0  0  0  0  0  0
   -4.1207   -3.6525    0.8457 H   0  0  0  0  0  0  0  0  0  0  0  0
   -5.2557   -2.8385   -0.2508 H   0  0  0  0  0  0  0  0  0  0  0  0
   -5.6375   -2.9799    1.4741 H   0  0  0  0  0  0  0  0  0  0  0  0
   -1.5352   -2.7602    2.9656 H   0  0  0  0  0  0  0  0  0  0  0  0
    0.0217   -4.6727    2.6613 H   0  0  0  0  0  0  0  0  0  0  0  0
    0.5471   -5.4929    0.3794 H   0  0  0  0  0  0  0  0  0  0  0  0
   -0.4951   -4.4177   -1.5982 H   0  0  0  0  0  0  0  0  0  0  0  0
   -2.0605   -2.5099   -1.2963 H   0  0  0  0  0  0  0  0  0  0  0  0
   -6.7479    0.1122    1.8720 H   0  0  0  0  0  0  0  0  0  0  0  0
   -9.9032    0.2477   -0.9142 H   0  0  0  0  0  0  0  0  0  0  0  0
   -8.9464   -1.1084   -1.6435 H   0  0  0  0  0  0  0  0  0  0  0  0
   -8.4723    0.6000   -1.9700 H   0  0  0  0  0  0  0  0  0  0  0  0
   -1.3796    2.5264    1.0853 H   0  0  0  0  0  0  0  0  0  0  0  0
   -2.2572    2.6565    2.6206 H   0  0  0  0  0  0  0  0  0  0  0  0
   -3.0259    3.1857    1.1199 H   0  0  0  0  0  0  0  0  0  0  0  0
  1  2  2  0  0  0  0
  1  6  1  0  0  0  0
  2  3  1  0  0  0  0
  3  4  2  0  0  0  0
  4  5  1  0  0  0  0
  4 30  1  0  0  0  0
  5 31  1  0  0  0  0
  6  5  2  0  0  0  0
  7  6  1  0  0  0  0
  7  8  2  0  0  0  0
  8 26  1  0  0  0  0
  9  8  1  0  0  0  0
  9 10  2  0  0  0  0
 11  9  1  0  0  0  0
 12 14  2  0  0  0  0
 12 11  1  0  0  0  0
 13 32  1  0  0  0  0
 13 12  1  0  0  0  0
 13 34  1  0  0  0  0
 14  7  1  0  0  0  0
 15 14  1  0  0  0  0
 15 16  2  0  0  0  0
 16 35  1  0  0  0  0
 17 16  1  0  0  0  0
 17 36  1  0  0  0  0
 18 17  2  0  0  0  0
 19 20  2  0  0  0  0
 19 18  1  0  0  0  0
 20 15  1  0  0  0  0
 21 11  1  0  0  0  0
 21 40  1  0  0  0  0
 22 24  1  0  0  0  0
 22 21  1  0  0  0  0
 23 22  2  0  0  0  0
 25 41  1  0  0  0  0
 25 24  1  0  0  0  0
 26 45  1  0  0  0  0
 27  1  1  0  0  0  0
 28  2  1  0  0  0  0
 29  3  1  0  0  0  0
 33 13  1  0  0  0  0
 37 18  1  0  0  0  0
 38 19  1  0  0  0  0
 39 20  1  0  0  0  0
 42 25  1  0  0  0  0
 43 25  1  0  0  0  0
 44 26  1  0  0  0  0
 46 26  1  0  0  0  0
M  END
$$$$
