31
rmsd26.gzmat
C          0.00000        0.00000        0.00000
C          1.53910        0.00000        0.00000
C          2.05030        0.00000        1.39930
C          3.29280        0.01710        1.96540
C          3.02620       -0.02690        3.42270
O          3.90060       -0.04480        4.35300
N          1.69440       -0.05510        3.62530
O          1.07840       -0.03680        2.37570
C          4.62190        0.11220        1.33220
C          5.60090       -0.95960        1.80990
H          5.13350       -1.96410        1.79000
C          6.89260       -0.97710        0.86480
O          7.93220       -0.71460        1.48050
O          6.67750       -1.25250       -0.30770
N          6.06480       -0.64250        3.20770
H          5.09140       -0.33090        3.86740
H          6.55110       -1.44240        3.60390
H          6.74730        0.12410        3.16360
C          2.05380       -1.26450       -0.70820
C          2.04770        1.25960       -0.72280
H         -0.39790        0.03320       -1.01640
H         -0.39710        0.86280        0.54730
H         -0.39450       -0.89840        0.48920
H          5.05250        1.12430        1.49900
H          4.54050        0.01690        0.22120
H          1.70660       -1.31480       -1.74200
H          1.71990       -2.17070       -0.19110
H          3.15410       -1.29340       -0.72390
H          1.67240        1.30660       -1.74770
H          3.14460        1.27540       -0.76900
H          1.72940        2.16870       -0.20180
