rmsd57.gzmat
 OpenBabel08211713363D

 31 31  0  0  1  0  0  0  0  0999 V2000
    0.0000    0.0000    0.0000 C   0  0  0  0  0  0  0  0  0  0  0  0
    1.5389    0.0000    0.0000 C   0  0  0  0  0  0  0  0  0  0  0  0
    2.0545    0.0000    1.3976 C   0  0  0  0  0  0  0  0  0  0  0  0
    3.2980    0.0528    1.9594 C   0  0  0  0  0  0  0  0  0  0  0  0
    3.0394   -0.0285    3.4166 C   0  0  0  0  0  0  0  0  0  0  0  0
    3.9192   -0.0366    4.3416 O   0  0  0  0  0  0  0  0  0  0  0  0
    1.7101   -0.1074    3.6237 N   0  0  0  0  0  0  0  0  0  0  0  0
    1.0884   -0.0873    2.3768 O   0  0  0  0  0  0  0  0  0  0  0  0
    4.6197    0.2173    1.3252 C   0  0  0  0  0  0  0  0  0  0  0  0
    5.6447   -0.8268    1.7649 C   0  0  1  0  0  0  0  0  0  0  0  0
    5.2220   -1.8495    1.7084 H   0  0  0  0  0  0  0  0  0  0  0  0
    6.9388   -0.7591    0.8244 C   0  0  0  0  0  0  0  0  0  0  0  0
    7.9794   -0.5848    1.4693 O   0  0  0  0  0  0  0  0  0  0  0  0
    6.7252   -0.8911   -0.3726 O   0  0  0  0  0  0  0  0  0  0  0  0
    6.0957   -0.5425    3.1742 N   0  0  0  0  0  0  0  0  0  0  0  0
    5.1150   -0.2820    3.8425 H   0  0  0  0  0  0  0  0  0  0  0  0
    6.6107   -1.3381    3.5427 H   0  0  0  0  0  0  0  0  0  0  0  0
    6.7499    0.2483    3.1603 H   0  0  0  0  0  0  0  0  0  0  0  0
    2.0544   -1.2653   -0.7069 C   0  0  0  0  0  0  0  0  0  0  0  0
    2.0425    1.2594   -0.7259 C   0  0  0  0  0  0  0  0  0  0  0  0
   -0.3970   -0.0021   -1.0176 H   0  0  0  0  0  0  0  0  0  0  0  0
   -0.3956    0.8823    0.5160 H   0  0  0  0  0  0  0  0  0  0  0  0
   -0.3966   -0.8808    0.5184 H   0  0  0  0  0  0  0  0  0  0  0  0
    5.0091    1.2412    1.5198 H   0  0  0  0  0  0  0  0  0  0  0  0
    4.5375    0.1527    0.2116 H   0  0  0  0  0  0  0  0  0  0  0  0
    1.7050   -1.3175   -1.7398 H   0  0  0  0  0  0  0  0  0  0  0  0
    1.7216   -2.1703   -0.1870 H   0  0  0  0  0  0  0  0  0  0  0  0
    3.1546   -1.2911   -0.7248 H   0  0  0  0  0  0  0  0  0  0  0  0
    1.6337    1.3238   -1.7369 H   0  0  0  0  0  0  0  0  0  0  0  0
    3.1378    1.2580   -0.8091 H   0  0  0  0  0  0  0  0  0  0  0  0
    1.7563    2.1674   -0.1848 H   0  0  0  0  0  0  0  0  0  0  0  0
  1  2  1  0  0  0  0
  1 22  1  0  0  0  0
  1 23  1  0  0  0  0
  2  3  1  0  0  0  0
  3  4  2  0  0  0  0
  3  8  1  0  0  0  0
  4  5  1  0  0  0  0
  5  7  2  0  0  0  0
  5  6  2  0  0  0  0
  8  7  1  0  0  0  0
  9 24  1  0  0  0  0
  9 10  1  0  0  0  0
  9  4  1  0  0  0  0
 10 11  1  6  0  0  0
 10 15  1  0  0  0  0
 12 13  1  0  0  0  0
 12 10  1  0  0  0  0
 14 12  2  0  0  0  0
 15 17  1  0  0  0  0
 15 16  1  0  0  0  0
 18 15  1  0  0  0  0
 19 27  1  0  0  0  0
 19  2  1  0  0  0  0
 20 31  1  0  0  0  0
 20  2  1  0  0  0  0
 21  1  1  0  0  0  0
 25  9  1  0  0  0  0
 26 19  1  0  0  0  0
 28 19  1  0  0  0  0
 29 20  1  0  0  0  0
 30 20  1  0  0  0  0
M  RAD  1  13   2
M  END
$$$$
