31
rmsd57.gzmat
C          0.00000        0.00000        0.00000
C          1.53890        0.00000        0.00000
C          2.05450        0.00000        1.39760
C          3.29800        0.05280        1.95940
C          3.03940       -0.02850        3.41660
O          3.91920       -0.03660        4.34160
N          1.71010       -0.10740        3.62370
O          1.08840       -0.08730        2.37680
C          4.61970        0.21730        1.32520
C          5.64470       -0.82680        1.76490
H          5.22200       -1.84950        1.70840
C          6.93880       -0.75910        0.82440
O          7.97940       -0.58480        1.46930
O          6.72520       -0.89110       -0.37260
N          6.09570       -0.54250        3.17420
H          5.11500       -0.28200        3.84250
H          6.61070       -1.33810        3.54270
H          6.74990        0.24830        3.16030
C          2.05440       -1.26530       -0.70690
C          2.04250        1.25940       -0.72590
H         -0.39700       -0.00210       -1.01760
H         -0.39560        0.88230        0.51600
H         -0.39660       -0.88080        0.51840
H          5.00910        1.24120        1.51980
H          4.53750        0.15270        0.21160
H          1.70500       -1.31750       -1.73980
H          1.72160       -2.17030       -0.18700
H          3.15460       -1.29110       -0.72480
H          1.63370        1.32380       -1.73690
H          3.13780        1.25800       -0.80910
H          1.75630        2.16740       -0.18480
