rmsd21.gzmat
 OpenBabel08211713363D

 31 31  0  0  1  0  0  0  0  0999 V2000
    0.0000    0.0000    0.0000 C   0  0  0  0  0  0  0  0  0  0  0  0
    1.5416    0.0000    0.0000 C   0  0  0  0  0  0  0  0  0  0  0  0
    2.0168    0.0000    1.4127 C   0  0  0  0  0  0  0  0  0  0  0  0
    2.9704    0.6431    2.1449 C   0  0  0  0  0  0  0  0  0  0  0  0
    2.7960    0.1241    3.5197 C   0  0  0  0  0  0  0  0  0  0  0  0
    3.4528    0.4594    4.5645 O   0  0  0  0  0  0  0  0  0  0  0  0
    1.8045   -0.7889    3.5197 N   0  0  0  0  0  0  0  0  0  0  0  0
    1.3168   -0.8781    2.2193 O   0  0  0  0  0  0  0  0  0  0  0  0
    3.9958    1.6376    1.7942 C   0  0  0  0  0  0  0  0  0  0  0  0
    3.6190    3.0228    2.3669 C   0  0  1  0  0  0  0  0  0  0  0  0
    2.5842    2.9939    2.7924 H   0  0  0  0  0  0  0  0  0  0  0  0
    4.6074    3.4006    3.4984 C   0  0  0  0  0  0  0  0  0  0  0  0
    4.7786    2.5575    4.4491 O   0  0  0  0  0  0  0  0  0  0  0  0
    5.1833    4.4762    3.4296 O   0  0  0  0  0  0  0  0  0  0  0  0
    3.6352    4.0382    1.2883 N   0  0  0  0  0  0  0  0  0  0  0  0
    3.3695    4.9412    1.6605 H   0  0  0  0  0  0  0  0  0  0  0  0
    4.5729    4.1487    0.9248 H   0  0  0  0  0  0  0  0  0  0  0  0
    4.1142    1.5103    4.4624 H   0  0  0  0  0  0  0  0  0  0  0  0
    2.0611   -1.2791   -0.6830 C   0  0  0  0  0  0  0  0  0  0  0  0
    2.0417    1.2377   -0.7567 C   0  0  0  0  0  0  0  0  0  0  0  0
   -0.3990   -0.0199   -1.0159 H   0  0  0  0  0  0  0  0  0  0  0  0
   -0.3860    0.8953    0.5020 H   0  0  0  0  0  0  0  0  0  0  0  0
   -0.4016   -0.8685    0.5349 H   0  0  0  0  0  0  0  0  0  0  0  0
    4.1304    1.7087    0.6958 H   0  0  0  0  0  0  0  0  0  0  0  0
    4.9862    1.3137    2.1890 H   0  0  0  0  0  0  0  0  0  0  0  0
    1.7561   -1.3195   -1.7306 H   0  0  0  0  0  0  0  0  0  0  0  0
    1.6774   -2.1745   -0.1806 H   0  0  0  0  0  0  0  0  0  0  0  0
    3.1551   -1.3293   -0.6434 H   0  0  0  0  0  0  0  0  0  0  0  0
    1.4901    1.3920   -1.6856 H   0  0  0  0  0  0  0  0  0  0  0  0
    3.1035    1.1552   -1.0112 H   0  0  0  0  0  0  0  0  0  0  0  0
    1.9314    2.1498   -0.1461 H   0  0  0  0  0  0  0  0  0  0  0  0
  1  2  1  0  0  0  0
  1 22  1  0  0  0  0
  1 23  1  0  0  0  0
  2  3  1  0  0  0  0
  3  4  2  0  0  0  0
  3  8  1  0  0  0  0
  4  5  1  0  0  0  0
  5  6  2  0  0  0  0
  7  5  2  0  0  0  0
  8  7  1  0  0  0  0
  9  4  1  0  0  0  0
  9 25  1  0  0  0  0
  9 10  1  0  0  0  0
 10 11  1  1  0  0  0
 10 12  1  0  0  0  0
 12 13  1  0  0  0  0
 13 18  1  0  0  0  0
 14 12  2  0  0  0  0
 15 16  1  0  0  0  0
 15 10  1  0  0  0  0
 17 15  1  0  0  0  0
 19 28  1  0  0  0  0
 19 27  1  0  0  0  0
 19  2  1  0  0  0  0
 20 31  1  0  0  0  0
 20  2  1  0  0  0  0
 21  1  1  0  0  0  0
 24  9  1  0  0  0  0
 26 19  1  0  0  0  0
 29 20  1  0  0  0  0
 30 20  1  0  0  0  0
M  END
$$$$
