31
rmsd11.gzmat
C          0.00000        0.00000        0.00000
C          1.53900        0.00000        0.00000
C          2.04990        0.00000        1.39910
C          3.29080       -0.04840        1.96500
C          3.02490       -0.04620        3.42350
O          3.90460       -0.11580        4.34510
N          1.69470        0.02060        3.62700
O          1.07940        0.05270        2.37670
C          4.62860       -0.05410        1.34480
C          5.48580       -1.24050        1.78710
H          4.91750       -2.18870        1.71910
C          6.78010       -1.34600        0.85060
O          7.83090       -1.12570        1.46470
O          6.55400       -1.63550       -0.31650
N          5.96260       -1.02850        3.20140
H          6.78860       -0.41300        3.17830
H          5.05760       -0.54590        3.84490
H          6.26290       -1.90960        3.60720
C          2.04950       -1.26170       -0.71530
C          2.05010        1.26200       -0.71690
H         -0.39690       -0.01690       -1.01730
H         -0.39670        0.88870        0.50420
H         -0.39420       -0.87440        0.53140
H          5.15560        0.90100        1.56490
H          4.55260       -0.08790        0.23090
H          1.70500       -1.30200       -1.75060
H          1.70850       -2.16980       -0.20640
H          3.15000       -1.29860       -0.72900
H          1.66660        1.32020       -1.73820
H          3.14660        1.27040       -0.76910
H          1.74140        2.16920       -0.18700
