31
rmsd39.gzmat
C          0.00000        0.00000        0.00000
C          1.53850        0.00000        0.00000
C          2.02810        0.00000        1.40680
C          1.86730        0.83670        2.47340
C          2.69290        0.22530        3.54160
O          2.86720        0.69150        4.71680
N          3.25510       -0.90500        3.06930
O          2.84660       -1.05610        1.74470
C          1.03360        2.04440        2.61930
C          1.81180        3.26280        3.11430
H          2.74410        3.40170        2.53270
C          0.91170        4.57810        2.96210
O          0.70930        5.14050        4.04470
O          0.56310        4.84250        1.81980
N          2.14080        3.10440        4.57630
H          2.86370        3.76600        4.84550
H          1.30590        3.34050        5.12850
H          2.49070        1.95980        4.77000
C          2.04300       -1.25220       -0.73820
C          2.07170        1.26170       -0.70020
H         -0.39490       -0.04760       -1.01740
H         -0.39760        0.90980        0.46900
H         -0.39390       -0.85540        0.55910
H          0.17810        1.83490        3.29950
H          0.56220        2.32400        1.64470
H          1.70350       -1.26640       -1.77620
H          1.68500       -2.16740       -0.25290
H          3.13840       -1.29650       -0.74050
H          1.73820        1.31470       -1.73830
H          3.16650        1.28550       -0.69240
H          1.72810        2.17540       -0.19120
