31
rmsd118.gzmat
C          0.00000        0.00000        0.00000
C          1.53910        0.00000        0.00000
C          2.05240        0.00000        1.39730
C          3.29690        0.01770        1.95860
C          3.04420        0.05440        3.41280
O          3.90660        0.10270        4.35680
N          1.71180        0.03680        3.62520
O          1.08680        0.00040        2.38060
C          4.63260        0.01020        1.34230
C          5.36610        1.34390        1.60950
H          4.66280        2.08540        2.06530
C          6.53740        1.09870        2.59460
O          6.26470        0.53420        3.71190
O          7.66010        1.44430        2.25790
N          5.85800        1.91130        0.33240
H          6.31340        2.79950        0.50240
H          6.56300        1.30630       -0.07020
H          5.07310        0.30510        3.99670
C          2.04440       -1.26320       -0.72080
C          2.05570        1.26240       -0.71020
H         -0.39690        0.02550       -1.01660
H         -0.39540        0.86930        0.53960
H         -0.39570       -0.89320        0.49720
H          4.56100       -0.16000        0.24680
H          5.22930       -0.84340        1.73580
H          1.64630       -1.32650       -1.73560
H          1.74530       -2.16860       -0.18140
H          3.13930       -1.26890       -0.78840
H          1.78680        1.26680       -1.76680
H          3.15400        1.34170       -0.63740
H          1.65080        2.16980       -0.24850
