
     RDKit          3D

 48 49  0  0  0  0  0  0  0  0999 V2000
    0.0218    0.0043   -0.0052 C   0  0  0  0  0  0  0  0  0  0  0  0
    1.3976   -0.2243    0.1134 C   0  0  0  0  0  0  0  0  0  0  0  0
    2.0084   -0.2182    1.3690 C   0  0  0  0  0  0  0  0  0  0  0  0
    1.2763    0.0564    2.5318 C   0  0  0  0  0  0  0  0  0  0  0  0
   -0.0988    0.3074    2.3978 C   0  0  0  0  0  0  0  0  0  0  0  0
   -0.7212    0.2732    1.1531 C   0  0  0  0  0  0  0  0  0  0  0  0
    1.9423    0.1320    3.8809 C   0  0  0  0  0  0  0  0  0  0  0  0
   -0.6094    0.0174   -1.2812 N   0  0  0  0  0  0  0  0  0  0  0  0
   -0.5498   -1.0257   -2.1853 C   0  0  0  0  0  0  0  0  0  0  0  0
   -0.9312   -0.8909   -3.3385 O   0  0  0  0  0  0  0  0  0  0  0  0
   -0.0267   -2.3601   -1.6842 C   0  0  0  0  0  0  0  0  0  0  0  0
   -1.2572    1.2649   -1.7015 C   0  0  0  0  0  0  0  0  0  0  0  0
   -0.2738    2.3411   -2.1080 C   0  0  0  0  0  0  0  0  0  0  0  0
   -0.1251    3.5297   -1.3723 C   0  0  0  0  0  0  0  0  0  0  0  0
    0.7930    4.4977   -1.8054 C   0  0  0  0  0  0  0  0  0  0  0  0
    1.5819    4.2783   -2.9300 C   0  0  0  0  0  0  0  0  0  0  0  0
    1.4589    3.0904   -3.6711 C   0  0  0  0  0  0  0  0  0  0  0  0
    0.5217    2.1432   -3.2474 C   0  0  0  0  0  0  0  0  0  0  0  0
    2.3075    2.8578   -4.8951 C   0  0  0  0  0  0  0  0  0  0  0  0
   -0.9211    3.7755   -0.2096 N   0  0  0  0  0  0  0  0  0  0  0  0
   -0.4264    3.6729    1.0805 C   0  0  0  0  0  0  0  0  0  0  0  0
   -1.1307    3.8745    2.0560 O   0  0  0  0  0  0  0  0  0  0  0  0
    1.0416    3.3187    1.2145 C   0  0  0  0  0  0  0  0  0  0  0  0
   -2.2749    4.2715   -0.4150 C   0  0  0  0  0  0  0  0  0  0  0  0
    1.9914   -0.3937   -0.7862 H   0  0  0  0  0  0  0  0  0  0  0  0
    3.0833   -0.4039    1.4414 H   0  0  0  0  0  0  0  0  0  0  0  0
   -0.6935    0.5443    3.2833 H   0  0  0  0  0  0  0  0  0  0  0  0
   -1.7926    0.4658    1.0767 H   0  0  0  0  0  0  0  0  0  0  0  0
    1.3554   -0.3944    4.6498 H   0  0  0  0  0  0  0  0  0  0  0  0
    2.0384    1.1806    4.2117 H   0  0  0  0  0  0  0  0  0  0  0  0
    2.9515   -0.3045    3.8603 H   0  0  0  0  0  0  0  0  0  0  0  0
   -0.5072   -3.1413   -2.2872 H   0  0  0  0  0  0  0  0  0  0  0  0
   -0.2159   -2.5280   -0.6161 H   0  0  0  0  0  0  0  0  0  0  0  0
    1.0592   -2.4294   -1.8518 H   0  0  0  0  0  0  0  0  0  0  0  0
   -1.8871    1.6186   -0.8781 H   0  0  0  0  0  0  0  0  0  0  0  0
   -1.8977    1.0084   -2.5547 H   0  0  0  0  0  0  0  0  0  0  0  0
    0.8826    5.4267   -1.2381 H   0  0  0  0  0  0  0  0  0  0  0  0
    2.2987    5.0417   -3.2450 H   0  0  0  0  0  0  0  0  0  0  0  0
    0.3877    1.2172   -3.8124 H   0  0  0  0  0  0  0  0  0  0  0  0
    3.3814    2.8813   -4.6457 H   0  0  0  0  0  0  0  0  0  0  0  0
    2.1370    3.6406   -5.6527 H   0  0  0  0  0  0  0  0  0  0  0  0
    2.0877    1.8853   -5.3583 H   0  0  0  0  0  0  0  0  0  0  0  0
    1.2339    3.0906    2.2685 H   0  0  0  0  0  0  0  0  0  0  0  0
    1.6677    4.1715    0.9104 H   0  0  0  0  0  0  0  0  0  0  0  0
    1.3254    2.4635    0.5889 H   0  0  0  0  0  0  0  0  0  0  0  0
   -2.2593    5.2482   -0.9276 H   0  0  0  0  0  0  0  0  0  0  0  0
   -2.7465    4.3803    0.5690 H   0  0  0  0  0  0  0  0  0  0  0  0
   -2.8656    3.5750   -1.0319 H   0  0  0  0  0  0  0  0  0  0  0  0
  1  2  2  0
  1  6  1  0
  1  8  1  0
  2  3  1  0
  2 25  1  0
  3  4  2  0
  3 26  1  0
  4  5  1  0
  4  7  1  0
  5  6  2  0
  5 27  1  0
  6 28  1  0
  7 29  1  0
  7 30  1  0
  7 31  1  0
  8  9  1  0
  8 12  1  0
  9 10  2  0
  9 11  1  0
 11 32  1  0
 11 33  1  0
 11 34  1  0
 12 13  1  0
 12 35  1  0
 12 36  1  0
 13 14  2  0
 13 18  1  0
 14 15  1  0
 14 20  1  0
 15 16  2  0
 15 37  1  0
 16 17  1  0
 16 38  1  0
 17 18  2  0
 17 19  1  0
 18 39  1  0
 19 40  1  0
 19 41  1  0
 19 42  1  0
 20 21  1  0
 20 24  1  0
 21 22  2  0
 21 23  1  0
 23 43  1  0
 23 44  1  0
 23 45  1  0
 24 46  1  0
 24 47  1  0
 24 48  1  0
M  END

