rmsd82.gzmat
 OpenBabel08211713383D

 48 49  0  0  0  0  0  0  0  0999 V2000
    0.0000    0.0000    0.0000 C   0  0  0  0  0  0  0  0  0  0  0  0
    1.4005    0.0000    0.0000 C   0  0  0  0  0  0  0  0  0  0  0  0
    2.0837    0.0000    1.2104 C   0  0  0  0  0  0  0  0  0  0  0  0
    1.3803   -0.0076    2.4189 C   0  0  0  0  0  0  0  0  0  0  0  0
   -0.0166   -0.0069    2.4085 C   0  0  0  0  0  0  0  0  0  0  0  0
   -0.7123   -0.0028    1.2040 C   0  0  0  0  0  0  0  0  0  0  0  0
    2.1246   -0.0384    3.7097 C   0  0  0  0  0  0  0  0  0  0  0  0
   -0.7353   -0.0244   -1.2259 N   0  0  0  0  0  0  0  0  0  0  0  0
   -0.6342    1.0078   -2.1587 C   0  0  0  0  0  0  0  0  0  0  0  0
   -1.0220    0.8279   -3.2952 O   0  0  0  0  0  0  0  0  0  0  0  0
   -0.1298    2.3315   -1.6646 C   0  0  0  0  0  0  0  0  0  0  0  0
   -1.1564   -1.3633   -1.6758 C   0  0  0  0  0  0  0  0  0  0  0  0
    0.0247   -2.2088   -2.0790 C   0  0  0  0  0  0  0  0  0  0  0  0
    0.4509   -3.3072   -1.3174 C   0  0  0  0  0  0  0  0  0  0  0  0
    1.5851   -4.0330   -1.7030 C   0  0  0  0  0  0  0  0  0  0  0  0
    2.2907   -3.6677   -2.8434 C   0  0  0  0  0  0  0  0  0  0  0  0
    1.8650   -2.5841   -3.6153 C   0  0  0  0  0  0  0  0  0  0  0  0
    0.7303   -1.8684   -3.2317 C   0  0  0  0  0  0  0  0  0  0  0  0
    2.6147   -2.1746   -4.8359 C   0  0  0  0  0  0  0  0  0  0  0  0
   -0.2580   -3.6864   -0.1368 N   0  0  0  0  0  0  0  0  0  0  0  0
   -1.3252   -4.5785   -0.1722 C   0  0  0  0  0  0  0  0  0  0  0  0
   -1.7734   -5.0126    0.8689 O   0  0  0  0  0  0  0  0  0  0  0  0
   -1.9064   -4.9032   -1.5177 C   0  0  0  0  0  0  0  0  0  0  0  0
    0.4433   -3.4559    1.1311 C   0  0  0  0  0  0  0  0  0  0  0  0
    1.9469   -0.0196   -0.9416 H   0  0  0  0  0  0  0  0  0  0  0  0
    3.1722   -0.0013    1.2155 H   0  0  0  0  0  0  0  0  0  0  0  0
   -0.5681   -0.0137    3.3474 H   0  0  0  0  0  0  0  0  0  0  0  0
   -1.8019   -0.0106    1.1916 H   0  0  0  0  0  0  0  0  0  0  0  0
    2.5482   -1.0380    3.8956 H   0  0  0  0  0  0  0  0  0  0  0  0
    1.4900    0.2059    4.5724 H   0  0  0  0  0  0  0  0  0  0  0  0
    2.9617    0.6737    3.7183 H   0  0  0  0  0  0  0  0  0  0  0  0
   -0.3003    3.1104   -2.4242 H   0  0  0  0  0  0  0  0  0  0  0  0
    0.9480    2.3047   -1.4540 H   0  0  0  0  0  0  0  0  0  0  0  0
   -0.6384    2.6482   -0.7430 H   0  0  0  0  0  0  0  0  0  0  0  0
   -1.8609   -1.2444   -2.5388 H   0  0  0  0  0  0  0  0  0  0  0  0
   -1.7376   -1.8344   -0.8459 H   0  0  0  0  0  0  0  0  0  0  0  0
    1.9121   -4.8823   -1.1052 H   0  0  0  0  0  0  0  0  0  0  0  0
    3.1751   -4.2308   -3.1349 H   0  0  0  0  0  0  0  0  0  0  0  0
    0.3879   -1.0236   -3.8380 H   0  0  0  0  0  0  0  0  0  0  0  0
    1.9547   -2.1206   -5.7151 H   0  0  0  0  0  0  0  0  0  0  0  0
    3.4310   -2.8632   -5.0889 H   0  0  0  0  0  0  0  0  0  0  0  0
    3.0614   -1.1765   -4.7091 H   0  0  0  0  0  0  0  0  0  0  0  0
   -2.7257   -5.6318   -1.4100 H   0  0  0  0  0  0  0  0  0  0  0  0
   -1.1589   -5.3393   -2.1947 H   0  0  0  0  0  0  0  0  0  0  0  0
   -2.3188   -4.0120   -2.0109 H   0  0  0  0  0  0  0  0  0  0  0  0
    1.3054   -4.1316    1.2511 H   0  0  0  0  0  0  0  0  0  0  0  0
   -0.2479   -3.6235    1.9805 H   0  0  0  0  0  0  0  0  0  0  0  0
    0.7978   -2.4105    1.1791 H   0  0  0  0  0  0  0  0  0  0  0  0
  1  2  2  0  0  0  0
  1  6  1  0  0  0  0
  2  3  1  0  0  0  0
  3 26  1  0  0  0  0
  3  4  2  0  0  0  0
  4  7  1  0  0  0  0
  5  4  1  0  0  0  0
  5 27  1  0  0  0  0
  6  5  2  0  0  0  0
  7 31  1  0  0  0  0
  7 29  1  0  0  0  0
  7 30  1  0  0  0  0
  8  1  1  0  0  0  0
  9 11  1  0  0  0  0
  9  8  1  0  0  0  0
 10  9  2  0  0  0  0
 11 33  1  0  0  0  0
 11 34  1  0  0  0  0
 12  8  1  0  0  0  0
 12 36  1  0  0  0  0
 13 12  1  0  0  0  0
 13 14  2  0  0  0  0
 14 20  1  0  0  0  0
 15 14  1  0  0  0  0
 15 37  1  0  0  0  0
 16 15  2  0  0  0  0
 17 18  2  0  0  0  0
 17 16  1  0  0  0  0
 18 13  1  0  0  0  0
 19 42  1  0  0  0  0
 19 17  1  0  0  0  0
 20 24  1  0  0  0  0
 21 20  1  0  0  0  0
 21 22  2  0  0  0  0
 23 43  1  0  0  0  0
 23 21  1  0  0  0  0
 24 48  1  0  0  0  0
 24 46  1  0  0  0  0
 24 47  1  0  0  0  0
 25  2  1  0  0  0  0
 28  6  1  0  0  0  0
 32 11  1  0  0  0  0
 35 12  1  0  0  0  0
 38 16  1  0  0  0  0
 39 18  1  0  0  0  0
 40 19  1  0  0  0  0
 41 19  1  0  0  0  0
 44 23  1  0  0  0  0
 45 23  1  0  0  0  0
M  END
$$$$
