48

C         -0.01490       -0.06140        0.06120
C          1.37860       -0.17030        0.03400
C          2.10440       -0.18480        1.22700
C          1.45570       -0.09100        2.46680
C          0.05580        0.02210        2.47400
C         -0.67950        0.04300        1.28950
C          2.23060       -0.12920        3.75960
N         -0.74310        0.01730       -1.16980
C         -1.45450       -1.03160       -1.70170
O         -2.10180       -0.91680       -2.73700
C         -1.43770       -2.32690       -0.91950
C         -0.84440        1.34580       -1.78370
C         -1.52140        2.33310       -0.85830
C         -2.90630        2.27680       -0.61070
C         -3.47470        3.12740        0.33850
C         -2.68420        4.03300        1.04790
C         -1.30630        4.11450        0.81440
C         -0.75130        3.25570       -0.14520
C         -0.42830        5.06730        1.58460
N         -3.74510        1.36170       -1.32730
C         -4.14940        0.20440       -0.70580
O         -3.76930       -0.09230        0.42090
C         -5.06640       -0.70340       -1.49800
C         -4.08060        1.66230       -2.71630
H          1.88980       -0.24430       -0.92880
H          3.19380       -0.27200        1.19410
H         -0.47110        0.10360        3.42880
H         -1.76720        0.14020        1.29360
H          2.10740       -1.10180        4.26630
H          1.87980        0.64470        4.46070
H          3.30700        0.02320        3.59210
H         -1.78130       -3.13070       -1.58190
H         -2.14070       -2.22680       -0.07730
H         -0.44850       -2.56550       -0.50690
H         -1.39170        1.20720       -2.72290
H          0.16750        1.70880       -2.02350
H         -4.54870        3.06490        0.52280
H         -3.14670        4.68510        1.79340
H          0.32750        3.28340       -0.32480
H          0.28220        4.51690        2.22410
H         -1.02050        5.72940        2.23280
H          0.16990        5.69890        0.90790
H         -5.42840       -1.48880       -0.82420
H         -4.49220       -1.16140       -2.31820
H         -5.92150       -0.16440       -1.93210
H         -5.16080        1.84170       -2.84820
H         -3.76080        0.84740       -3.38190
H         -3.55290        2.57870       -3.00890
