
     RDKit          3D

 48 49  0  0  0  0  0  0  0  0999 V2000
   -0.0160    0.0243    0.0687 C   0  0  0  0  0  0  0  0  0  0  0  0
    1.3798    0.1328    0.0347 C   0  0  0  0  0  0  0  0  0  0  0  0
    2.1101    0.1687    1.2212 C   0  0  0  0  0  0  0  0  0  0  0  0
    1.4699    0.0996    2.4701 C   0  0  0  0  0  0  0  0  0  0  0  0
    0.0724   -0.0110    2.4898 C   0  0  0  0  0  0  0  0  0  0  0  0
   -0.6657   -0.0549    1.3051 C   0  0  0  0  0  0  0  0  0  0  0  0
    2.2716    0.1489    3.7455 C   0  0  0  0  0  0  0  0  0  0  0  0
   -0.7587   -0.0744   -1.1466 N   0  0  0  0  0  0  0  0  0  0  0  0
   -1.4836    0.9712   -1.6794 C   0  0  0  0  0  0  0  0  0  0  0  0
   -2.2444    0.8115   -2.6214 O   0  0  0  0  0  0  0  0  0  0  0  0
   -1.2760    2.3279   -1.0324 C   0  0  0  0  0  0  0  0  0  0  0  0
   -0.9149   -1.4169   -1.7174 C   0  0  0  0  0  0  0  0  0  0  0  0
   -1.8749   -2.2692   -0.9156 C   0  0  0  0  0  0  0  0  0  0  0  0
   -1.4523   -3.4028   -0.2027 C   0  0  0  0  0  0  0  0  0  0  0  0
   -2.3792   -4.1107    0.5785 C   0  0  0  0  0  0  0  0  0  0  0  0
   -3.7083   -3.7080    0.6480 C   0  0  0  0  0  0  0  0  0  0  0  0
   -4.1559   -2.5874   -0.0743 C   0  0  0  0  0  0  0  0  0  0  0  0
   -3.2251   -1.8881   -0.8474 C   0  0  0  0  0  0  0  0  0  0  0  0
   -5.6038   -2.1705   -0.0275 C   0  0  0  0  0  0  0  0  0  0  0  0
   -0.0920   -3.8404   -0.2362 N   0  0  0  0  0  0  0  0  0  0  0  0
    0.4242   -4.6068   -1.2662 C   0  0  0  0  0  0  0  0  0  0  0  0
    1.5807   -4.9924   -1.2683 O   0  0  0  0  0  0  0  0  0  0  0  0
   -0.5324   -4.9361   -2.4000 C   0  0  0  0  0  0  0  0  0  0  0  0
    0.7428   -3.5411    0.9207 C   0  0  0  0  0  0  0  0  0  0  0  0
    1.8845    0.1808   -0.9326 H   0  0  0  0  0  0  0  0  0  0  0  0
    3.1997    0.2487    1.1793 H   0  0  0  0  0  0  0  0  0  0  0  0
   -0.4478   -0.0769    3.4488 H   0  0  0  0  0  0  0  0  0  0  0  0
   -1.7510   -0.1673    1.3288 H   0  0  0  0  0  0  0  0  0  0  0  0
    1.6468   -0.0654    4.6244 H   0  0  0  0  0  0  0  0  0  0  0  0
    2.7247    1.1441    3.8903 H   0  0  0  0  0  0  0  0  0  0  0  0
    3.0967   -0.5809    3.7268 H   0  0  0  0  0  0  0  0  0  0  0  0
   -1.7623    3.0816   -1.6630 H   0  0  0  0  0  0  0  0  0  0  0  0
   -0.2092    2.5639   -0.9098 H   0  0  0  0  0  0  0  0  0  0  0  0
   -1.7281    2.3494   -0.0290 H   0  0  0  0  0  0  0  0  0  0  0  0
    0.0745   -1.8893   -1.7596 H   0  0  0  0  0  0  0  0  0  0  0  0
   -1.2926   -1.2777   -2.7390 H   0  0  0  0  0  0  0  0  0  0  0  0
   -2.0366   -4.9900    1.1288 H   0  0  0  0  0  0  0  0  0  0  0  0
   -4.4143   -4.2743    1.2617 H   0  0  0  0  0  0  0  0  0  0  0  0
   -3.5422   -1.0139   -1.4217 H   0  0  0  0  0  0  0  0  0  0  0  0
   -5.9664   -2.0963    1.0104 H   0  0  0  0  0  0  0  0  0  0  0  0
   -6.2446   -2.9081   -0.5399 H   0  0  0  0  0  0  0  0  0  0  0  0
   -5.7587   -1.1977   -0.5157 H   0  0  0  0  0  0  0  0  0  0  0  0
   -0.0253   -5.6396   -3.0708 H   0  0  0  0  0  0  0  0  0  0  0  0
   -0.8050   -4.0323   -2.9658 H   0  0  0  0  0  0  0  0  0  0  0  0
   -1.4688   -5.3766   -2.0278 H   0  0  0  0  0  0  0  0  0  0  0  0
    1.7372   -3.9626    0.7322 H   0  0  0  0  0  0  0  0  0  0  0  0
    0.3220   -3.9906    1.8359 H   0  0  0  0  0  0  0  0  0  0  0  0
    0.8228   -2.4560    1.0749 H   0  0  0  0  0  0  0  0  0  0  0  0
  1  2  2  0
  1  6  1  0
  1  8  1  0
  2  3  1  0
  2 25  1  0
  3  4  2  0
  3 26  1  0
  4  5  1  0
  4  7  1  0
  5  6  2  0
  5 27  1  0
  6 28  1  0
  7 29  1  0
  7 30  1  0
  7 31  1  0
  8  9  1  0
  8 12  1  0
  9 10  2  0
  9 11  1  0
 11 32  1  0
 11 33  1  0
 11 34  1  0
 12 13  1  0
 12 35  1  0
 12 36  1  0
 13 14  2  0
 13 18  1  0
 14 15  1  0
 14 20  1  0
 15 16  2  0
 15 37  1  0
 16 17  1  0
 16 38  1  0
 17 18  2  0
 17 19  1  0
 18 39  1  0
 19 40  1  0
 19 41  1  0
 19 42  1  0
 20 21  1  0
 20 24  1  0
 21 22  2  0
 21 23  1  0
 23 43  1  0
 23 44  1  0
 23 45  1  0
 24 46  1  0
 24 47  1  0
 24 48  1  0
M  END

