48

C         -0.01600        0.02430        0.06870
C          1.37980        0.13280        0.03470
C          2.11010        0.16870        1.22120
C          1.46990        0.09960        2.47010
C          0.07240       -0.01100        2.48980
C         -0.66570       -0.05490        1.30510
C          2.27160        0.14890        3.74550
N         -0.75870       -0.07440       -1.14660
C         -1.48360        0.97120       -1.67940
O         -2.24440        0.81150       -2.62140
C         -1.27600        2.32790       -1.03240
C         -0.91490       -1.41690       -1.71740
C         -1.87490       -2.26920       -0.91560
C         -1.45230       -3.40280       -0.20270
C         -2.37920       -4.11070        0.57850
C         -3.70830       -3.70800        0.64800
C         -4.15590       -2.58740       -0.07430
C         -3.22510       -1.88810       -0.84740
C         -5.60380       -2.17050       -0.02750
N         -0.09200       -3.84040       -0.23620
C          0.42420       -4.60680       -1.26620
O          1.58070       -4.99240       -1.26830
C         -0.53240       -4.93610       -2.40000
C          0.74280       -3.54110        0.92070
H          1.88450        0.18080       -0.93260
H          3.19970        0.24870        1.17930
H         -0.44780       -0.07690        3.44880
H         -1.75100       -0.16730        1.32880
H          1.64680       -0.06540        4.62440
H          2.72470        1.14410        3.89030
H          3.09670       -0.58090        3.72680
H         -1.76230        3.08160       -1.66300
H         -0.20920        2.56390       -0.90980
H         -1.72810        2.34940       -0.02900
H          0.07450       -1.88930       -1.75960
H         -1.29260       -1.27770       -2.73900
H         -2.03660       -4.99000        1.12880
H         -4.41430       -4.27430        1.26170
H         -3.54220       -1.01390       -1.42170
H         -5.96640       -2.09630        1.01040
H         -6.24460       -2.90810       -0.53990
H         -5.75870       -1.19770       -0.51570
H         -0.02530       -5.63960       -3.07080
H         -0.80500       -4.03230       -2.96580
H         -1.46880       -5.37660       -2.02780
H          1.73720       -3.96260        0.73220
H          0.32200       -3.99060        1.83590
H          0.82280       -2.45600        1.07490
