48
rmsd219.gzmat
C          0.00000        0.00000        0.00000
C          1.39950        0.00000        0.00000
C          2.08480        0.00000        1.21080
C          1.38440        0.01470        2.41870
C         -0.01420        0.02870        2.40920
C         -0.71050        0.01990        1.20690
C          2.11380        0.01770        3.71800
N         -0.73060       -0.00560       -1.22550
C         -0.57120       -1.00670       -2.18090
O         -1.00890       -0.83750       -3.30100
C          0.06810       -2.29000       -1.73860
C         -1.34790        1.27370       -1.61250
C         -0.32480        2.29840       -2.03160
C         -0.17540        3.51550       -1.35160
C          0.78360        4.44700       -1.77170
C          1.59690        4.16310       -2.86080
C          1.45110        2.95510       -3.54890
C          0.48720        2.03680       -3.13490
C          2.32810        2.64770       -4.71370
N         -1.01960        3.82320       -0.24080
C         -0.52240        3.96910        1.05300
O         -1.23800        4.44400        1.91140
C          0.85390        3.44550        1.32970
C         -2.29440        4.46580       -0.58940
H          1.94690        0.01560       -0.94050
H          3.17320       -0.00380        1.21210
H         -0.56200        0.05140        3.35050
H         -1.79990        0.03250        1.19860
H          2.01430       -0.95120        4.23070
H          1.72350        0.78480        4.40360
H          3.18870        0.20900        3.60180
H         -0.15920       -3.09350       -2.45720
H         -0.28900       -2.61520       -0.75170
H          1.16150       -2.19900       -1.68370
H         -1.96070        1.63430       -0.74960
H         -2.06090        1.08600       -2.45780
H          0.88160        5.39550       -1.24630
H          2.34220        4.88670       -3.18490
H          0.35430        1.10040       -3.68480
H          3.27950        2.20600       -4.38000
H          2.57250        3.54500       -5.29900
H          1.86550        1.93100       -5.40780
H          1.09500        3.55220        2.39840
H          1.62620        3.97310        0.75630
H          0.93610        2.37500        1.07940
H         -2.14430        5.49550       -0.95590
H         -2.94820        4.51200        0.30380
H         -2.80950        3.88280       -1.37040
