48

C          0.02180        0.00430       -0.00520
C          1.39760       -0.22430        0.11340
C          2.00840       -0.21820        1.36900
C          1.27630        0.05640        2.53180
C         -0.09880        0.30740        2.39780
C         -0.72120        0.27320        1.15310
C          1.94230        0.13200        3.88090
N         -0.60940        0.01740       -1.28120
C         -0.54980       -1.02570       -2.18530
O         -0.93120       -0.89090       -3.33850
C         -0.02670       -2.36010       -1.68420
C         -1.25720        1.26490       -1.70150
C         -0.27380        2.34110       -2.10800
C         -0.12510        3.52970       -1.37230
C          0.79300        4.49770       -1.80540
C          1.58190        4.27830       -2.93000
C          1.45890        3.09040       -3.67110
C          0.52170        2.14320       -3.24740
C          2.30750        2.85780       -4.89510
N         -0.92110        3.77550       -0.20960
C         -0.42640        3.67290        1.08050
O         -1.13070        3.87450        2.05600
C          1.04160        3.31870        1.21450
C         -2.27490        4.27150       -0.41500
H          1.99140       -0.39370       -0.78620
H          3.08330       -0.40390        1.44140
H         -0.69350        0.54430        3.28330
H         -1.79260        0.46580        1.07670
H          1.35540       -0.39440        4.64980
H          2.03840        1.18060        4.21170
H          2.95150       -0.30450        3.86030
H         -0.50720       -3.14130       -2.28720
H         -0.21590       -2.52800       -0.61610
H          1.05920       -2.42940       -1.85180
H         -1.88710        1.61860       -0.87810
H         -1.89770        1.00840       -2.55470
H          0.88260        5.42670       -1.23810
H          2.29870        5.04170       -3.24500
H          0.38770        1.21720       -3.81240
H          3.38140        2.88130       -4.64570
H          2.13700        3.64060       -5.65270
H          2.08770        1.88530       -5.35830
H          1.23390        3.09060        2.26850
H          1.66770        4.17150        0.91040
H          1.32540        2.46350        0.58890
H         -2.25930        5.24820       -0.92760
H         -2.74650        4.38030        0.56900
H         -2.86560        3.57500       -1.03190
