48
rmsd119.gzmat
C          0.00000        0.00000        0.00000
C          1.39830        0.00000        0.00000
C          2.07980        0.00000        1.21350
C          1.37560        0.00080        2.41920
C         -0.02310       -0.00870        2.40800
C         -0.71470       -0.00790        1.20390
C          2.10140        0.00580        3.72170
N         -0.67590        0.04480       -1.26300
C         -1.50940       -0.98660       -1.68180
O         -2.21060       -0.82570       -2.66570
C         -1.44810       -2.28560       -0.93780
C         -0.86790        1.39940       -1.81690
C         -1.49600        2.31610       -0.79810
C         -2.86720        2.30640       -0.50610
C         -3.37020        3.09220        0.54030
C         -2.51500        3.89920        1.27940
C         -1.15210        3.93870        0.97590
C         -0.65480        3.15240       -0.06280
C         -0.22110        4.78130        1.77920
N         -3.81210        1.51290       -1.22970
C         -4.22470        0.29640       -0.70130
O         -3.87830       -0.01740        0.42290
C         -5.12920       -0.56140       -1.53440
C         -4.00420        1.83890       -2.64620
H          1.94330        0.00210       -0.94200
H          3.16730        0.00030        1.21840
H         -0.57680       -0.00860        3.34560
H         -1.81120        0.00840        1.19450
H          1.71180        0.77910        4.39980
H          3.17780        0.19000        3.60900
H          1.99250       -0.96080        4.23680
H         -1.81230       -3.10960       -1.56950
H         -2.09820       -2.24080       -0.04500
H         -0.43590       -2.54040       -0.59670
H         -1.48300        1.33130       -2.74740
H          0.13130        1.78170       -2.13690
H         -4.43340        3.04890        0.77700
H         -2.90850        4.49570        2.09990
H          0.41230        3.16830       -0.28220
H          0.27250        4.17620        2.55650
H         -0.73310        5.60860        2.28800
H          0.57330        5.22440        1.16340
H         -5.50260       -1.40870       -0.93870
H         -4.57660       -0.98630       -2.39310
H         -5.99600       -0.01500       -1.92170
H         -5.08210        1.94290       -2.86210
H         -3.58530        1.05170       -3.30560
H         -3.51890        2.79670       -2.89810
