28
rmsd21.gzmat
C          0.00000        0.00000        0.00000
S          1.61390        0.00000        0.00000
C         -0.96230        0.00000       -1.04760
C         -2.30320       -0.00900       -0.73040
N         -2.72390       -0.02820        0.58640
C         -1.82630       -0.01800        1.54190
O         -0.49120       -0.00920        1.29800
C         -2.13310       -0.02380        2.96970
C         -3.44860       -0.25150        3.39150
C         -3.74420       -0.26090        4.75100
C         -2.73220       -0.04220        5.68570
C         -1.42280        0.18830        5.26420
C         -1.11740        0.19760        3.90640
S         -3.57130       -0.01400       -1.92970
C         -5.11180       -0.01600       -0.97530
C         -0.49660        0.10470       -2.45570
O         -0.67910        1.08410       -3.14610
N          0.12420       -1.01300       -2.97440
H         -4.23600       -0.41950        2.65270
H         -4.76540       -0.43850        5.08330
H         -2.96640       -0.05110        6.75020
H         -0.63670        0.36090        5.99840
H         -0.08980        0.37730        3.57570
H         -5.95270        0.07210       -1.67370
H         -5.16180        0.82390       -0.26730
H         -5.23690       -0.93520       -0.38910
H          0.35640       -1.80530       -2.41820
H          0.49660       -0.98430       -3.90300
