rmsd101.gzmat
 OpenBabel08211713373D

 28 29  0  0  1  0  0  0  0  0999 V2000
    0.0000    0.0000    0.0000 C   0  0  0  0  0  0  0  0  0  0  0  0
    1.6136    0.0000    0.0000 S   0  0  0  0  0  0  0  0  0  0  0  0
   -0.9624    0.0000   -1.0473 C   0  0  1  0  0  0  0  0  0  0  0  0
   -2.3028   -0.0048   -0.7304 C   0  0  0  0  0  0  0  0  0  0  0  0
   -2.7259   -0.0282    0.5856 N   0  0  0  0  0  0  0  0  0  0  0  0
   -1.8283   -0.0292    1.5412 C   0  0  0  0  0  0  0  0  0  0  0  0
   -0.4932   -0.0125    1.2966 O   0  0  0  0  0  0  0  0  0  0  0  0
   -2.1300   -0.0659    2.9695 C   0  0  0  0  0  0  0  0  0  0  0  0
   -3.4628   -0.0514    3.3978 C   0  0  0  0  0  0  0  0  0  0  0  0
   -3.7484   -0.1041    4.7587 C   0  0  0  0  0  0  0  0  0  0  0  0
   -2.7102   -0.1700    5.6879 C   0  0  0  0  0  0  0  0  0  0  0  0
   -1.3826   -0.1784    5.2603 C   0  0  0  0  0  0  0  0  0  0  0  0
   -1.0872   -0.1255    3.9016 C   0  0  0  0  0  0  0  0  0  0  0  0
   -3.5649   -0.0086   -1.9353 S   0  0  0  0  0  0  0  0  0  0  0  0
   -5.1093   -0.0633   -0.9901 C   0  0  0  0  0  0  0  0  0  0  0  0
   -0.4935    0.0935   -2.4552 C   0  0  0  0  0  0  0  0  0  0  0  0
   -0.6357    1.0822   -3.1412 O   0  0  0  0  0  0  0  0  0  0  0  0
    0.0829   -1.0468   -2.9762 N   0  0  0  0  0  0  0  0  0  0  0  0
   -4.2701   -0.0002    2.6624 H   0  0  0  0  0  0  0  0  0  0  0  0
   -4.7832   -0.0941    5.0972 H   0  0  0  0  0  0  0  0  0  0  0  0
   -2.9369   -0.2147    6.7533 H   0  0  0  0  0  0  0  0  0  0  0  0
   -0.5745   -0.2270    5.9893 H   0  0  0  0  0  0  0  0  0  0  0  0
   -0.0454   -0.1309    3.5659 H   0  0  0  0  0  0  0  0  0  0  0  0
   -5.9486   -0.0089   -1.6936 H   0  0  0  0  0  0  0  0  0  0  0  0
   -5.1929    0.7769   -0.2865 H   0  0  0  0  0  0  0  0  0  0  0  0
   -5.2063   -0.9854   -0.4028 H   0  0  0  0  0  0  0  0  0  0  0  0
    0.2817   -1.8483   -2.4204 H   0  0  0  0  0  0  0  0  0  0  0  0
    0.4639   -1.0294   -3.9016 H   0  0  0  0  0  0  0  0  0  0  0  0
  1  7  1  0  0  0  0
  2  1  2  0  0  0  0
  3 16  1  1  0  0  0
  3  4  1  0  0  0  0
  3  1  1  0  0  0  0
  4  5  2  0  0  0  0
  5  6  2  0  0  0  0
  6  8  1  0  0  0  0
  7  6  1  0  0  0  0
  8  9  2  0  0  0  0
  8 13  1  0  0  0  0
  9 10  1  0  0  0  0
 10 20  1  0  0  0  0
 10 11  2  0  0  0  0
 11 21  1  0  0  0  0
 12 11  1  0  0  0  0
 12 22  1  0  0  0  0
 13 12  2  0  0  0  0
 14 15  1  0  0  0  0
 14  4  1  0  0  0  0
 15 26  1  0  0  0  0
 15 25  1  0  0  0  0
 17 16  2  0  0  0  0
 18 16  1  0  0  0  0
 18 27  1  0  0  0  0
 19  9  1  0  0  0  0
 23 13  1  0  0  0  0
 24 15  1  0  0  0  0
 28 18  1  0  0  0  0
M  RAD  1   3   2
M  END
$$$$
