28
rmsd101.gzmat
C          0.00000        0.00000        0.00000
S          1.61360        0.00000        0.00000
C         -0.96240        0.00000       -1.04730
C         -2.30280       -0.00480       -0.73040
N         -2.72590       -0.02820        0.58560
C         -1.82830       -0.02920        1.54120
O         -0.49320       -0.01250        1.29660
C         -2.13000       -0.06590        2.96950
C         -3.46280       -0.05140        3.39780
C         -3.74840       -0.10410        4.75870
C         -2.71020       -0.17000        5.68790
C         -1.38260       -0.17840        5.26030
C         -1.08720       -0.12550        3.90160
S         -3.56490       -0.00860       -1.93530
C         -5.10930       -0.06330       -0.99010
C         -0.49350        0.09350       -2.45520
O         -0.63570        1.08220       -3.14120
N          0.08290       -1.04680       -2.97620
H         -4.27010       -0.00020        2.66240
H         -4.78320       -0.09410        5.09720
H         -2.93690       -0.21470        6.75330
H         -0.57450       -0.22700        5.98930
H         -0.04540       -0.13090        3.56590
H         -5.94860       -0.00890       -1.69360
H         -5.19290        0.77690       -0.28650
H         -5.20630       -0.98540       -0.40280
H          0.28170       -1.84830       -2.42040
H          0.46390       -1.02940       -3.90160
