28
rmsd113.gzmat
C          0.00000        0.00000        0.00000
S          1.61310        0.00000        0.00000
C         -0.96070        0.00000       -1.04960
C         -2.30090       -0.05320       -0.73730
N         -2.72610       -0.07960        0.57770
C         -1.83140       -0.04300        1.53550
O         -0.49560       -0.01790        1.29600
C         -2.14140       -0.03260        2.96260
C         -1.11710       -0.17580        3.90590
C         -1.42640       -0.15960        5.26290
C         -2.74920       -0.00320        5.67740
C         -3.76900        0.14010        4.73640
C         -3.46930        0.12680        3.37780
S         -3.55790       -0.11310       -1.94760
C         -5.10600       -0.19150       -1.00970
C         -0.49260        0.15800       -2.45200
O         -0.63350        1.18050       -3.08700
N          0.08390       -0.95450       -3.02900
H         -0.07850       -0.29900        3.58330
H         -0.63260       -0.26800        6.00110
H         -2.98770        0.00730        6.74080
H         -4.80020        0.26270        5.06330
H         -4.26270        0.23860        2.63380
H         -5.94060       -0.23380       -1.72000
H         -5.24300        0.68730       -0.36450
H         -5.15500       -1.07560       -0.36030
H          0.28040       -1.78390       -2.51540
H          0.45800       -0.89220       -3.95520
