28
rmsd20.gzmat
C          0.00000        0.00000        0.00000
S          1.61350        0.00000        0.00000
C         -0.96290        0.00000       -1.04750
C         -2.30310       -0.03520       -0.73190
N         -2.72660       -0.06100        0.58450
C         -1.82910       -0.04060        1.53940
O         -0.49350       -0.01700        1.29560
C         -2.12460       -0.05050        2.96990
C         -1.09840       -0.29580        3.89060
C         -1.38390       -0.30120        5.25230
C         -2.68470       -0.05940        5.69480
C         -3.70580        0.18560        4.77690
C         -3.43020        0.18930        3.41250
S         -3.56180       -0.07520       -1.94110
C         -5.10860       -0.18040       -1.00400
C         -0.49390        0.13030       -2.45270
O         -0.63750        1.13790       -3.11030
N          0.08730       -0.99360       -3.00330
H         -0.07710       -0.48080        3.54390
H         -0.58880       -0.49290        5.97220
H         -2.90300       -0.06060        6.76270
H         -4.71970        0.37580        5.12540
H         -4.22540        0.37820        2.68730
H         -5.94660       -0.12780       -1.70980
H         -5.21110        0.64110       -0.28140
H         -5.18750       -1.11710       -0.43690
H          0.28160       -1.81230       -2.47110
H          0.46420       -0.95260       -3.92960
