rmsd20.gzmat
 OpenBabel08211713373D

 28 29  0  0  1  0  0  0  0  0999 V2000
    0.0000    0.0000    0.0000 C   0  0  0  0  0  0  0  0  0  0  0  0
    1.6135    0.0000    0.0000 S   0  0  0  0  0  0  0  0  0  0  0  0
   -0.9629    0.0000   -1.0475 C   0  0  1  0  0  0  0  0  0  0  0  0
   -2.3031   -0.0352   -0.7319 C   0  0  0  0  0  0  0  0  0  0  0  0
   -2.7266   -0.0610    0.5845 N   0  0  0  0  0  0  0  0  0  0  0  0
   -1.8291   -0.0406    1.5394 C   0  0  0  0  0  0  0  0  0  0  0  0
   -0.4935   -0.0170    1.2956 O   0  0  0  0  0  0  0  0  0  0  0  0
   -2.1246   -0.0505    2.9699 C   0  0  0  0  0  0  0  0  0  0  0  0
   -1.0984   -0.2958    3.8906 C   0  0  0  0  0  0  0  0  0  0  0  0
   -1.3839   -0.3012    5.2523 C   0  0  0  0  0  0  0  0  0  0  0  0
   -2.6847   -0.0594    5.6948 C   0  0  0  0  0  0  0  0  0  0  0  0
   -3.7058    0.1856    4.7769 C   0  0  0  0  0  0  0  0  0  0  0  0
   -3.4302    0.1893    3.4125 C   0  0  0  0  0  0  0  0  0  0  0  0
   -3.5618   -0.0752   -1.9411 S   0  0  0  0  0  0  0  0  0  0  0  0
   -5.1086   -0.1804   -1.0040 C   0  0  0  0  0  0  0  0  0  0  0  0
   -0.4939    0.1303   -2.4527 C   0  0  0  0  0  0  0  0  0  0  0  0
   -0.6375    1.1379   -3.1103 O   0  0  0  0  0  0  0  0  0  0  0  0
    0.0873   -0.9936   -3.0033 N   0  0  0  0  0  0  0  0  0  0  0  0
   -0.0771   -0.4808    3.5439 H   0  0  0  0  0  0  0  0  0  0  0  0
   -0.5888   -0.4929    5.9722 H   0  0  0  0  0  0  0  0  0  0  0  0
   -2.9030   -0.0606    6.7627 H   0  0  0  0  0  0  0  0  0  0  0  0
   -4.7197    0.3758    5.1254 H   0  0  0  0  0  0  0  0  0  0  0  0
   -4.2254    0.3782    2.6873 H   0  0  0  0  0  0  0  0  0  0  0  0
   -5.9466   -0.1278   -1.7098 H   0  0  0  0  0  0  0  0  0  0  0  0
   -5.2111    0.6411   -0.2814 H   0  0  0  0  0  0  0  0  0  0  0  0
   -5.1875   -1.1171   -0.4369 H   0  0  0  0  0  0  0  0  0  0  0  0
    0.2816   -1.8123   -2.4711 H   0  0  0  0  0  0  0  0  0  0  0  0
    0.4642   -0.9526   -3.9296 H   0  0  0  0  0  0  0  0  0  0  0  0
  1  7  1  0  0  0  0
  2  1  2  0  0  0  0
  3 16  1  1  0  0  0
  3  4  1  0  0  0  0
  3  1  1  0  0  0  0
  4  5  2  0  0  0  0
  5  6  2  0  0  0  0
  6  8  1  0  0  0  0
  7  6  1  0  0  0  0
  8 13  2  0  0  0  0
  8  9  1  0  0  0  0
  9 10  2  0  0  0  0
 10 11  1  0  0  0  0
 10 20  1  0  0  0  0
 11 21  1  0  0  0  0
 12 22  1  0  0  0  0
 12 11  2  0  0  0  0
 13 12  1  0  0  0  0
 14 15  1  0  0  0  0
 14  4  1  0  0  0  0
 15 26  1  0  0  0  0
 15 25  1  0  0  0  0
 17 16  2  0  0  0  0
 18 27  1  0  0  0  0
 18 16  1  0  0  0  0
 19  9  1  0  0  0  0
 23 13  1  0  0  0  0
 24 15  1  0  0  0  0
 28 18  1  0  0  0  0
M  RAD  1   3   2
M  END
$$$$
