rmsd21.gzmat
 OpenBabel08211713373D

 28 29  0  0  1  0  0  0  0  0999 V2000
    0.0000    0.0000    0.0000 C   0  0  0  0  0  0  0  0  0  0  0  0
    1.6139    0.0000    0.0000 S   0  0  0  0  0  0  0  0  0  0  0  0
   -0.9623    0.0000   -1.0476 C   0  0  1  0  0  0  0  0  0  0  0  0
   -2.3032   -0.0090   -0.7304 C   0  0  0  0  0  0  0  0  0  0  0  0
   -2.7239   -0.0282    0.5864 N   0  0  0  0  0  0  0  0  0  0  0  0
   -1.8263   -0.0180    1.5419 C   0  0  0  0  0  0  0  0  0  0  0  0
   -0.4912   -0.0092    1.2980 O   0  0  0  0  0  0  0  0  0  0  0  0
   -2.1331   -0.0238    2.9697 C   0  0  0  0  0  0  0  0  0  0  0  0
   -3.4486   -0.2515    3.3915 C   0  0  0  0  0  0  0  0  0  0  0  0
   -3.7442   -0.2609    4.7510 C   0  0  0  0  0  0  0  0  0  0  0  0
   -2.7322   -0.0422    5.6857 C   0  0  0  0  0  0  0  0  0  0  0  0
   -1.4228    0.1883    5.2642 C   0  0  0  0  0  0  0  0  0  0  0  0
   -1.1174    0.1976    3.9064 C   0  0  0  0  0  0  0  0  0  0  0  0
   -3.5713   -0.0140   -1.9297 S   0  0  0  0  0  0  0  0  0  0  0  0
   -5.1118   -0.0160   -0.9753 C   0  0  0  0  0  0  0  0  0  0  0  0
   -0.4966    0.1047   -2.4557 C   0  0  0  0  0  0  0  0  0  0  0  0
   -0.6791    1.0841   -3.1461 O   0  0  0  0  0  0  0  0  0  0  0  0
    0.1242   -1.0130   -2.9744 N   0  0  0  0  0  0  0  0  0  0  0  0
   -4.2360   -0.4195    2.6527 H   0  0  0  0  0  0  0  0  0  0  0  0
   -4.7654   -0.4385    5.0833 H   0  0  0  0  0  0  0  0  0  0  0  0
   -2.9664   -0.0511    6.7502 H   0  0  0  0  0  0  0  0  0  0  0  0
   -0.6367    0.3609    5.9984 H   0  0  0  0  0  0  0  0  0  0  0  0
   -0.0898    0.3773    3.5757 H   0  0  0  0  0  0  0  0  0  0  0  0
   -5.9527    0.0721   -1.6737 H   0  0  0  0  0  0  0  0  0  0  0  0
   -5.1618    0.8239   -0.2673 H   0  0  0  0  0  0  0  0  0  0  0  0
   -5.2369   -0.9352   -0.3891 H   0  0  0  0  0  0  0  0  0  0  0  0
    0.3564   -1.8053   -2.4182 H   0  0  0  0  0  0  0  0  0  0  0  0
    0.4966   -0.9843   -3.9030 H   0  0  0  0  0  0  0  0  0  0  0  0
  1  7  1  0  0  0  0
  2  1  2  0  0  0  0
  3 16  1  1  0  0  0
  3  4  1  0  0  0  0
  3  1  1  0  0  0  0
  4  5  2  0  0  0  0
  5  6  2  0  0  0  0
  6  8  1  0  0  0  0
  7  6  1  0  0  0  0
  8  9  2  0  0  0  0
  8 13  1  0  0  0  0
  9 10  1  0  0  0  0
 10 20  1  0  0  0  0
 10 11  2  0  0  0  0
 11 21  1  0  0  0  0
 12 11  1  0  0  0  0
 12 22  1  0  0  0  0
 13 12  2  0  0  0  0
 14 15  1  0  0  0  0
 14  4  1  0  0  0  0
 15 26  1  0  0  0  0
 15 25  1  0  0  0  0
 17 16  2  0  0  0  0
 18 16  1  0  0  0  0
 18 27  1  0  0  0  0
 19  9  1  0  0  0  0
 23 13  1  0  0  0  0
 24 15  1  0  0  0  0
 28 18  1  0  0  0  0
M  RAD  1   3   2
M  END
$$$$
