45
rmsd104.gzmat
N          0.00000        0.00000        0.00000
C          1.37550        0.00000        0.00000
C          2.11740        0.00000        1.14730
C          1.49030       -0.00710        2.46050
O          2.06670        0.03500        3.51810
C         -0.00070       -0.07610        2.42080
C         -0.68380       -0.12920        3.63410
C         -2.06860       -0.20790        3.62630
C         -2.80590       -0.24660        2.43120
C         -2.11580       -0.19050        1.22210
C         -0.70900       -0.09340        1.20290
N         -4.23380       -0.34390        2.30270
C         -4.97910        0.87160        2.62230
C         -5.55940        0.94290        4.05010
N         -6.32250       -0.31500        4.41420
H         -6.56430       -0.26460        5.44000
C         -5.46310       -1.54330        4.19260
C         -4.84610       -1.58250        2.77710
C         -7.60120       -0.41240        3.63150
F         -2.69970       -0.24790        4.79080
C          3.57740        0.00730        1.08610
O          4.39660        0.02450        1.95960
O          3.98070       -0.01810       -0.22790
C         -0.69400       -0.05710       -1.30230
C         -0.96360       -1.50100       -1.71890
H          1.85920        0.01550       -0.99730
H         -0.11210       -0.10660        4.57730
H         -2.69020       -0.23070        0.29450
H         -5.80230        0.95300        1.86800
H         -4.32920        1.76830        2.44870
H         -6.23570        1.82540        4.13900
H         -4.74870        1.10140        4.79910
H         -4.67060       -1.57120        4.97500
H         -6.07840       -2.46010        4.35550
H         -4.09540       -2.41370        2.73400
H         -5.63230       -1.85560        2.02730
H         -7.40910       -0.50430        2.54460
H         -8.23300        0.48360        3.78410
H         -8.18960       -1.29740        3.94140
H          4.96290       -0.01620       -0.33260
H         -0.06580        0.46010       -2.06920
H         -1.63780        0.53260       -1.24960
H         -0.03410       -2.08160       -1.80990
H         -1.46540       -1.54320       -2.69520
H         -1.60150       -2.02970       -1.00020
