45
rmsd107.gzmat
N          0.00000        0.00000        0.00000
C          1.37560        0.00000        0.00000
C          2.11810        0.00000        1.14680
C          1.49210        0.01000        2.46050
O          2.06950       -0.03710        3.51740
C          0.00130        0.08170        2.42140
C         -0.67960        0.14620        3.63530
C         -2.06490        0.21300        3.62860
C         -2.80540        0.22380        2.43470
C         -2.11640        0.16160        1.22510
C         -0.70850        0.08590        1.20410
N         -4.23520        0.29610        2.30910
C         -4.86910        1.52800        2.77310
C         -5.46430        1.50040        4.19810
N         -6.28720        0.25510        4.45980
H         -6.49690        0.21290        5.49360
C         -5.51170       -0.99310        4.08870
C         -4.96010       -0.92610        2.64960
C         -7.59100        0.31440        3.71580
F         -2.69190        0.26620        4.79470
C          3.57790       -0.01030        1.08340
O          4.39910        0.05970        1.95220
O          3.97750       -0.10710       -0.22840
C         -0.69350        0.07420       -1.30210
C         -1.00190        1.52140       -1.67870
H          1.85980       -0.01580       -0.99710
H         -0.10730        0.14130        4.57850
H         -2.69220        0.17810        0.29780
H         -5.67310        1.76950        2.03120
H         -4.13820        2.37510        2.70590
H         -6.10210        2.40360        4.34980
H         -4.66210        1.56830        4.96780
H         -4.68480       -1.13490        4.82300
H         -6.17190       -1.88540        4.19720
H         -4.30300       -1.81620        2.47080
H         -5.79560       -1.02300        1.91100
H         -7.43460        0.38500        2.62200
H         -8.18520        1.19580        4.02410
H         -8.20170       -0.58860        3.90760
H          4.95910       -0.11700       -0.33530
H         -1.62060       -0.54240       -1.26780
H         -0.05030       -0.40320       -2.08230
H         -1.67890        2.00340       -0.96300
H         -1.47510        1.57950       -2.66820
H         -0.09150        2.13680       -1.72140
