rmsd104.gzmat
 OpenBabel08211713363D

 45 47  0  0  0  0  0  0  0  0999 V2000
    0.0000    0.0000    0.0000 N   0  0  0  0  0  0  0  0  0  0  0  0
    1.3755    0.0000    0.0000 C   0  0  0  0  0  0  0  0  0  0  0  0
    2.1174    0.0000    1.1473 C   0  0  0  0  0  0  0  0  0  0  0  0
    1.4903   -0.0071    2.4605 C   0  0  0  0  0  0  0  0  0  0  0  0
    2.0667    0.0350    3.5181 O   0  0  0  0  0  0  0  0  0  0  0  0
   -0.0007   -0.0761    2.4208 C   0  0  0  0  0  0  0  0  0  0  0  0
   -0.6838   -0.1292    3.6341 C   0  0  0  0  0  0  0  0  0  0  0  0
   -2.0686   -0.2079    3.6263 C   0  0  0  0  0  0  0  0  0  0  0  0
   -2.8059   -0.2466    2.4312 C   0  0  0  0  0  0  0  0  0  0  0  0
   -2.1158   -0.1905    1.2221 C   0  0  0  0  0  0  0  0  0  0  0  0
   -0.7090   -0.0934    1.2029 C   0  0  0  0  0  0  0  0  0  0  0  0
   -4.2338   -0.3439    2.3027 N   0  0  0  0  0  0  0  0  0  0  0  0
   -4.9791    0.8716    2.6223 C   0  0  0  0  0  0  0  0  0  0  0  0
   -5.5594    0.9429    4.0501 C   0  0  0  0  0  0  0  0  0  0  0  0
   -6.3225   -0.3150    4.4142 N   0  0  0  0  0  0  0  0  0  0  0  0
   -6.5643   -0.2646    5.4400 H   0  0  0  0  0  0  0  0  0  0  0  0
   -5.4631   -1.5433    4.1926 C   0  0  0  0  0  0  0  0  0  0  0  0
   -4.8461   -1.5825    2.7771 C   0  0  0  0  0  0  0  0  0  0  0  0
   -7.6012   -0.4124    3.6315 C   0  0  0  0  0  0  0  0  0  0  0  0
   -2.6997   -0.2479    4.7908 F   0  0  0  0  0  0  0  0  0  0  0  0
    3.5774    0.0073    1.0861 C   0  0  0  0  0  0  0  0  0  0  0  0
    4.3966    0.0245    1.9596 O   0  0  0  0  0  0  0  0  0  0  0  0
    3.9807   -0.0181   -0.2279 O   0  0  0  0  0  0  0  0  0  0  0  0
   -0.6940   -0.0571   -1.3023 C   0  0  0  0  0  0  0  0  0  0  0  0
   -0.9636   -1.5010   -1.7189 C   0  0  0  0  0  0  0  0  0  0  0  0
    1.8592    0.0155   -0.9973 H   0  0  0  0  0  0  0  0  0  0  0  0
   -0.1121   -0.1066    4.5773 H   0  0  0  0  0  0  0  0  0  0  0  0
   -2.6902   -0.2307    0.2945 H   0  0  0  0  0  0  0  0  0  0  0  0
   -5.8023    0.9530    1.8680 H   0  0  0  0  0  0  0  0  0  0  0  0
   -4.3292    1.7683    2.4487 H   0  0  0  0  0  0  0  0  0  0  0  0
   -6.2357    1.8254    4.1390 H   0  0  0  0  0  0  0  0  0  0  0  0
   -4.7487    1.1014    4.7991 H   0  0  0  0  0  0  0  0  0  0  0  0
   -4.6706   -1.5712    4.9750 H   0  0  0  0  0  0  0  0  0  0  0  0
   -6.0784   -2.4601    4.3555 H   0  0  0  0  0  0  0  0  0  0  0  0
   -4.0954   -2.4137    2.7340 H   0  0  0  0  0  0  0  0  0  0  0  0
   -5.6323   -1.8556    2.0273 H   0  0  0  0  0  0  0  0  0  0  0  0
   -7.4091   -0.5043    2.5446 H   0  0  0  0  0  0  0  0  0  0  0  0
   -8.2330    0.4836    3.7841 H   0  0  0  0  0  0  0  0  0  0  0  0
   -8.1896   -1.2974    3.9414 H   0  0  0  0  0  0  0  0  0  0  0  0
    4.9629   -0.0162   -0.3326 H   0  0  0  0  0  0  0  0  0  0  0  0
   -0.0658    0.4601   -2.0692 H   0  0  0  0  0  0  0  0  0  0  0  0
   -1.6378    0.5326   -1.2496 H   0  0  0  0  0  0  0  0  0  0  0  0
   -0.0341   -2.0816   -1.8099 H   0  0  0  0  0  0  0  0  0  0  0  0
   -1.4654   -1.5432   -2.6952 H   0  0  0  0  0  0  0  0  0  0  0  0
   -1.6015   -2.0297   -1.0002 H   0  0  0  0  0  0  0  0  0  0  0  0
  1 11  1  0  0  0  0
  2  1  1  0  0  0  0
  2  3  2  0  0  0  0
  3  4  1  0  0  0  0
  4  5  2  0  0  0  0
  6  4  1  0  0  0  0
  6  7  2  0  0  0  0
  7 27  1  0  0  0  0
  8  7  1  0  0  0  0
  8 20  1  0  0  0  0
  9  8  2  0  0  0  0
 10  9  1  0  0  0  0
 11 10  2  0  0  0  0
 11  6  1  0  0  0  0
 12  9  1  0  0  0  0
 12 13  1  0  0  0  0
 12 18  1  0  0  0  0
 13 14  1  0  0  0  0
 14 31  1  0  0  0  0
 14 15  1  0  0  0  0
 14 32  1  0  0  0  0
 15 16  1  0  0  0  0
 17 34  1  0  0  0  0
 17 15  1  0  0  0  0
 17 33  1  0  0  0  0
 18 17  1  0  0  0  0
 19 38  1  0  0  0  0
 19 39  1  0  0  0  0
 19 15  1  0  0  0  0
 21  3  1  0  0  0  0
 21 22  2  0  0  0  0
 23 21  1  0  0  0  0
 24 42  1  0  0  0  0
 24  1  1  0  0  0  0
 25 24  1  0  0  0  0
 25 45  1  0  0  0  0
 26  2  1  0  0  0  0
 28 10  1  0  0  0  0
 29 13  1  0  0  0  0
 30 13  1  0  0  0  0
 35 18  1  0  0  0  0
 36 18  1  0  0  0  0
 37 19  1  0  0  0  0
 40 23  1  0  0  0  0
 41 24  1  0  0  0  0
 43 25  1  0  0  0  0
 44 25  1  0  0  0  0
M  END
$$$$
