rmsd114.gzmat
 OpenBabel08211713363D

 45 47  0  0  0  0  0  0  0  0999 V2000
    0.0000    0.0000    0.0000 N   0  0  0  0  0  0  0  0  0  0  0  0
    1.3761    0.0000    0.0000 C   0  0  0  0  0  0  0  0  0  0  0  0
    2.1161    0.0000    1.1478 C   0  0  0  0  0  0  0  0  0  0  0  0
    1.4923   -0.0652    2.4604 C   0  0  0  0  0  0  0  0  0  0  0  0
    2.0756   -0.1344    3.5132 O   0  0  0  0  0  0  0  0  0  0  0  0
    0.0007   -0.0671    2.4229 C   0  0  0  0  0  0  0  0  0  0  0  0
   -0.6824   -0.0907    3.6370 C   0  0  0  0  0  0  0  0  0  0  0  0
   -2.0689   -0.1198    3.6300 C   0  0  0  0  0  0  0  0  0  0  0  0
   -2.8093   -0.1277    2.4361 C   0  0  0  0  0  0  0  0  0  0  0  0
   -2.1186   -0.0972    1.2268 C   0  0  0  0  0  0  0  0  0  0  0  0
   -0.7090   -0.0604    1.2050 C   0  0  0  0  0  0  0  0  0  0  0  0
   -4.2403   -0.1703    2.3098 N   0  0  0  0  0  0  0  0  0  0  0  0
   -4.9671    1.0124    2.7648 C   0  0  0  0  0  0  0  0  0  0  0  0
   -5.5420    0.9514    4.1963 C   0  0  0  0  0  0  0  0  0  0  0  0
   -6.2731   -0.3470    4.4729 N   0  0  0  0  0  0  0  0  0  0  0  0
   -6.4662   -0.3968    5.5095 H   0  0  0  0  0  0  0  0  0  0  0  0
   -5.4197   -1.5422    4.0987 C   0  0  0  0  0  0  0  0  0  0  0  0
   -4.8704   -1.4410    2.6602 C   0  0  0  0  0  0  0  0  0  0  0  0
   -7.5870   -0.3827    3.7452 C   0  0  0  0  0  0  0  0  0  0  0  0
   -2.6971   -0.1460    4.7965 F   0  0  0  0  0  0  0  0  0  0  0  0
    3.5755    0.0581    1.0875 C   0  0  0  0  0  0  0  0  0  0  0  0
    4.3785    0.3648    1.9214 O   0  0  0  0  0  0  0  0  0  0  0  0
    3.9918   -0.2913   -0.1740 O   0  0  0  0  0  0  0  0  0  0  0  0
   -0.6979   -0.0756   -1.2993 C   0  0  0  0  0  0  0  0  0  0  0  0
   -1.0372   -1.5199   -1.6597 C   0  0  0  0  0  0  0  0  0  0  0  0
    1.8624    0.0179   -0.9955 H   0  0  0  0  0  0  0  0  0  0  0  0
   -0.1113   -0.0888    4.5808 H   0  0  0  0  0  0  0  0  0  0  0  0
   -2.6960   -0.1043    0.2999 H   0  0  0  0  0  0  0  0  0  0  0  0
   -5.7951    1.1799    2.0293 H   0  0  0  0  0  0  0  0  0  0  0  0
   -4.3076    1.9144    2.6793 H   0  0  0  0  0  0  0  0  0  0  0  0
   -6.2403    1.8082    4.3522 H   0  0  0  0  0  0  0  0  0  0  0  0
   -4.7370    1.0789    4.9559 H   0  0  0  0  0  0  0  0  0  0  0  0
   -4.5872   -1.6348    4.8340 H   0  0  0  0  0  0  0  0  0  0  0  0
   -6.0232   -2.4744    4.2053 H   0  0  0  0  0  0  0  0  0  0  0  0
   -4.1468   -2.2796    2.4900 H   0  0  0  0  0  0  0  0  0  0  0  0
   -5.6941   -1.6067    1.9207 H   0  0  0  0  0  0  0  0  0  0  0  0
   -7.4471   -0.3441    2.6477 H   0  0  0  0  0  0  0  0  0  0  0  0
   -8.2233    0.4771    4.0298 H   0  0  0  0  0  0  0  0  0  0  0  0
   -8.1471   -1.3082    3.9789 H   0  0  0  0  0  0  0  0  0  0  0  0
    4.9745   -0.2777   -0.2762 H   0  0  0  0  0  0  0  0  0  0  0  0
   -0.0478    0.3804   -2.0861 H   0  0  0  0  0  0  0  0  0  0  0  0
   -1.6141    0.5581   -1.2688 H   0  0  0  0  0  0  0  0  0  0  0  0
   -0.1367   -2.1470   -1.7322 H   0  0  0  0  0  0  0  0  0  0  0  0
   -1.5480   -1.5749   -2.6307 H   0  0  0  0  0  0  0  0  0  0  0  0
   -1.6938   -1.9912   -0.9186 H   0  0  0  0  0  0  0  0  0  0  0  0
  1 11  1  0  0  0  0
  2  1  1  0  0  0  0
  2  3  2  0  0  0  0
  3  4  1  0  0  0  0
  4  5  2  0  0  0  0
  6  4  1  0  0  0  0
  6  7  2  0  0  0  0
  7 27  1  0  0  0  0
  8  7  1  0  0  0  0
  8 20  1  0  0  0  0
  9  8  2  0  0  0  0
 10  9  1  0  0  0  0
 11 10  2  0  0  0  0
 11  6  1  0  0  0  0
 12  9  1  0  0  0  0
 12 18  1  0  0  0  0
 12 13  1  0  0  0  0
 13 14  1  0  0  0  0
 14 31  1  0  0  0  0
 14 15  1  0  0  0  0
 14 32  1  0  0  0  0
 15 16  1  0  0  0  0
 17 34  1  0  0  0  0
 17 15  1  0  0  0  0
 17 33  1  0  0  0  0
 18 17  1  0  0  0  0
 19 39  1  0  0  0  0
 19 38  1  0  0  0  0
 19 15  1  0  0  0  0
 21  3  1  0  0  0  0
 21 22  2  0  0  0  0
 23 21  1  0  0  0  0
 24 42  1  0  0  0  0
 24  1  1  0  0  0  0
 25 24  1  0  0  0  0
 25 45  1  0  0  0  0
 26  2  1  0  0  0  0
 28 10  1  0  0  0  0
 29 13  1  0  0  0  0
 30 13  1  0  0  0  0
 35 18  1  0  0  0  0
 36 18  1  0  0  0  0
 37 19  1  0  0  0  0
 40 23  1  0  0  0  0
 41 24  1  0  0  0  0
 43 25  1  0  0  0  0
 44 25  1  0  0  0  0
M  END
$$$$
