rmsd107.gzmat
 OpenBabel08211713363D

 45 47  0  0  0  0  0  0  0  0999 V2000
    0.0000    0.0000    0.0000 N   0  0  0  0  0  0  0  0  0  0  0  0
    1.3756    0.0000    0.0000 C   0  0  0  0  0  0  0  0  0  0  0  0
    2.1181    0.0000    1.1468 C   0  0  0  0  0  0  0  0  0  0  0  0
    1.4921    0.0100    2.4605 C   0  0  0  0  0  0  0  0  0  0  0  0
    2.0695   -0.0371    3.5174 O   0  0  0  0  0  0  0  0  0  0  0  0
    0.0013    0.0817    2.4214 C   0  0  0  0  0  0  0  0  0  0  0  0
   -0.6796    0.1462    3.6353 C   0  0  0  0  0  0  0  0  0  0  0  0
   -2.0649    0.2130    3.6286 C   0  0  0  0  0  0  0  0  0  0  0  0
   -2.8054    0.2238    2.4347 C   0  0  0  0  0  0  0  0  0  0  0  0
   -2.1164    0.1616    1.2251 C   0  0  0  0  0  0  0  0  0  0  0  0
   -0.7085    0.0859    1.2041 C   0  0  0  0  0  0  0  0  0  0  0  0
   -4.2352    0.2961    2.3091 N   0  0  0  0  0  0  0  0  0  0  0  0
   -4.8691    1.5280    2.7731 C   0  0  0  0  0  0  0  0  0  0  0  0
   -5.4643    1.5004    4.1981 C   0  0  0  0  0  0  0  0  0  0  0  0
   -6.2872    0.2551    4.4598 N   0  0  0  0  0  0  0  0  0  0  0  0
   -6.4969    0.2129    5.4936 H   0  0  0  0  0  0  0  0  0  0  0  0
   -5.5117   -0.9931    4.0887 C   0  0  0  0  0  0  0  0  0  0  0  0
   -4.9601   -0.9261    2.6496 C   0  0  0  0  0  0  0  0  0  0  0  0
   -7.5910    0.3144    3.7158 C   0  0  0  0  0  0  0  0  0  0  0  0
   -2.6919    0.2662    4.7947 F   0  0  0  0  0  0  0  0  0  0  0  0
    3.5779   -0.0103    1.0834 C   0  0  0  0  0  0  0  0  0  0  0  0
    4.3991    0.0597    1.9522 O   0  0  0  0  0  0  0  0  0  0  0  0
    3.9775   -0.1071   -0.2284 O   0  0  0  0  0  0  0  0  0  0  0  0
   -0.6935    0.0742   -1.3021 C   0  0  0  0  0  0  0  0  0  0  0  0
   -1.0019    1.5214   -1.6787 C   0  0  0  0  0  0  0  0  0  0  0  0
    1.8598   -0.0158   -0.9971 H   0  0  0  0  0  0  0  0  0  0  0  0
   -0.1073    0.1413    4.5785 H   0  0  0  0  0  0  0  0  0  0  0  0
   -2.6922    0.1781    0.2978 H   0  0  0  0  0  0  0  0  0  0  0  0
   -5.6731    1.7695    2.0312 H   0  0  0  0  0  0  0  0  0  0  0  0
   -4.1382    2.3751    2.7059 H   0  0  0  0  0  0  0  0  0  0  0  0
   -6.1021    2.4036    4.3498 H   0  0  0  0  0  0  0  0  0  0  0  0
   -4.6621    1.5683    4.9678 H   0  0  0  0  0  0  0  0  0  0  0  0
   -4.6848   -1.1349    4.8230 H   0  0  0  0  0  0  0  0  0  0  0  0
   -6.1719   -1.8854    4.1972 H   0  0  0  0  0  0  0  0  0  0  0  0
   -4.3030   -1.8162    2.4708 H   0  0  0  0  0  0  0  0  0  0  0  0
   -5.7956   -1.0230    1.9110 H   0  0  0  0  0  0  0  0  0  0  0  0
   -7.4346    0.3850    2.6220 H   0  0  0  0  0  0  0  0  0  0  0  0
   -8.1852    1.1958    4.0241 H   0  0  0  0  0  0  0  0  0  0  0  0
   -8.2017   -0.5886    3.9076 H   0  0  0  0  0  0  0  0  0  0  0  0
    4.9591   -0.1170   -0.3353 H   0  0  0  0  0  0  0  0  0  0  0  0
   -1.6206   -0.5424   -1.2678 H   0  0  0  0  0  0  0  0  0  0  0  0
   -0.0503   -0.4032   -2.0823 H   0  0  0  0  0  0  0  0  0  0  0  0
   -1.6789    2.0034   -0.9630 H   0  0  0  0  0  0  0  0  0  0  0  0
   -1.4751    1.5795   -2.6682 H   0  0  0  0  0  0  0  0  0  0  0  0
   -0.0915    2.1368   -1.7214 H   0  0  0  0  0  0  0  0  0  0  0  0
  1 11  1  0  0  0  0
  2  1  1  0  0  0  0
  2  3  2  0  0  0  0
  3  4  1  0  0  0  0
  4  5  2  0  0  0  0
  6  4  1  0  0  0  0
  6  7  2  0  0  0  0
  7 27  1  0  0  0  0
  8  7  1  0  0  0  0
  8 20  1  0  0  0  0
  9  8  2  0  0  0  0
 10  9  1  0  0  0  0
 11 10  2  0  0  0  0
 11  6  1  0  0  0  0
 12  9  1  0  0  0  0
 12 18  1  0  0  0  0
 12 13  1  0  0  0  0
 13 14  1  0  0  0  0
 14 31  1  0  0  0  0
 14 15  1  0  0  0  0
 14 32  1  0  0  0  0
 15 16  1  0  0  0  0
 17 34  1  0  0  0  0
 17 15  1  0  0  0  0
 17 33  1  0  0  0  0
 18 17  1  0  0  0  0
 19 39  1  0  0  0  0
 19 38  1  0  0  0  0
 19 15  1  0  0  0  0
 21  3  1  0  0  0  0
 21 22  2  0  0  0  0
 23 21  1  0  0  0  0
 24 41  1  0  0  0  0
 24  1  1  0  0  0  0
 25 24  1  0  0  0  0
 25 43  1  0  0  0  0
 26  2  1  0  0  0  0
 28 10  1  0  0  0  0
 29 13  1  0  0  0  0
 30 13  1  0  0  0  0
 35 18  1  0  0  0  0
 36 18  1  0  0  0  0
 37 19  1  0  0  0  0
 40 23  1  0  0  0  0
 42 24  1  0  0  0  0
 44 25  1  0  0  0  0
 45 25  1  0  0  0  0
M  END
$$$$
