45
rmsd105.gzmat
N          0.00000        0.00000        0.00000
C          1.37610        0.00000        0.00000
C          2.11780        0.00000        1.14700
C          1.49310       -0.04000        2.46050
O          2.07350       -0.06210        3.51690
C          0.00120       -0.06950        2.42180
C         -0.68040       -0.10040        3.63680
C         -2.06650       -0.14670        3.63170
C         -2.80600       -0.17900        2.43760
C         -2.11690       -0.14350        1.22710
C         -0.70890       -0.07600        1.20440
N         -4.23530       -0.25710        2.31350
C         -4.95850        0.98320        2.58610
C         -5.52370        1.11830        4.01480
N         -6.32250       -0.10370        4.42090
H         -6.56360       -0.01170        5.44430
C         -5.49740       -1.36240        4.24400
C         -4.86910       -1.46520        2.83630
C         -7.60300       -0.19190        3.64030
F         -2.69660       -0.16090        4.79700
C          3.57770        0.03080        1.08520
O          4.39250        0.21890        1.94230
O          3.98350       -0.19620       -0.20830
C         -0.69170       -0.08130       -1.30270
C         -0.95270       -1.53340       -1.69560
H          1.86060        0.01690       -0.99680
H         -0.10620       -0.08760        4.57900
H         -2.69380       -0.17730        0.30070
H         -5.78540        1.04880        1.83450
H         -4.29540        1.86110        2.37290
H         -6.16960        2.02460        4.08390
H         -4.70120        1.27150        4.75210
H         -4.71530       -1.39070        5.03680
H         -6.14050       -2.25590        4.42760
H         -4.13140       -2.30920        2.83280
H         -5.65390       -1.75720        2.09240
H         -7.41460       -0.35310        2.56110
H         -8.19610        0.73740        3.73960
H         -8.22800       -1.03280        3.99730
H          4.96570       -0.19380       -0.31380
H         -0.06420        0.42610       -2.07680
H         -1.63930        0.50280       -1.26160
H         -0.02150       -2.11560       -1.75770
H         -1.43700       -1.59600       -2.67960
H         -1.60250       -2.04820       -0.97760
