rmsd39.gzmat
 OpenBabel08211713433D

 42 42  0  0  1  0  0  0  0  0999 V2000
    0.0000    0.0000    0.0000 C   0  0  1  0  0  0  0  0  0  0  0  0
    1.1065    0.0000    0.0000 H   0  0  0  0  0  0  0  0  0  0  0  0
   -0.3330    0.0000   -1.3630 O   0  0  0  0  0  0  0  0  0  0  0  0
   -0.6142    1.2539    0.6825 C   0  0  2  0  0  0  0  0  0  0  0  0
   -0.9033    2.0312   -0.0482 H   0  0  0  0  0  0  0  0  0  0  0  0
    0.3132    1.7892    1.6048 O   0  0  0  0  0  0  0  0  0  0  0  0
   -1.7882    0.7340    1.5365 C   0  0  0  0  0  0  0  0  0  0  0  0
   -1.9595   -0.6948    1.1562 N   0  0  0  0  0  0  0  0  0  0  0  0
   -0.6380   -1.2112    0.7250 C   0  0  2  0  0  0  0  0  0  0  0  0
   -0.8317   -2.0418   -0.0036 H   0  0  0  0  0  0  0  0  0  0  0  0
    0.2846   -1.7378    1.8436 C   0  0  0  0  0  0  0  0  0  0  0  0
    0.3262   -0.8819    2.9571 O   0  0  0  0  0  0  0  0  0  0  0  0
   -2.6122   -1.5054    2.1992 C   0  0  0  0  0  0  0  0  0  0  0  0
   -4.1355   -1.2923    2.0614 C   0  0  2  0  0  0  0  0  0  0  0  0
   -4.4127   -0.2209    2.1558 H   0  0  0  0  0  0  0  0  0  0  0  0
   -4.6920   -2.0053    3.1474 O   0  0  0  0  0  0  0  0  0  0  0  0
   -4.6562   -1.8964    0.7408 C   0  0  1  0  0  0  0  0  0  0  0  0
   -4.0324   -1.5581   -0.1218 H   0  0  0  0  0  0  0  0  0  0  0  0
   -4.5142   -3.2962    0.7311 O   0  0  0  0  0  0  0  0  0  0  0  0
   -6.1474   -1.5743    0.5143 C   0  0  2  0  0  0  0  0  0  0  0  0
   -6.3278   -0.4787    0.4155 H   0  0  0  0  0  0  0  0  0  0  0  0
   -6.9193   -1.9277    1.6398 O   0  0  0  0  0  0  0  0  0  0  0  0
   -6.6703   -2.3309   -0.7270 C   0  0  2  0  0  0  0  0  0  0  0  0
   -6.1332   -2.0562   -1.6654 H   0  0  0  0  0  0  0  0  0  0  0  0
   -8.0035   -1.9865   -0.9815 O   0  0  0  0  0  0  0  0  0  0  0  0
   -6.6166   -3.8339   -0.4591 C   0  0  0  0  0  0  0  0  0  0  0  0
   -7.0055   -4.3871    0.5451 O   0  0  0  0  0  0  0  0  0  0  0  0
   -6.1240   -4.5087   -1.5094 O   0  0  0  0  0  0  0  0  0  0  0  0
   -1.2904   -0.1937   -1.4817 H   0  0  0  0  0  0  0  0  0  0  0  0
    1.0393    2.2582    1.1488 H   0  0  0  0  0  0  0  0  0  0  0  0
   -1.5767    0.8876    2.6190 H   0  0  0  0  0  0  0  0  0  0  0  0
   -2.7323    1.2651    1.3068 H   0  0  0  0  0  0  0  0  0  0  0  0
    1.3131   -1.8993    1.4726 H   0  0  0  0  0  0  0  0  0  0  0  0
   -0.0915   -2.6857    2.2755 H   0  0  0  0  0  0  0  0  0  0  0  0
    0.5206    0.0445    2.6851 H   0  0  0  0  0  0  0  0  0  0  0  0
   -2.2833   -1.2617    3.2346 H   0  0  0  0  0  0  0  0  0  0  0  0
   -2.3807   -2.5839    2.0484 H   0  0  0  0  0  0  0  0  0  0  0  0
   -5.6776   -1.9710    3.0755 H   0  0  0  0  0  0  0  0  0  0  0  0
   -4.6412   -3.6611    1.6425 H   0  0  0  0  0  0  0  0  0  0  0  0
   -7.0631   -2.9139    1.6670 H   0  0  0  0  0  0  0  0  0  0  0  0
   -8.5247   -1.9705   -0.1386 H   0  0  0  0  0  0  0  0  0  0  0  0
   -6.0550   -5.4888   -1.3575 H   0  0  0  0  0  0  0  0  0  0  0  0
  1  2  1  1  0  0  0
  1  4  1  0  0  0  0
  3  1  1  0  0  0  0
  4  5  1  6  0  0  0
  4  7  1  0  0  0  0
  4  6  1  0  0  0  0
  7 31  1  0  0  0  0
  8  7  1  0  0  0  0
  8 13  1  0  0  0  0
  9  1  1  0  0  0  0
  9  8  1  0  0  0  0
  9 11  1  0  0  0  0
  9 10  1  6  0  0  0
 11 34  1  0  0  0  0
 11 12  1  0  0  0  0
 13 36  1  0  0  0  0
 14 15  1  1  0  0  0
 14 13  1  0  0  0  0
 14 16  1  0  0  0  0
 17 18  1  6  0  0  0
 17 14  1  0  0  0  0
 19 17  1  0  0  0  0
 19 39  1  0  0  0  0
 20 21  1  6  0  0  0
 20 17  1  0  0  0  0
 20 22  1  0  0  0  0
 22 40  1  0  0  0  0
 23 24  1  6  0  0  0
 23 26  1  0  0  0  0
 23 20  1  0  0  0  0
 25 23  1  0  0  0  0
 25 41  1  0  0  0  0
 26 27  2  0  0  0  0
 28 42  1  0  0  0  0
 28 26  1  0  0  0  0
 29  3  1  0  0  0  0
 30  6  1  0  0  0  0
 32  7  1  0  0  0  0
 33 11  1  0  0  0  0
 35 12  1  0  0  0  0
 37 13  1  0  0  0  0
 38 16  1  0  0  0  0
M  END
$$$$
