42
rmsd68.gzmat
C          0.00000        0.00000        0.00000
H          1.10790        0.00000        0.00000
O         -0.32530        0.00000       -1.36150
C         -0.60010        1.25930        0.68550
H         -0.95800        2.00710       -0.04670
O          0.37530        1.84140        1.52750
C         -1.70020        0.74150        1.63410
N         -1.92020       -0.67770        1.23950
C         -0.62610       -1.20870        0.74010
H         -0.86420       -2.03700        0.02150
C          0.34410       -1.76190        1.80250
O          0.50100       -0.89370        2.89940
C         -2.54460       -1.47260        2.31180
C         -3.16170       -2.76340        1.73580
H         -3.88790       -3.19790        2.46160
O         -2.08890       -3.67900        1.62280
C         -3.81040       -2.59610        0.34360
H         -3.02420       -2.42020       -0.43170
O         -4.33420       -3.84610       -0.03550
C         -4.90970       -1.51160        0.33010
H         -5.12520       -1.10850        1.34960
O         -6.14900       -2.06090       -0.03460
C         -4.55260       -0.34530       -0.61560
H         -3.62370        0.18970       -0.28410
O         -5.54820        0.63570       -0.57820
C         -4.43780       -0.84780       -2.04600
O         -5.32130       -1.20520       -2.77650
O         -3.13940       -0.88540       -2.43090
H         -1.27990       -0.20150       -1.49970
H          1.03750        2.34220        1.01220
H         -1.38370        0.86900        2.69320
H         -2.65320        1.29120        1.50560
H          1.33700       -1.97430        1.36790
H         -0.04760       -2.69020        2.27020
H          0.69420        0.02320        2.60190
H         -3.34240       -0.86430        2.79170
H         -1.83060       -1.74900        3.12650
H         -2.35880       -4.44460        1.06700
H         -5.18210       -4.03390        0.43060
H         -6.14160       -2.38950       -0.96790
H         -6.44420        0.21510       -0.64400
H         -3.00000       -1.16380       -3.37160
