42

C         -0.33270        0.22630       -0.07140
H          0.66840        0.14680       -0.52430
O         -1.22550        0.63090       -1.08850
C         -0.35810        1.22360        1.10540
H         -0.48250        2.25090        0.71920
O          0.79150        1.11250        1.92820
C         -1.57100        0.75370        1.92240
N         -1.93920       -0.55360        1.36360
C         -0.81420       -1.07790        0.57550
H         -1.18770       -1.73350       -0.22710
C          0.25270       -1.88130        1.33480
O         -0.17880       -3.20100        1.60980
C         -2.74380       -1.40830        2.22020
C         -4.23340       -1.45950        1.82060
H         -4.40450       -0.59560        1.13860
O         -5.01160       -1.34060        2.99300
C         -4.67470       -2.71970        1.07130
H         -4.65550       -3.55780        1.78330
O         -6.05640       -2.59040        0.72300
C         -3.82390       -3.07500       -0.18130
H         -3.22830       -2.19880       -0.48420
O         -4.64070       -3.43630       -1.27370
C         -2.80480       -4.20090        0.12850
H         -2.52990       -4.16310        1.19590
O         -1.62950       -4.08530       -0.64000
C         -3.42650       -5.56020       -0.15110
O         -2.97410       -6.32530       -0.96690
O         -4.50340       -5.81490        0.59840
H         -2.11200        0.45560       -0.73470
H          1.56030        1.38670        1.41070
H         -1.26980        0.69260        2.98510
H         -2.41870        1.45780        1.86310
H          0.49460       -1.40120        2.29320
H          1.18620       -1.88590        0.73450
H         -0.39760       -3.62070        0.75830
H         -2.73540       -1.02350        3.25350
H         -2.29940       -2.41110        2.27360
H         -5.91900       -1.58220        2.75490
H         -6.14910       -1.78750        0.18580
H         -5.52700       -3.58710       -0.90510
H         -1.62360       -4.84550       -1.25100
H         -4.84380       -6.68920        0.33930
