42

C         -0.16600       -0.18480       -0.39930
H          0.90680       -0.37570       -0.58140
O         -0.83200       -0.05800       -1.65200
C         -0.36570        1.13190        0.37770
H         -0.53800        1.95810       -0.33120
O          0.75190        1.43330        1.20970
C         -1.58750        0.86260        1.27070
N         -1.94610       -0.55030        1.07210
C         -0.76960       -1.24850        0.53410
H         -1.08350       -2.12460       -0.06250
C          0.22020       -1.78390        1.59330
O          0.49720       -0.89160        2.64240
C         -2.66470       -1.09620        2.21920
C         -3.29900       -2.47700        2.06160
H         -4.12530       -2.53610        2.79990
O         -2.32860       -3.46460        2.36470
C         -3.88870       -2.82410        0.69350
H         -3.08110       -2.76220       -0.05340
O         -4.31550       -4.17610        0.82630
C         -5.08310       -2.01800        0.17160
H         -5.90530       -2.08770        0.90130
O         -5.55590       -2.67550       -1.01310
C         -4.89310       -0.53420       -0.17380
H         -4.68090        0.06280        0.72290
O         -6.08300       -0.03210       -0.74310
C         -3.73370       -0.34640       -1.15010
O         -3.30040       -1.25910       -1.84960
O         -3.28910        0.89290       -1.23340
H         -1.33270       -0.86690       -1.86230
H          1.49960        1.67960        0.64800
H         -1.29900        1.07590        2.31460
H         -2.43800        1.50970        1.00620
H          1.13810       -2.11930        1.06320
H         -0.23930       -2.67040        2.04700
H          0.83850       -0.05840        2.27260
H         -3.47110       -0.38070        2.44630
H         -2.02150       -1.13850        3.11890
H         -2.72590       -4.31090        2.10500
H         -4.84940       -4.37060        0.04060
H         -4.83570       -2.55410       -1.66190
H         -6.43250       -0.75740       -1.28800
H         -2.39880        0.84150       -1.66650
