rmsd68.gzmat
 OpenBabel08211713433D

 42 42  0  0  1  0  0  0  0  0999 V2000
    0.0000    0.0000    0.0000 C   0  0  1  0  0  0  0  0  0  0  0  0
    1.1079    0.0000    0.0000 H   0  0  0  0  0  0  0  0  0  0  0  0
   -0.3253    0.0000   -1.3615 O   0  0  0  0  0  0  0  0  0  0  0  0
   -0.6001    1.2593    0.6855 C   0  0  2  0  0  0  0  0  0  0  0  0
   -0.9580    2.0071   -0.0467 H   0  0  0  0  0  0  0  0  0  0  0  0
    0.3753    1.8414    1.5275 O   0  0  0  0  0  0  0  0  0  0  0  0
   -1.7002    0.7415    1.6341 C   0  0  0  0  0  0  0  0  0  0  0  0
   -1.9202   -0.6777    1.2395 N   0  0  0  0  0  0  0  0  0  0  0  0
   -0.6261   -1.2087    0.7401 C   0  0  2  0  0  0  0  0  0  0  0  0
   -0.8642   -2.0370    0.0215 H   0  0  0  0  0  0  0  0  0  0  0  0
    0.3441   -1.7619    1.8025 C   0  0  0  0  0  0  0  0  0  0  0  0
    0.5010   -0.8937    2.8994 O   0  0  0  0  0  0  0  0  0  0  0  0
   -2.5446   -1.4726    2.3118 C   0  0  0  0  0  0  0  0  0  0  0  0
   -3.1617   -2.7634    1.7358 C   0  0  2  0  0  0  0  0  0  0  0  0
   -3.8879   -3.1979    2.4616 H   0  0  0  0  0  0  0  0  0  0  0  0
   -2.0889   -3.6790    1.6228 O   0  0  0  0  0  0  0  0  0  0  0  0
   -3.8104   -2.5961    0.3436 C   0  0  1  0  0  0  0  0  0  0  0  0
   -3.0242   -2.4202   -0.4317 H   0  0  0  0  0  0  0  0  0  0  0  0
   -4.3342   -3.8461   -0.0355 O   0  0  0  0  0  0  0  0  0  0  0  0
   -4.9097   -1.5116    0.3301 C   0  0  2  0  0  0  0  0  0  0  0  0
   -5.1252   -1.1085    1.3496 H   0  0  0  0  0  0  0  0  0  0  0  0
   -6.1490   -2.0609   -0.0346 O   0  0  0  0  0  0  0  0  0  0  0  0
   -4.5526   -0.3453   -0.6156 C   0  0  2  0  0  0  0  0  0  0  0  0
   -3.6237    0.1897   -0.2841 H   0  0  0  0  0  0  0  0  0  0  0  0
   -5.5482    0.6357   -0.5782 O   0  0  0  0  0  0  0  0  0  0  0  0
   -4.4378   -0.8478   -2.0460 C   0  0  0  0  0  0  0  0  0  0  0  0
   -5.3213   -1.2052   -2.7765 O   0  0  0  0  0  0  0  0  0  0  0  0
   -3.1394   -0.8854   -2.4309 O   0  0  0  0  0  0  0  0  0  0  0  0
   -1.2799   -0.2015   -1.4997 H   0  0  0  0  0  0  0  0  0  0  0  0
    1.0375    2.3422    1.0122 H   0  0  0  0  0  0  0  0  0  0  0  0
   -1.3837    0.8690    2.6932 H   0  0  0  0  0  0  0  0  0  0  0  0
   -2.6532    1.2912    1.5056 H   0  0  0  0  0  0  0  0  0  0  0  0
    1.3370   -1.9743    1.3679 H   0  0  0  0  0  0  0  0  0  0  0  0
   -0.0476   -2.6902    2.2702 H   0  0  0  0  0  0  0  0  0  0  0  0
    0.6942    0.0232    2.6019 H   0  0  0  0  0  0  0  0  0  0  0  0
   -3.3424   -0.8643    2.7917 H   0  0  0  0  0  0  0  0  0  0  0  0
   -1.8306   -1.7490    3.1265 H   0  0  0  0  0  0  0  0  0  0  0  0
   -2.3588   -4.4446    1.0670 H   0  0  0  0  0  0  0  0  0  0  0  0
   -5.1821   -4.0339    0.4306 H   0  0  0  0  0  0  0  0  0  0  0  0
   -6.1416   -2.3895   -0.9679 H   0  0  0  0  0  0  0  0  0  0  0  0
   -6.4442    0.2151   -0.6440 H   0  0  0  0  0  0  0  0  0  0  0  0
   -3.0000   -1.1638   -3.3716 H   0  0  0  0  0  0  0  0  0  0  0  0
  1  4  1  0  0  0  0
  1  2  1  1  0  0  0
  3  1  1  0  0  0  0
  4  5  1  6  0  0  0
  4  6  1  0  0  0  0
  4  7  1  0  0  0  0
  7 31  1  0  0  0  0
  8  7  1  0  0  0  0
  8 13  1  0  0  0  0
  9  1  1  0  0  0  0
  9  8  1  0  0  0  0
  9 11  1  0  0  0  0
  9 10  1  6  0  0  0
 11 34  1  0  0  0  0
 11 12  1  0  0  0  0
 13 36  1  0  0  0  0
 13 37  1  0  0  0  0
 14 13  1  0  0  0  0
 14 15  1  1  0  0  0
 16 14  1  0  0  0  0
 17 18  1  6  0  0  0
 17 14  1  0  0  0  0
 19 17  1  0  0  0  0
 19 39  1  0  0  0  0
 20 17  1  0  0  0  0
 20 21  1  1  0  0  0
 22 20  1  0  0  0  0
 23 25  1  0  0  0  0
 23 24  1  1  0  0  0
 23 20  1  0  0  0  0
 26 23  1  0  0  0  0
 27 26  2  0  0  0  0
 28 26  1  0  0  0  0
 29  3  1  0  0  0  0
 30  6  1  0  0  0  0
 32  7  1  0  0  0  0
 33 11  1  0  0  0  0
 35 12  1  0  0  0  0
 38 16  1  0  0  0  0
 40 22  1  0  0  0  0
 41 25  1  0  0  0  0
 42 28  1  0  0  0  0
M  END
$$$$
