42
rmsd42.gzmat
C          0.00000        0.00000        0.00000
H          1.10950        0.00000        0.00000
O         -0.33970        0.00000       -1.36160
C         -0.62720        1.24140        0.69380
H         -0.92440        2.01900       -0.03490
O          0.27280        1.79400        1.62810
C         -1.80140        0.70460        1.54130
N         -1.95030       -0.72180        1.15080
C         -0.61990       -1.21770        0.73030
H         -0.78240       -2.06800        0.02350
C          0.31830       -1.64780        1.87780
O          1.58000       -1.99500        1.35440
C         -2.63550       -1.55000        2.15470
C         -4.15360       -1.39880        1.90250
H         -4.47800       -0.33950        1.98290
O         -4.76100       -2.14190        2.93970
C         -4.55090       -2.00890        0.54290
H         -3.87010       -1.65000       -0.26690
O         -4.37220       -3.40380        0.53780
C         -6.02790       -1.71920        0.20670
H         -6.22740       -0.62590        0.11290
O         -6.87070       -2.10970        1.26750
C         -6.43660       -2.46250       -1.08400
H         -5.83060       -2.16150       -1.97170
O         -7.75010       -2.13420       -1.44090
C         -6.37900       -3.96960       -0.83950
O         -6.83060       -4.54670        0.12440
O         -5.80220       -4.61750       -1.86300
H         -1.29670       -0.18720       -1.47630
H          1.06600        2.15480        1.18400
H         -1.59050        0.85860        2.62210
H         -2.75080        1.22520        1.31190
H         -0.08660       -2.49130        2.46050
H          0.55150       -0.80280        2.55780
H          1.50740       -2.76120        0.74920
H         -2.40500       -1.27680        3.20670
H         -2.35480       -2.62060        2.03430
H         -5.73900       -2.14830        2.79160
H         -4.57510       -3.78020        1.42960
H         -7.00220       -3.09780        1.26170
H         -8.33990       -2.14430       -0.64450
H         -5.73790       -5.60100       -1.72880
