42

C         -0.60420       -0.24410       -0.19710
H          0.39790       -0.34140       -0.65860
O         -1.62090       -0.33310       -1.17080
C         -0.76640        1.11940        0.50870
H         -1.16320        1.85450       -0.20890
O          0.45890        1.58770        1.07140
C         -1.75720        0.82430        1.65320
N         -1.95940       -0.62320        1.60500
C         -0.82770       -1.25430        0.93610
H         -1.13630       -2.21790        0.49070
C          0.38590       -1.56240        1.83640
O          0.72300       -0.55160        2.74550
C         -2.61020       -1.28220        2.71310
C         -4.13690       -1.31550        2.55640
H         -4.55800       -0.32840        2.82760
O         -4.59890       -2.31970        3.44790
C         -4.60990       -1.57390        1.10740
H         -5.69720       -1.74710        1.15810
O         -4.46060       -0.42960        0.30270
C         -3.95670       -2.82620        0.42800
H         -3.09610       -3.18980        1.00430
O         -3.46450       -2.50950       -0.86130
C         -4.95830       -4.00030        0.30040
H         -4.42730       -4.81570       -0.22140
O         -6.08730       -3.61530       -0.43200
C         -5.36080       -4.47970        1.67940
O         -6.46150       -4.27000        2.14230
O         -4.37660       -5.10230        2.32390
H         -2.05210       -1.20810       -1.12330
H          1.05780        1.82440        0.35020
H         -1.31490        1.16320        2.60720
H         -2.71450        1.35350        1.51360
H          1.23480       -1.85710        1.18080
H          0.14230       -2.45350        2.43880
H          0.88220        0.27140        2.24730
H         -2.34390       -0.83330        3.68840
H         -2.26960       -2.32730        2.76280
H         -5.56590       -2.32350        3.44190
H         -3.49740       -0.28710        0.23710
H         -4.16250       -1.99030       -1.29480
H         -6.83410       -3.61960        0.19040
H         -4.65280       -5.22240        3.24910
