42
rmsd65.gzmat
C          0.00000        0.00000        0.00000
H          1.10900        0.00000        0.00000
O         -0.31890        0.00000       -1.36390
C         -0.59650        1.25270        0.70010
H         -0.93940        2.01560       -0.02370
O          0.38240        1.80020        1.56140
C         -1.70870        0.73520        1.63110
N         -1.90350       -0.69520        1.27120
C         -0.62710       -1.21960        0.72440
H         -0.88690       -2.01430       -0.02230
C          0.35570       -1.81150        1.75460
O          0.49330       -0.98720        2.88410
C         -2.51300       -1.49460        2.35040
C         -4.01360       -1.64700        1.98920
H         -4.48730       -0.64540        1.87990
O         -4.68760       -2.18710        3.09180
C         -4.15970       -2.51780        0.71540
H         -3.19550       -2.58450        0.15460
O         -4.41770       -3.83620        1.15860
C         -5.28700       -2.04510       -0.22240
H         -6.28660       -2.06280        0.27710
O         -5.43020       -3.02110       -1.23000
C         -5.00000       -0.68020       -0.88590
H         -5.44630       -0.65170       -1.91780
O         -3.64350       -0.47700       -1.11230
C         -5.55100        0.46280       -0.04910
O         -4.94390        1.32510        0.52430
O         -6.90240        0.38690       -0.00200
H         -1.28530       -0.12490       -1.50700
H          1.01350        2.36210        1.07160
H         -1.42730        0.89320        2.69680
H         -2.67240        1.26700        1.46790
H          1.35060       -1.99060        1.30730
H         -0.01270       -2.76530        2.18190
H          0.67690       -0.05570        2.61860
H         -2.41500       -1.02640        3.35480
H         -2.04770       -2.49670        2.44850
H         -4.67080       -3.17370        3.06080
H         -5.04140       -4.28820        0.54500
H         -4.63850       -3.03660       -1.81520
H         -3.11870       -0.40270       -0.25830
H         -7.32800        1.09140        0.54920
