42
rmsd173.gzmat
C          0.00000        0.00000        0.00000
H          1.10840        0.00000        0.00000
O         -0.32120        0.00000       -1.36190
C         -0.59700        1.26100        0.68490
H         -0.96560        2.00340       -0.04700
O          0.38700        1.84940        1.51240
C         -1.68340        0.74530        1.65000
N         -1.91040       -0.67450        1.26090
C         -0.62400       -1.20740        0.74410
H         -0.87280       -2.03250        0.02590
C          0.35770       -1.76430        1.79330
O          0.54140       -0.89050        2.88170
C         -2.52260       -1.46240        2.34580
C         -3.15110       -2.75660        1.79040
H         -3.89040       -3.16600        2.51740
O         -2.08940       -3.68850        1.70870
C         -3.78200       -2.61420        0.38760
H         -2.98310       -2.46980       -0.38130
O         -4.31840       -3.86670        0.03400
C         -4.86660       -1.51610        0.32990
H         -5.08770       -1.08080        1.33500
O         -6.10900       -2.06110       -0.03330
C         -4.48420       -0.38570       -0.64900
H         -3.55620        0.15250       -0.31960
O         -5.46980        0.60500       -0.66650
C         -4.35020       -0.94410       -2.05720
O         -5.22500       -1.31020       -2.79400
O         -3.04420       -1.02560       -2.40930
H         -1.27040       -0.21820       -1.50760
H          1.04140        2.35000        0.98720
H         -1.35050        0.87330        2.70420
H         -2.63810        1.29510        1.53650
H          1.34110       -1.98900        1.34330
H         -0.03480       -2.68620        2.27260
H          0.72850        0.02480        2.57580
H         -3.31320       -0.84810        2.83090
H         -1.79860       -1.73350        3.15360
H         -2.36310       -4.46140        1.16460
H         -5.18290       -4.02290        0.48100
H         -6.09960       -2.40500       -0.96120
H         -6.36940        0.19110       -0.73130
H         -2.88800       -1.35490       -3.33050
