rmsd114.gzmat
 OpenBabel08211713363D

 33 34  0  0  0  0  0  0  0  0999 V2000
    0.0000    0.0000    0.0000 N   0  0  0  0  0  0  0  0  0  0  0  0
    1.3858    0.0000    0.0000 C   0  0  0  0  0  0  0  0  0  0  0  0
    2.0885    0.0000    1.1718 C   0  0  0  0  0  0  0  0  0  0  0  0
    1.4145    0.0026    2.4435 C   0  0  0  0  0  0  0  0  0  0  0  0
    2.0834    0.0261    3.5998 N   0  0  0  0  0  0  0  0  0  0  0  0
    1.3918   -0.0020    4.8913 C   0  0  0  0  0  0  0  0  0  0  0  0
    3.5467    0.0874    3.6422 C   0  0  0  0  0  0  0  0  0  0  0  0
   -0.0242   -0.0166    2.3962 C   0  0  0  0  0  0  0  0  0  0  0  0
   -0.6896   -0.0140    1.2045 C   0  0  0  0  0  0  0  0  0  0  0  0
   -0.7753    0.0172   -1.2306 C   0  0  0  0  0  0  0  0  0  0  0  0
   -1.9678    0.0736   -1.2090 O   0  0  0  0  0  0  0  0  0  0  0  0
    0.0749   -0.0308   -2.2699 O   0  0  0  0  0  0  0  0  0  0  0  0
   -0.5126   -0.0496   -3.5501 C   0  0  0  0  0  0  0  0  0  0  0  0
   -1.3401    0.9824   -3.9695 C   0  0  0  0  0  0  0  0  0  0  0  0
   -1.7742    0.9532   -5.2952 C   0  0  0  0  0  0  0  0  0  0  0  0
   -1.3833   -0.0870   -6.1392 C   0  0  0  0  0  0  0  0  0  0  0  0
   -0.5542   -1.1096   -5.6750 C   0  0  0  0  0  0  0  0  0  0  0  0
   -0.1045   -1.1064   -4.3553 C   0  0  0  0  0  0  0  0  0  0  0  0
    1.8879    0.0017   -0.9868 H   0  0  0  0  0  0  0  0  0  0  0  0
    3.1802   -0.0068    1.1329 H   0  0  0  0  0  0  0  0  0  0  0  0
    0.6718   -0.8425    4.9495 H   0  0  0  0  0  0  0  0  0  0  0  0
    0.8484    0.9477    5.0724 H   0  0  0  0  0  0  0  0  0  0  0  0
    2.1042   -0.1391    5.7290 H   0  0  0  0  0  0  0  0  0  0  0  0
    3.9958   -0.8542    3.2672 H   0  0  0  0  0  0  0  0  0  0  0  0
    3.9158    0.2393    4.6761 H   0  0  0  0  0  0  0  0  0  0  0  0
    3.9343    0.9343    3.0415 H   0  0  0  0  0  0  0  0  0  0  0  0
   -0.6015   -0.0269    3.3237 H   0  0  0  0  0  0  0  0  0  0  0  0
   -1.7970   -0.0215    1.1400 H   0  0  0  0  0  0  0  0  0  0  0  0
   -1.6464    1.7794   -3.2957 H   0  0  0  0  0  0  0  0  0  0  0  0
   -2.4255    1.7461   -5.6699 H   0  0  0  0  0  0  0  0  0  0  0  0
   -1.7321   -0.1030   -7.1747 H   0  0  0  0  0  0  0  0  0  0  0  0
   -0.2592   -1.9197   -6.3457 H   0  0  0  0  0  0  0  0  0  0  0  0
    0.5414   -1.8927   -3.9719 H   0  0  0  0  0  0  0  0  0  0  0  0
  1  2  1  0  0  0  0
  1  9  1  0  0  0  0
  2  3  2  0  0  0  0
  3  4  1  0  0  0  0
  4  5  1  0  0  0  0
  5  7  1  0  0  0  0
  5  6  1  0  0  0  0
  6 21  1  0  0  0  0
  6 22  1  0  0  0  0
  6 23  1  0  0  0  0
  7 25  1  0  0  0  0
  8  4  2  0  0  0  0
  8 27  1  0  0  0  0
  9  8  1  0  0  0  0
 10 11  2  0  0  0  0
 10  1  1  0  0  0  0
 12 10  1  0  0  0  0
 13 12  1  0  0  0  0
 14 13  1  0  0  0  0
 14 29  1  0  0  0  0
 15 14  2  0  0  0  0
 16 17  2  0  0  0  0
 16 15  1  0  0  0  0
 17 18  1  0  0  0  0
 18 33  1  0  0  0  0
 18 13  2  0  0  0  0
 19  2  1  0  0  0  0
 20  3  1  0  0  0  0
 24  7  1  0  0  0  0
 26  7  1  0  0  0  0
 28  9  1  0  0  0  0
 30 15  1  0  0  0  0
 31 16  1  0  0  0  0
 32 17  1  0  0  0  0
M  END
$$$$
