rmsd198.gzmat
 OpenBabel08211713363D

 33 34  0  0  0  0  0  0  0  0999 V2000
    0.0000    0.0000    0.0000 N   0  0  0  0  0  0  0  0  0  0  0  0
    1.3884    0.0000    0.0000 C   0  0  0  0  0  0  0  0  0  0  0  0
    2.0914    0.0000    1.1700 C   0  0  0  0  0  0  0  0  0  0  0  0
    1.4164   -0.0060    2.4415 C   0  0  0  0  0  0  0  0  0  0  0  0
    2.0872   -0.0255    3.5968 N   0  0  0  0  0  0  0  0  0  0  0  0
    1.3957   -0.0557    4.8881 C   0  0  0  0  0  0  0  0  0  0  0  0
    3.5520   -0.0169    3.6354 C   0  0  0  0  0  0  0  0  0  0  0  0
   -0.0220    0.0057    2.3944 C   0  0  0  0  0  0  0  0  0  0  0  0
   -0.6889    0.0072    1.2022 C   0  0  0  0  0  0  0  0  0  0  0  0
   -0.6854   -0.0060   -1.2826 C   0  0  0  0  0  0  0  0  0  0  0  0
   -0.0802   -0.0859   -2.3084 O   0  0  0  0  0  0  0  0  0  0  0  0
   -2.0062    0.0805   -1.0530 O   0  0  0  0  0  0  0  0  0  0  0  0
   -2.8344    0.1575   -2.1886 C   0  0  0  0  0  0  0  0  0  0  0  0
   -2.7958   -0.8181   -3.1742 C   0  0  0  0  0  0  0  0  0  0  0  0
   -3.7369   -0.7245   -4.1998 C   0  0  0  0  0  0  0  0  0  0  0  0
   -4.6661    0.3166   -4.2099 C   0  0  0  0  0  0  0  0  0  0  0  0
   -4.6689    1.2792   -3.1988 C   0  0  0  0  0  0  0  0  0  0  0  0
   -3.7368    1.2147   -2.1642 C   0  0  0  0  0  0  0  0  0  0  0  0
    1.8828    0.0007   -0.9930 H   0  0  0  0  0  0  0  0  0  0  0  0
    3.1833    0.0002    1.1324 H   0  0  0  0  0  0  0  0  0  0  0  0
    0.6618   -0.8850    4.9342 H   0  0  0  0  0  0  0  0  0  0  0  0
    0.8676    0.9002    5.0796 H   0  0  0  0  0  0  0  0  0  0  0  0
    2.1050   -0.2133    5.7247 H   0  0  0  0  0  0  0  0  0  0  0  0
    3.9686   -0.9467    3.1976 H   0  0  0  0  0  0  0  0  0  0  0  0
    3.9298    0.0508    4.6744 H   0  0  0  0  0  0  0  0  0  0  0  0
    3.9651    0.8542    3.0882 H   0  0  0  0  0  0  0  0  0  0  0  0
   -0.5984    0.0163    3.3225 H   0  0  0  0  0  0  0  0  0  0  0  0
   -1.7950    0.0120    1.1482 H   0  0  0  0  0  0  0  0  0  0  0  0
   -2.0608   -1.6201   -3.1581 H   0  0  0  0  0  0  0  0  0  0  0  0
   -3.7422   -1.4698   -4.9982 H   0  0  0  0  0  0  0  0  0  0  0  0
   -5.3979    0.3805   -5.0190 H   0  0  0  0  0  0  0  0  0  0  0  0
   -5.3991    2.0907   -3.2163 H   0  0  0  0  0  0  0  0  0  0  0  0
   -3.7184    1.9566   -1.3696 H   0  0  0  0  0  0  0  0  0  0  0  0
  1  2  1  0  0  0  0
  1  9  1  0  0  0  0
  2  3  2  0  0  0  0
  3  4  1  0  0  0  0
  4  5  1  0  0  0  0
  5  7  1  0  0  0  0
  5  6  1  0  0  0  0
  6 21  1  0  0  0  0
  6 22  1  0  0  0  0
  6 23  1  0  0  0  0
  7 25  1  0  0  0  0
  8  4  2  0  0  0  0
  8 27  1  0  0  0  0
  9  8  1  0  0  0  0
 10 12  1  0  0  0  0
 10  1  1  0  0  0  0
 11 10  2  0  0  0  0
 13 18  1  0  0  0  0
 13 12  1  0  0  0  0
 14 29  1  0  0  0  0
 14 13  2  0  0  0  0
 15 14  1  0  0  0  0
 16 15  2  0  0  0  0
 16 17  1  0  0  0  0
 17 18  2  0  0  0  0
 18 33  1  0  0  0  0
 19  2  1  0  0  0  0
 20  3  1  0  0  0  0
 24  7  1  0  0  0  0
 26  7  1  0  0  0  0
 28  9  1  0  0  0  0
 30 15  1  0  0  0  0
 31 16  1  0  0  0  0
 32 17  1  0  0  0  0
M  END
$$$$
