rmsd233.gzmat
 OpenBabel08211713363D

 33 34  0  0  0  0  0  0  0  0999 V2000
    0.0000    0.0000    0.0000 N   0  0  0  0  0  0  0  0  0  0  0  0
    1.3856    0.0000    0.0000 C   0  0  0  0  0  0  0  0  0  0  0  0
    2.0886    0.0000    1.1714 C   0  0  0  0  0  0  0  0  0  0  0  0
    1.4147    0.0024    2.4431 C   0  0  0  0  0  0  0  0  0  0  0  0
    2.0836    0.0002    3.5997 N   0  0  0  0  0  0  0  0  0  0  0  0
    1.3869   -0.0119    4.8892 C   0  0  0  0  0  0  0  0  0  0  0  0
    3.5481   -0.0055    3.6414 C   0  0  0  0  0  0  0  0  0  0  0  0
   -0.0241    0.0083    2.3964 C   0  0  0  0  0  0  0  0  0  0  0  0
   -0.6900    0.0059    1.2049 C   0  0  0  0  0  0  0  0  0  0  0  0
   -0.7759   -0.0077   -1.2302 C   0  0  0  0  0  0  0  0  0  0  0  0
   -1.9697    0.0079   -1.2068 O   0  0  0  0  0  0  0  0  0  0  0  0
    0.0755   -0.0234   -2.2693 O   0  0  0  0  0  0  0  0  0  0  0  0
   -0.5055   -0.0923   -3.5502 C   0  0  0  0  0  0  0  0  0  0  0  0
   -1.4415    0.8436   -3.9661 C   0  0  0  0  0  0  0  0  0  0  0  0
   -1.8690    0.7718   -5.2924 C   0  0  0  0  0  0  0  0  0  0  0  0
   -1.3621   -0.2122   -6.1420 C   0  0  0  0  0  0  0  0  0  0  0  0
   -0.4243   -1.1380   -5.6814 C   0  0  0  0  0  0  0  0  0  0  0  0
    0.0189   -1.0928   -4.3602 C   0  0  0  0  0  0  0  0  0  0  0  0
    1.8880    0.0003   -0.9865 H   0  0  0  0  0  0  0  0  0  0  0  0
    3.1802   -0.0027    1.1322 H   0  0  0  0  0  0  0  0  0  0  0  0
    0.7351   -0.9035    4.9852 H   0  0  0  0  0  0  0  0  0  0  0  0
    0.7702    0.9008    5.0185 H   0  0  0  0  0  0  0  0  0  0  0  0
    2.0996   -0.0427    5.7369 H   0  0  0  0  0  0  0  0  0  0  0  0
    3.9544   -0.9539    3.2350 H   0  0  0  0  0  0  0  0  0  0  0  0
    3.9242    0.0932    4.6787 H   0  0  0  0  0  0  0  0  0  0  0  0
    3.9727    0.8418    3.0667 H   0  0  0  0  0  0  0  0  0  0  0  0
   -0.6007    0.0160    3.3246 H   0  0  0  0  0  0  0  0  0  0  0  0
   -1.7975    0.0086    1.1409 H   0  0  0  0  0  0  0  0  0  0  0  0
   -1.8356    1.5997   -3.2903 H   0  0  0  0  0  0  0  0  0  0  0  0
   -2.6057    1.4888   -5.6615 H   0  0  0  0  0  0  0  0  0  0  0  0
   -1.7052   -0.2608   -7.1784 H   0  0  0  0  0  0  0  0  0  0  0  0
   -0.0378   -1.9056   -6.3552 H   0  0  0  0  0  0  0  0  0  0  0  0
    0.7473   -1.8057   -3.9807 H   0  0  0  0  0  0  0  0  0  0  0  0
  1  2  1  0  0  0  0
  1  9  1  0  0  0  0
  2  3  2  0  0  0  0
  3  4  1  0  0  0  0
  4  5  1  0  0  0  0
  5  7  1  0  0  0  0
  5  6  1  0  0  0  0
  6 21  1  0  0  0  0
  6 22  1  0  0  0  0
  6 23  1  0  0  0  0
  7 25  1  0  0  0  0
  8  4  2  0  0  0  0
  8 27  1  0  0  0  0
  9  8  1  0  0  0  0
 10 11  2  0  0  0  0
 10  1  1  0  0  0  0
 12 10  1  0  0  0  0
 13 12  1  0  0  0  0
 14 13  1  0  0  0  0
 14 29  1  0  0  0  0
 15 14  2  0  0  0  0
 16 17  2  0  0  0  0
 16 15  1  0  0  0  0
 17 18  1  0  0  0  0
 18 33  1  0  0  0  0
 18 13  2  0  0  0  0
 19  2  1  0  0  0  0
 20  3  1  0  0  0  0
 24  7  1  0  0  0  0
 26  7  1  0  0  0  0
 28  9  1  0  0  0  0
 30 15  1  0  0  0  0
 31 16  1  0  0  0  0
 32 17  1  0  0  0  0
M  END
$$$$
