33
rmsd198.gzmat
N          0.00000        0.00000        0.00000
C          1.38840        0.00000        0.00000
C          2.09140        0.00000        1.17000
C          1.41640       -0.00600        2.44150
N          2.08720       -0.02550        3.59680
C          1.39570       -0.05570        4.88810
C          3.55200       -0.01690        3.63540
C         -0.02200        0.00570        2.39440
C         -0.68890        0.00720        1.20220
C         -0.68540       -0.00600       -1.28260
O         -0.08020       -0.08590       -2.30840
O         -2.00620        0.08050       -1.05300
C         -2.83440        0.15750       -2.18860
C         -2.79580       -0.81810       -3.17420
C         -3.73690       -0.72450       -4.19980
C         -4.66610        0.31660       -4.20990
C         -4.66890        1.27920       -3.19880
C         -3.73680        1.21470       -2.16420
H          1.88280        0.00070       -0.99300
H          3.18330        0.00020        1.13240
H          0.66180       -0.88500        4.93420
H          0.86760        0.90020        5.07960
H          2.10500       -0.21330        5.72470
H          3.96860       -0.94670        3.19760
H          3.92980        0.05080        4.67440
H          3.96510        0.85420        3.08820
H         -0.59840        0.01630        3.32250
H         -1.79500        0.01200        1.14820
H         -2.06080       -1.62010       -3.15810
H         -3.74220       -1.46980       -4.99820
H         -5.39790        0.38050       -5.01900
H         -5.39910        2.09070       -3.21630
H         -3.71840        1.95660       -1.36960
