33
rmsd1.gzmat
N          0.00000        0.00000        0.00000
C          1.38850        0.00000        0.00000
C          2.09120        0.00000        1.16990
C          1.41600       -0.00970        2.44130
N          2.08800       -0.03340        3.59580
C          3.55300       -0.03870        3.63110
C          1.39880       -0.05560        4.88840
C         -0.02250        0.00450        2.39430
C         -0.68950        0.00950        1.20200
C         -0.68330       -0.01100       -1.28350
O         -0.07380        0.01660       -2.30970
O         -2.00710       -0.04910       -1.05680
C         -2.83150       -0.08120       -2.19770
C         -3.75910       -1.11590       -2.20860
C         -4.68720       -1.12580       -3.24870
C         -4.65560       -0.13330       -4.22950
C         -3.70230        0.88450       -4.18500
C         -2.76280        0.92180       -3.15430
H          1.88310       -0.00020       -0.99280
H          3.18330        0.00600        1.13210
H          3.96510        0.90220        3.21370
H          3.96720       -0.89500        3.06210
H          3.93420       -0.12920        4.66730
H          0.75360        0.83620        5.01810
H          2.11820       -0.05670        5.73110
H          0.77560       -0.96660        4.99310
H         -0.59790        0.01270        3.32280
H         -1.79550        0.02440        1.14670
H         -3.76340       -1.88190       -1.43720
H         -5.43820       -1.91740       -3.29690
H         -5.38370       -0.15600       -5.04350
H         -3.68720        1.65480       -4.95920
H         -2.00640        1.70240       -3.11180
