rmsd142.gzmat
 OpenBabel08211713363D

 33 34  0  0  0  0  0  0  0  0999 V2000
    0.0000    0.0000    0.0000 N   0  0  0  0  0  0  0  0  0  0  0  0
    1.3856    0.0000    0.0000 C   0  0  0  0  0  0  0  0  0  0  0  0
    2.0884    0.0000    1.1716 C   0  0  0  0  0  0  0  0  0  0  0  0
    1.4137   -0.0060    2.4428 C   0  0  0  0  0  0  0  0  0  0  0  0
    2.0827   -0.0344    3.5988 N   0  0  0  0  0  0  0  0  0  0  0  0
    1.3883   -0.0343    4.8893 C   0  0  0  0  0  0  0  0  0  0  0  0
    3.5473   -0.0476    3.6387 C   0  0  0  0  0  0  0  0  0  0  0  0
   -0.0249    0.0136    2.3962 C   0  0  0  0  0  0  0  0  0  0  0  0
   -0.6905    0.0129    1.2047 C   0  0  0  0  0  0  0  0  0  0  0  0
   -0.7752   -0.0157   -1.2309 C   0  0  0  0  0  0  0  0  0  0  0  0
   -1.9665   -0.0899   -1.2104 O   0  0  0  0  0  0  0  0  0  0  0  0
    0.0751    0.0554   -2.2685 O   0  0  0  0  0  0  0  0  0  0  0  0
   -0.5060    0.0756   -3.5511 C   0  0  0  0  0  0  0  0  0  0  0  0
   -0.0766    1.1232   -4.3576 C   0  0  0  0  0  0  0  0  0  0  0  0
   -0.5120    1.1253   -5.6821 C   0  0  0  0  0  0  0  0  0  0  0  0
   -1.3508    0.1122   -6.1491 C   0  0  0  0  0  0  0  0  0  0  0  0
   -1.7664   -0.9166   -5.3032 C   0  0  0  0  0  0  0  0  0  0  0  0
   -1.3436   -0.9466   -3.9737 C   0  0  0  0  0  0  0  0  0  0  0  0
    1.8877   -0.0015   -0.9866 H   0  0  0  0  0  0  0  0  0  0  0  0
    3.1804    0.0042    1.1338 H   0  0  0  0  0  0  0  0  0  0  0  0
    0.7042   -0.9022    4.9786 H   0  0  0  0  0  0  0  0  0  0  0  0
    0.8046    0.8978    5.0302 H   0  0  0  0  0  0  0  0  0  0  0  0
    2.1019   -0.1003    5.7342 H   0  0  0  0  0  0  0  0  0  0  0  0
    3.9581   -0.9048    3.0684 H   0  0  0  0  0  0  0  0  0  0  0  0
    3.9241   -0.1427    4.6758 H   0  0  0  0  0  0  0  0  0  0  0  0
    3.9675    0.8918    3.2262 H   0  0  0  0  0  0  0  0  0  0  0  0
   -0.6008    0.0302    3.3245 H   0  0  0  0  0  0  0  0  0  0  0  0
   -1.7978    0.0238    1.1387 H   0  0  0  0  0  0  0  0  0  0  0  0
    0.5745    1.9045   -3.9729 H   0  0  0  0  0  0  0  0  0  0  0  0
   -0.1978    1.9271   -6.3534 H   0  0  0  0  0  0  0  0  0  0  0  0
   -1.6879    0.1272   -7.1885 H   0  0  0  0  0  0  0  0  0  0  0  0
   -2.4268   -1.7013   -5.6790 H   0  0  0  0  0  0  0  0  0  0  0  0
   -1.6667   -1.7373   -3.3001 H   0  0  0  0  0  0  0  0  0  0  0  0
  1  2  1  0  0  0  0
  1  9  1  0  0  0  0
  2  3  2  0  0  0  0
  3  4  1  0  0  0  0
  4  5  1  0  0  0  0
  5  7  1  0  0  0  0
  5  6  1  0  0  0  0
  6 21  1  0  0  0  0
  6 22  1  0  0  0  0
  6 23  1  0  0  0  0
  7 25  1  0  0  0  0
  8  4  2  0  0  0  0
  8 27  1  0  0  0  0
  9  8  1  0  0  0  0
 10 11  2  0  0  0  0
 10  1  1  0  0  0  0
 12 10  1  0  0  0  0
 13 12  1  0  0  0  0
 14 29  1  0  0  0  0
 14 13  2  0  0  0  0
 15 14  1  0  0  0  0
 16 15  2  0  0  0  0
 16 17  1  0  0  0  0
 17 18  2  0  0  0  0
 18 13  1  0  0  0  0
 18 33  1  0  0  0  0
 19  2  1  0  0  0  0
 20  3  1  0  0  0  0
 24  7  1  0  0  0  0
 26  7  1  0  0  0  0
 28  9  1  0  0  0  0
 30 15  1  0  0  0  0
 31 16  1  0  0  0  0
 32 17  1  0  0  0  0
M  END
$$$$
