33
rmsd17.gzmat
N          0.00000        0.00000        0.00000
C          1.38580        0.00000        0.00000
C          2.08890        0.00000        1.17100
C          1.41500        0.00020        2.44270
N          2.08600       -0.00100        3.59790
C          3.55090       -0.01240        3.63580
C          1.39560        0.02800        4.89020
C         -0.02370        0.00040        2.39630
C         -0.68980       -0.00100        1.20470
C         -0.77150        0.00320       -1.23320
O         -1.96440       -0.03720       -1.21820
O          0.08840        0.04940       -2.26380
C         -0.46850        0.08320       -3.55530
C          0.07300        1.06570       -4.37700
C         -0.32800        1.06930       -5.71220
C         -1.24540        0.12440       -6.17450
C         -1.77630       -0.83530       -5.31160
C         -1.38800       -0.86850       -3.97160
H          1.88970       -0.00100       -0.98590
H          3.18050        0.00280        1.13100
H          3.96900        0.92100        3.20800
H          3.96210       -0.87850        3.07940
H          3.92950       -0.09270        4.67390
H          0.77740        0.94220        4.99400
H          2.11360        0.02830        5.73400
H          0.74680       -0.86140        5.01920
H         -0.59960        0.00040        3.32470
H         -1.79710       -0.00270        1.14070
H          0.78280        1.79540       -3.99460
H          0.07710        1.81900       -6.39560
H         -1.55300        0.13870       -7.22290
H         -2.49990       -1.56480       -5.68170
H         -1.79790       -1.60770       -3.28670
