rmsd158.gzmat
 OpenBabel08211713363D

 33 34  0  0  0  0  0  0  0  0999 V2000
    0.0000    0.0000    0.0000 N   0  0  0  0  0  0  0  0  0  0  0  0
    1.3854    0.0000    0.0000 C   0  0  0  0  0  0  0  0  0  0  0  0
    2.0884    0.0000    1.1719 C   0  0  0  0  0  0  0  0  0  0  0  0
    1.4155   -0.0058    2.4444 C   0  0  0  0  0  0  0  0  0  0  0  0
    2.0846   -0.0203    3.6009 N   0  0  0  0  0  0  0  0  0  0  0  0
    1.3906   -0.0351    4.8917 C   0  0  0  0  0  0  0  0  0  0  0  0
    3.5493   -0.0171    3.6426 C   0  0  0  0  0  0  0  0  0  0  0  0
   -0.0232    0.0025    2.3975 C   0  0  0  0  0  0  0  0  0  0  0  0
   -0.6889    0.0051    1.2060 C   0  0  0  0  0  0  0  0  0  0  0  0
   -0.7797   -0.0060   -1.2286 C   0  0  0  0  0  0  0  0  0  0  0  0
   -1.9733   -0.0193   -1.1981 O   0  0  0  0  0  0  0  0  0  0  0  0
    0.0648   -0.0038   -2.2733 O   0  0  0  0  0  0  0  0  0  0  0  0
   -0.5238    0.0160   -3.5535 C   0  0  0  0  0  0  0  0  0  0  0  0
   -1.4340   -0.9570   -3.9415 C   0  0  0  0  0  0  0  0  0  0  0  0
   -1.8630   -0.9365   -5.2692 C   0  0  0  0  0  0  0  0  0  0  0  0
   -1.3823    0.0336   -6.1492 C   0  0  0  0  0  0  0  0  0  0  0  0
   -0.4702    0.9978   -5.7171 C   0  0  0  0  0  0  0  0  0  0  0  0
   -0.0279    1.0052   -4.3950 C   0  0  0  0  0  0  0  0  0  0  0  0
    1.8878   -0.0014   -0.9864 H   0  0  0  0  0  0  0  0  0  0  0  0
    3.1800    0.0028    1.1321 H   0  0  0  0  0  0  0  0  0  0  0  0
    0.7215   -0.9145    4.9791 H   0  0  0  0  0  0  0  0  0  0  0  0
    0.7920    0.8866    5.0363 H   0  0  0  0  0  0  0  0  0  0  0  0
    2.1057   -0.0921    5.7361 H   0  0  0  0  0  0  0  0  0  0  0  0
    3.9674   -0.9095    3.1351 H   0  0  0  0  0  0  0  0  0  0  0  0
    3.9249   -0.0331    4.6849 H   0  0  0  0  0  0  0  0  0  0  0  0
    3.9628    0.8936    3.1647 H   0  0  0  0  0  0  0  0  0  0  0  0
   -0.6007    0.0090    3.3251 H   0  0  0  0  0  0  0  0  0  0  0  0
   -1.7964    0.0115    1.1427 H   0  0  0  0  0  0  0  0  0  0  0  0
   -1.8066   -1.7035   -3.2437 H   0  0  0  0  0  0  0  0  0  0  0  0
   -2.5796   -1.6837   -5.6181 H   0  0  0  0  0  0  0  0  0  0  0  0
   -1.7248    0.0408   -7.1869 H   0  0  0  0  0  0  0  0  0  0  0  0
   -0.1031    1.7537   -6.4148 H   0  0  0  0  0  0  0  0  0  0  0  0
    0.6799    1.7499   -4.0391 H   0  0  0  0  0  0  0  0  0  0  0  0
  1  2  1  0  0  0  0
  1  9  1  0  0  0  0
  2  3  2  0  0  0  0
  3  4  1  0  0  0  0
  4  5  1  0  0  0  0
  5  7  1  0  0  0  0
  5  6  1  0  0  0  0
  6 21  1  0  0  0  0
  6 22  1  0  0  0  0
  6 23  1  0  0  0  0
  7 25  1  0  0  0  0
  8  4  2  0  0  0  0
  8 27  1  0  0  0  0
  9  8  1  0  0  0  0
 10 11  2  0  0  0  0
 10  1  1  0  0  0  0
 12 10  1  0  0  0  0
 13 12  1  0  0  0  0
 14 13  1  0  0  0  0
 14 29  1  0  0  0  0
 15 14  2  0  0  0  0
 16 17  2  0  0  0  0
 16 15  1  0  0  0  0
 17 18  1  0  0  0  0
 18 33  1  0  0  0  0
 18 13  2  0  0  0  0
 19  2  1  0  0  0  0
 20  3  1  0  0  0  0
 24  7  1  0  0  0  0
 26  7  1  0  0  0  0
 28  9  1  0  0  0  0
 30 15  1  0  0  0  0
 31 16  1  0  0  0  0
 32 17  1  0  0  0  0
M  END
$$$$
