rmsd17.gzmat
 OpenBabel08211713363D

 33 34  0  0  0  0  0  0  0  0999 V2000
    0.0000    0.0000    0.0000 N   0  0  0  0  0  0  0  0  0  0  0  0
    1.3858    0.0000    0.0000 C   0  0  0  0  0  0  0  0  0  0  0  0
    2.0889    0.0000    1.1710 C   0  0  0  0  0  0  0  0  0  0  0  0
    1.4150    0.0002    2.4427 C   0  0  0  0  0  0  0  0  0  0  0  0
    2.0860   -0.0010    3.5979 N   0  0  0  0  0  0  0  0  0  0  0  0
    3.5509   -0.0124    3.6358 C   0  0  0  0  0  0  0  0  0  0  0  0
    1.3956    0.0280    4.8902 C   0  0  0  0  0  0  0  0  0  0  0  0
   -0.0237    0.0004    2.3963 C   0  0  0  0  0  0  0  0  0  0  0  0
   -0.6898   -0.0010    1.2047 C   0  0  0  0  0  0  0  0  0  0  0  0
   -0.7715    0.0032   -1.2332 C   0  0  0  0  0  0  0  0  0  0  0  0
   -1.9644   -0.0372   -1.2182 O   0  0  0  0  0  0  0  0  0  0  0  0
    0.0884    0.0494   -2.2638 O   0  0  0  0  0  0  0  0  0  0  0  0
   -0.4685    0.0832   -3.5553 C   0  0  0  0  0  0  0  0  0  0  0  0
    0.0730    1.0657   -4.3770 C   0  0  0  0  0  0  0  0  0  0  0  0
   -0.3280    1.0693   -5.7122 C   0  0  0  0  0  0  0  0  0  0  0  0
   -1.2454    0.1244   -6.1745 C   0  0  0  0  0  0  0  0  0  0  0  0
   -1.7763   -0.8353   -5.3116 C   0  0  0  0  0  0  0  0  0  0  0  0
   -1.3880   -0.8685   -3.9716 C   0  0  0  0  0  0  0  0  0  0  0  0
    1.8897   -0.0010   -0.9859 H   0  0  0  0  0  0  0  0  0  0  0  0
    3.1805    0.0028    1.1310 H   0  0  0  0  0  0  0  0  0  0  0  0
    3.9690    0.9210    3.2080 H   0  0  0  0  0  0  0  0  0  0  0  0
    3.9621   -0.8785    3.0794 H   0  0  0  0  0  0  0  0  0  0  0  0
    3.9295   -0.0927    4.6739 H   0  0  0  0  0  0  0  0  0  0  0  0
    0.7774    0.9422    4.9940 H   0  0  0  0  0  0  0  0  0  0  0  0
    2.1136    0.0283    5.7340 H   0  0  0  0  0  0  0  0  0  0  0  0
    0.7468   -0.8614    5.0192 H   0  0  0  0  0  0  0  0  0  0  0  0
   -0.5996    0.0004    3.3247 H   0  0  0  0  0  0  0  0  0  0  0  0
   -1.7971   -0.0027    1.1407 H   0  0  0  0  0  0  0  0  0  0  0  0
    0.7828    1.7954   -3.9946 H   0  0  0  0  0  0  0  0  0  0  0  0
    0.0771    1.8190   -6.3956 H   0  0  0  0  0  0  0  0  0  0  0  0
   -1.5530    0.1387   -7.2229 H   0  0  0  0  0  0  0  0  0  0  0  0
   -2.4999   -1.5648   -5.6817 H   0  0  0  0  0  0  0  0  0  0  0  0
   -1.7979   -1.6077   -3.2867 H   0  0  0  0  0  0  0  0  0  0  0  0
  1  2  1  0  0  0  0
  1  9  1  0  0  0  0
  2  3  2  0  0  0  0
  3  4  1  0  0  0  0
  4  5  1  0  0  0  0
  5  6  1  0  0  0  0
  5  7  1  0  0  0  0
  6 23  1  0  0  0  0
  7 24  1  0  0  0  0
  7 26  1  0  0  0  0
  7 25  1  0  0  0  0
  8  4  2  0  0  0  0
  8 27  1  0  0  0  0
  9  8  1  0  0  0  0
 10 11  2  0  0  0  0
 10  1  1  0  0  0  0
 12 10  1  0  0  0  0
 13 12  1  0  0  0  0
 14 29  1  0  0  0  0
 14 13  2  0  0  0  0
 15 14  1  0  0  0  0
 16 15  2  0  0  0  0
 16 17  1  0  0  0  0
 17 18  2  0  0  0  0
 18 13  1  0  0  0  0
 18 33  1  0  0  0  0
 19  2  1  0  0  0  0
 20  3  1  0  0  0  0
 21  6  1  0  0  0  0
 22  6  1  0  0  0  0
 28  9  1  0  0  0  0
 30 15  1  0  0  0  0
 31 16  1  0  0  0  0
 32 17  1  0  0  0  0
M  END
$$$$
