44
rmsd202.gzmat
N          0.00000        0.00000        0.00000
H          0.99200        0.00000        0.00000
C         -0.81830        0.00000       -1.13630
C         -2.14880       -0.03210       -0.75140
C         -2.17720       -0.04210        0.68820
C         -3.20110       -0.05340        1.64190
C         -2.86300       -0.08720        2.98100
C         -1.51330       -0.10480        3.39790
C         -0.47450       -0.07500        2.48790
C         -0.81520       -0.03620        1.12850
C         -3.32920       -0.11020       -1.63450
C         -3.67620       -1.58710       -1.94830
N         -3.92120       -2.36890       -0.72620
C         -5.20970       -2.25280       -0.17360
O         -6.17040       -1.88600       -0.82650
N         -5.30490       -2.57350        1.18110
C         -6.64620       -2.71020        1.77510
C         -7.08280       -4.18880        1.85650
C         -6.28210       -4.97690        2.89790
C         -6.37250       -4.30470        4.27370
C         -5.85150       -2.86430        4.20430
C         -6.63730       -2.04980        3.17150
H         -0.39370        0.02310       -2.12170
H         -4.24400       -0.03840        1.32340
H         -3.64380       -0.09760        3.73890
H         -1.29660       -0.13930        4.46490
H          0.56180       -0.08050        2.80390
H         -3.16530        0.43990       -2.58210
H         -4.20950        0.37870       -1.16070
H         -2.83850       -2.07360       -2.49450
H         -4.57780       -1.63460       -2.60340
H         -3.12520       -2.39840       -0.09540
H         -4.57070       -3.09050        1.64000
H         -7.37550       -2.15470        1.11890
H         -6.98240       -4.65930        0.85980
H         -8.16060       -4.22980        2.10150
H         -6.66230       -6.01390        2.95740
H         -5.22500       -5.06450        2.58670
H         -7.42030       -4.31080        4.62780
H         -5.79800       -4.88310        5.01940
H         -5.93080       -2.38450        5.19800
H         -4.77360       -2.85960        3.95600
H         -7.68260       -1.92150        3.50910
H         -6.21120       -1.03050        3.09130
