rmsd202.gzmat
 OpenBabel08211713373D

 44 46  0  0  0  0  0  0  0  0999 V2000
    0.0000    0.0000    0.0000 N   0  0  0  0  0  0  0  0  0  0  0  0
    0.9920    0.0000    0.0000 H   0  0  0  0  0  0  0  0  0  0  0  0
   -0.8183    0.0000   -1.1363 C   0  0  0  0  0  0  0  0  0  0  0  0
   -2.1488   -0.0321   -0.7514 C   0  0  0  0  0  0  0  0  0  0  0  0
   -2.1772   -0.0421    0.6882 C   0  0  0  0  0  0  0  0  0  0  0  0
   -3.2011   -0.0534    1.6419 C   0  0  0  0  0  0  0  0  0  0  0  0
   -2.8630   -0.0872    2.9810 C   0  0  0  0  0  0  0  0  0  0  0  0
   -1.5133   -0.1048    3.3979 C   0  0  0  0  0  0  0  0  0  0  0  0
   -0.4745   -0.0750    2.4879 C   0  0  0  0  0  0  0  0  0  0  0  0
   -0.8152   -0.0362    1.1285 C   0  0  0  0  0  0  0  0  0  0  0  0
   -3.3292   -0.1102   -1.6345 C   0  0  0  0  0  0  0  0  0  0  0  0
   -3.6762   -1.5871   -1.9483 C   0  0  0  0  0  0  0  0  0  0  0  0
   -3.9212   -2.3689   -0.7262 N   0  0  0  0  0  0  0  0  0  0  0  0
   -5.2097   -2.2528   -0.1736 C   0  0  0  0  0  0  0  0  0  0  0  0
   -6.1704   -1.8860   -0.8265 O   0  0  0  0  0  0  0  0  0  0  0  0
   -5.3049   -2.5735    1.1811 N   0  0  0  0  0  0  0  0  0  0  0  0
   -6.6462   -2.7102    1.7751 C   0  0  0  0  0  0  0  0  0  0  0  0
   -7.0828   -4.1888    1.8565 C   0  0  0  0  0  0  0  0  0  0  0  0
   -6.2821   -4.9769    2.8979 C   0  0  0  0  0  0  0  0  0  0  0  0
   -6.3725   -4.3047    4.2737 C   0  0  0  0  0  0  0  0  0  0  0  0
   -5.8515   -2.8643    4.2043 C   0  0  0  0  0  0  0  0  0  0  0  0
   -6.6373   -2.0498    3.1715 C   0  0  0  0  0  0  0  0  0  0  0  0
   -0.3937    0.0231   -2.1217 H   0  0  0  0  0  0  0  0  0  0  0  0
   -4.2440   -0.0384    1.3234 H   0  0  0  0  0  0  0  0  0  0  0  0
   -3.6438   -0.0976    3.7389 H   0  0  0  0  0  0  0  0  0  0  0  0
   -1.2966   -0.1393    4.4649 H   0  0  0  0  0  0  0  0  0  0  0  0
    0.5618   -0.0805    2.8039 H   0  0  0  0  0  0  0  0  0  0  0  0
   -3.1653    0.4399   -2.5821 H   0  0  0  0  0  0  0  0  0  0  0  0
   -4.2095    0.3787   -1.1607 H   0  0  0  0  0  0  0  0  0  0  0  0
   -2.8385   -2.0736   -2.4945 H   0  0  0  0  0  0  0  0  0  0  0  0
   -4.5778   -1.6346   -2.6034 H   0  0  0  0  0  0  0  0  0  0  0  0
   -3.1252   -2.3984   -0.0954 H   0  0  0  0  0  0  0  0  0  0  0  0
   -4.5707   -3.0905    1.6400 H   0  0  0  0  0  0  0  0  0  0  0  0
   -7.3755   -2.1547    1.1189 H   0  0  0  0  0  0  0  0  0  0  0  0
   -6.9824   -4.6593    0.8598 H   0  0  0  0  0  0  0  0  0  0  0  0
   -8.1606   -4.2298    2.1015 H   0  0  0  0  0  0  0  0  0  0  0  0
   -6.6623   -6.0139    2.9574 H   0  0  0  0  0  0  0  0  0  0  0  0
   -5.2250   -5.0645    2.5867 H   0  0  0  0  0  0  0  0  0  0  0  0
   -7.4203   -4.3108    4.6278 H   0  0  0  0  0  0  0  0  0  0  0  0
   -5.7980   -4.8831    5.0194 H   0  0  0  0  0  0  0  0  0  0  0  0
   -5.9308   -2.3845    5.1980 H   0  0  0  0  0  0  0  0  0  0  0  0
   -4.7736   -2.8596    3.9560 H   0  0  0  0  0  0  0  0  0  0  0  0
   -7.6826   -1.9215    3.5091 H   0  0  0  0  0  0  0  0  0  0  0  0
   -6.2112   -1.0305    3.0913 H   0  0  0  0  0  0  0  0  0  0  0  0
  1  2  1  0  0  0  0
  1 10  1  0  0  0  0
  3  4  2  0  0  0  0
  3  1  1  0  0  0  0
  4  5  1  0  0  0  0
  5 10  2  0  0  0  0
  5  6  1  0  0  0  0
  6  7  2  0  0  0  0
  7  8  1  0  0  0  0
  7 25  1  0  0  0  0
  8 26  1  0  0  0  0
  9 27  1  0  0  0  0
  9  8  2  0  0  0  0
 10  9  1  0  0  0  0
 11 29  1  0  0  0  0
 11  4  1  0  0  0  0
 12 11  1  0  0  0  0
 12 13  1  0  0  0  0
 13 14  1  0  0  0  0
 13 32  1  0  0  0  0
 14 16  1  0  0  0  0
 15 14  2  0  0  0  0
 16 33  1  0  0  0  0
 16 17  1  0  0  0  0
 17 18  1  0  0  0  0
 17 22  1  0  0  0  0
 18 36  1  0  0  0  0
 18 19  1  0  0  0  0
 19 37  1  0  0  0  0
 19 20  1  0  0  0  0
 20 39  1  0  0  0  0
 20 40  1  0  0  0  0
 21 20  1  0  0  0  0
 21 41  1  0  0  0  0
 22 43  1  0  0  0  0
 22 21  1  0  0  0  0
 23  3  1  0  0  0  0
 24  6  1  0  0  0  0
 28 11  1  0  0  0  0
 30 12  1  0  0  0  0
 31 12  1  0  0  0  0
 34 17  1  0  0  0  0
 35 18  1  0  0  0  0
 38 19  1  0  0  0  0
 42 21  1  0  0  0  0
 44 22  1  0  0  0  0
M  END
$$$$
