44

N         -0.25650        0.31920        0.37200
H          0.74380        0.40070        0.48850
C         -0.90040        0.00590       -0.81190
C         -2.26150       -0.06200       -0.60770
C         -2.47080        0.22530        0.79420
C         -3.61320        0.28970        1.61570
C         -3.45830        0.59100        2.96510
C         -2.18070        0.83160        3.51770
C         -1.03190        0.76640        2.73430
C         -1.18880        0.45980        1.37570
C         -3.32670       -0.28840       -1.63910
C         -3.87950        1.02570       -2.22950
N         -4.39200        1.94480       -1.23290
C         -5.67280        1.77380       -0.73960
O         -6.48780        1.02910       -1.26800
N         -5.95230        2.52330        0.37890
C         -7.24820        2.47960        1.03920
C         -7.13930        1.91490        2.46720
C         -6.41290        2.87730        3.41370
C         -7.07830        4.25900        3.42360
C         -7.19420        4.83660        2.00760
C         -7.91500        3.86640        1.06410
H         -0.33220       -0.15210       -1.72710
H         -4.60400        0.09600        1.20200
H         -4.33660        0.63690        3.61210
H         -2.09210        1.06710        4.58090
H         -0.04380        0.94510        3.16510
H         -4.16830       -0.84660       -1.19860
H         -2.93330       -0.90320       -2.46550
H         -4.70320        0.80130       -2.92070
H         -3.08410        1.53790       -2.79520
H         -3.70250        2.33790       -0.60160
H         -5.21970        3.09260        0.78140
H         -7.84850        1.79730        0.42270
H         -6.63510        0.93630        2.43680
H         -8.16030        1.73580        2.84760
H         -6.38170        2.45750        4.43280
H         -5.35810        2.97650        3.09940
H         -8.09130        4.16690        3.85680
H         -6.52120        4.95030        4.07740
H         -7.71740        5.80660        2.02850
H         -6.18200        5.04980        1.61540
H         -8.95860        3.74300        1.40320
H         -7.95470        4.26920        0.03980
