44

N         -0.10760       -0.22960       -0.25110
H          0.89420       -0.30120       -0.36010
C         -1.02970       -0.27510       -1.28200
C         -2.30230       -0.09490       -0.78660
C         -2.15920        0.06380        0.64280
C         -3.06940        0.27270        1.69610
C         -2.58580        0.39170        2.99530
C         -1.20290        0.30730        3.26770
C         -0.27690        0.10230        2.24810
C         -0.76620       -0.02010        0.94110
C         -3.58160       -0.16360       -1.56190
C         -4.31470       -1.50830       -1.37040
N         -3.47390       -2.66200       -1.63760
C         -3.10520       -2.92860       -2.94430
O         -3.64190       -2.39950       -3.90790
N         -2.07950       -3.84290       -3.06900
C         -1.71420       -4.36310       -4.38320
C         -0.29930       -4.95650       -4.33420
C         -0.24050       -6.26890       -3.54020
C         -1.25850       -7.28950       -4.06360
C         -2.67530       -6.70340       -4.09650
C         -2.72220       -5.40420       -4.90620
H         -0.71210       -0.43970       -2.31020
H         -4.14100        0.34490        1.49470
H         -3.28310        0.55520        3.82020
H         -0.85240        0.40610        4.29780
H          0.79290        0.03970        2.46190
H         -3.37760       -0.04140       -2.63590
H         -4.26080        0.65390       -1.26400
H         -5.17800       -1.55360       -2.04890
H         -4.68810       -1.59920       -0.33860
H         -2.76210       -2.83580       -0.93520
H         -1.88130       -4.43000       -2.26760
H         -1.73090       -3.49720       -5.06000
H          0.39820       -4.21300       -3.91530
H          0.02370       -5.15320       -5.37060
H          0.77940       -6.68550       -3.57790
H         -0.43980       -6.07210       -2.46940
H         -0.96980       -7.58870       -5.08790
H         -1.23100       -8.20620       -3.45160
H         -3.38580       -7.43720       -4.51040
H         -3.01300       -6.50260       -3.06310
H         -2.47930       -5.62160       -5.96170
H         -3.72760       -4.95750       -4.89660
