rmsd212.gzmat
 OpenBabel08211713373D

 44 45  0  0  1  0  0  0  0  0999 V2000
    0.0000    0.0000    0.0000 N   0  0  0  0  0  0  0  0  0  0  0  0
    0.9915    0.0000    0.0000 H   0  0  0  0  0  0  0  0  0  0  0  0
   -0.8191    0.0000   -1.1357 C   0  0  0  0  0  0  0  0  0  0  0  0
   -2.1494    0.0248   -0.7497 C   0  0  0  0  0  0  0  0  0  0  0  0
   -2.1770    0.0492    0.6892 C   0  0  0  0  0  0  0  0  0  0  0  0
   -3.2009    0.0797    1.6420 C   0  0  0  0  0  0  0  0  0  0  0  0
   -2.8627    0.0852    2.9817 C   0  0  0  0  0  0  0  0  0  0  0  0
   -1.5136    0.0728    3.3997 C   0  0  0  0  0  0  0  0  0  0  0  0
   -0.4744    0.0490    2.4899 C   0  0  0  0  0  0  0  0  0  0  0  0
   -0.8151    0.0353    1.1292 C   0  0  0  0  0  0  0  0  0  0  0  0
   -3.3306    0.0023   -1.6341 C   0  0  0  0  0  0  0  0  0  0  0  0
   -3.7774   -1.4496   -1.9258 C   0  0  0  0  0  0  0  0  0  0  0  0
   -4.1504   -2.1761   -0.7030 N   0  0  0  0  0  0  0  0  0  0  0  0
   -5.4483   -1.9475   -0.2177 C   0  0  0  0  0  0  0  0  0  0  0  0
   -6.3242   -1.4421   -0.8957 O   0  0  0  0  0  0  0  0  0  0  0  0
   -5.6584   -2.3441    1.1116 N   0  0  0  0  0  0  0  0  0  0  0  0
   -7.0575   -2.3437    1.5882 C   0  0  1  0  0  0  0  0  0  0  0  0
   -7.9107   -3.4476    0.9295 C   0  0  0  0  0  0  0  0  0  0  0  0
   -7.5020   -4.8469    1.3946 C   0  0  0  0  0  0  0  0  0  0  0  0
   -7.5887   -4.9502    2.9221 C   0  0  0  0  0  0  0  0  0  0  0  0
   -6.6823   -3.9048    3.5831 C   0  0  0  0  0  0  0  0  0  0  0  0
   -7.0494   -2.4886    3.1244 C   0  0  0  0  0  0  0  0  0  0  0  0
   -0.3963   -0.0212   -2.1218 H   0  0  0  0  0  0  0  0  0  0  0  0
   -4.2430    0.0956    1.3225 H   0  0  0  0  0  0  0  0  0  0  0  0
   -3.6441    0.1028    3.7384 H   0  0  0  0  0  0  0  0  0  0  0  0
   -1.2975    0.0843    4.4673 H   0  0  0  0  0  0  0  0  0  0  0  0
    0.5615    0.0435    2.8071 H   0  0  0  0  0  0  0  0  0  0  0  0
   -3.1275    0.5239   -2.5907 H   0  0  0  0  0  0  0  0  0  0  0  0
   -4.1772    0.5596   -1.1740 H   0  0  0  0  0  0  0  0  0  0  0  0
   -2.9551   -2.0180   -2.4138 H   0  0  0  0  0  0  0  0  0  0  0  0
   -4.6446   -1.4435   -2.6276 H   0  0  0  0  0  0  0  0  0  0  0  0
   -3.3925   -2.2755   -0.0339 H   0  0  0  0  0  0  0  0  0  0  0  0
   -5.0814   -3.0810    1.4967 H   0  0  0  0  0  0  0  0  0  0  0  0
   -7.4944   -1.3433    1.3118 H   0  0  0  0  0  0  0  0  0  0  0  0
   -7.8292   -3.3659   -0.1735 H   0  0  0  0  0  0  0  0  0  0  0  0
   -8.9761   -3.2667    1.1622 H   0  0  0  0  0  0  0  0  0  0  0  0
   -8.1541   -5.6055    0.9236 H   0  0  0  0  0  0  0  0  0  0  0  0
   -6.4766   -5.0803    1.0534 H   0  0  0  0  0  0  0  0  0  0  0  0
   -8.6346   -4.8055    3.2507 H   0  0  0  0  0  0  0  0  0  0  0  0
   -7.3039   -5.9652    3.2528 H   0  0  0  0  0  0  0  0  0  0  0  0
   -6.7671   -3.9739    4.6837 H   0  0  0  0  0  0  0  0  0  0  0  0
   -5.6233   -4.1232    3.3541 H   0  0  0  0  0  0  0  0  0  0  0  0
   -8.0511   -2.2189    3.5083 H   0  0  0  0  0  0  0  0  0  0  0  0
   -6.3460   -1.7545    3.5630 H   0  0  0  0  0  0  0  0  0  0  0  0
  1  2  1  0  0  0  0
  1 10  1  0  0  0  0
  3  4  2  0  0  0  0
  3  1  1  0  0  0  0
  4  5  1  0  0  0  0
  5 10  2  0  0  0  0
  5  6  1  0  0  0  0
  6  7  2  0  0  0  0
  7  8  1  0  0  0  0
  7 25  1  0  0  0  0
  8 26  1  0  0  0  0
  9 27  1  0  0  0  0
  9  8  2  0  0  0  0
 10  9  1  0  0  0  0
 11 29  1  0  0  0  0
 11  4  1  0  0  0  0
 12 11  1  0  0  0  0
 12 13  1  0  0  0  0
 13 14  1  0  0  0  0
 13 32  1  0  0  0  0
 14 16  1  0  0  0  0
 15 14  2  0  0  0  0
 16 33  1  0  0  0  0
 16 17  1  0  0  0  0
 17 34  1  6  0  0  0
 17 22  1  0  0  0  0
 18 36  1  0  0  0  0
 18 19  1  0  0  0  0
 18 17  1  0  0  0  0
 19 20  1  0  0  0  0
 20 39  1  0  0  0  0
 20 40  1  0  0  0  0
 20 21  1  0  0  0  0
 21 41  1  0  0  0  0
 22 43  1  0  0  0  0
 22 44  1  0  0  0  0
 22 21  1  0  0  0  0
 23  3  1  0  0  0  0
 24  6  1  0  0  0  0
 28 11  1  0  0  0  0
 30 12  1  0  0  0  0
 31 12  1  0  0  0  0
 37 19  1  0  0  0  0
 38 19  1  0  0  0  0
 42 21  1  0  0  0  0
M  RAD  2  18   2  35   2
M  END
$$$$
