rmsd186.gzmat
 OpenBabel08211713373D

 44 46  0  0  0  0  0  0  0  0999 V2000
    0.0000    0.0000    0.0000 N   0  0  0  0  0  0  0  0  0  0  0  0
    0.9920    0.0000    0.0000 H   0  0  0  0  0  0  0  0  0  0  0  0
   -0.8194    0.0000   -1.1345 C   0  0  0  0  0  0  0  0  0  0  0  0
   -2.1495    0.0519   -0.7482 C   0  0  0  0  0  0  0  0  0  0  0  0
   -2.1757    0.1047    0.6888 C   0  0  0  0  0  0  0  0  0  0  0  0
   -3.1991    0.1693    1.6399 C   0  0  0  0  0  0  0  0  0  0  0  0
   -2.8594    0.1998    2.9795 C   0  0  0  0  0  0  0  0  0  0  0  0
   -1.5106    0.1669    3.3973 C   0  0  0  0  0  0  0  0  0  0  0  0
   -0.4724    0.1042    2.4880 C   0  0  0  0  0  0  0  0  0  0  0  0
   -0.8137    0.0740    1.1287 C   0  0  0  0  0  0  0  0  0  0  0  0
   -3.3270   -0.0077   -1.6362 C   0  0  0  0  0  0  0  0  0  0  0  0
   -3.9510   -1.4248   -1.6092 C   0  0  0  0  0  0  0  0  0  0  0  0
   -2.9520   -2.4703   -1.8785 N   0  0  0  0  0  0  0  0  0  0  0  0
   -2.6539   -2.7139   -3.2290 C   0  0  0  0  0  0  0  0  0  0  0  0
   -3.3817   -2.3613   -4.1385 O   0  0  0  0  0  0  0  0  0  0  0  0
   -1.4451   -3.3941   -3.4510 N   0  0  0  0  0  0  0  0  0  0  0  0
   -1.2300   -3.9252   -4.8136 C   0  0  0  0  0  0  0  0  0  0  0  0
    0.2770   -4.1980   -5.0010 C   0  0  0  0  0  0  0  0  0  0  0  0
    0.7578   -5.4196   -4.2094 C   0  0  0  0  0  0  0  0  0  0  0  0
   -0.0817   -6.6576   -4.5474 C   0  0  0  0  0  0  0  0  0  0  0  0
   -1.5675   -6.3959   -4.2719 C   0  0  0  0  0  0  0  0  0  0  0  0
   -2.0615   -5.1967   -5.0851 C   0  0  0  0  0  0  0  0  0  0  0  0
   -0.3987   -0.0429   -2.1227 H   0  0  0  0  0  0  0  0  0  0  0  0
   -4.2373    0.1964    1.3182 H   0  0  0  0  0  0  0  0  0  0  0  0
   -3.6380    0.2522    3.7371 H   0  0  0  0  0  0  0  0  0  0  0  0
   -1.2941    0.1945    4.4646 H   0  0  0  0  0  0  0  0  0  0  0  0
    0.5636    0.0808    2.8057 H   0  0  0  0  0  0  0  0  0  0  0  0
   -3.0555    0.2520   -2.6824 H   0  0  0  0  0  0  0  0  0  0  0  0
   -4.0898    0.7387   -1.3348 H   0  0  0  0  0  0  0  0  0  0  0  0
   -4.7723   -1.4949   -2.3599 H   0  0  0  0  0  0  0  0  0  0  0  0
   -4.3901   -1.6351   -0.6079 H   0  0  0  0  0  0  0  0  0  0  0  0
   -2.1909   -2.4902   -1.2060 H   0  0  0  0  0  0  0  0  0  0  0  0
   -1.0759   -3.9809   -2.7131 H   0  0  0  0  0  0  0  0  0  0  0  0
   -1.5532   -3.1239   -5.5364 H   0  0  0  0  0  0  0  0  0  0  0  0
    0.8550   -3.3019   -4.7046 H   0  0  0  0  0  0  0  0  0  0  0  0
    0.4763   -4.3476   -6.0787 H   0  0  0  0  0  0  0  0  0  0  0  0
    1.8235   -5.6134   -4.4338 H   0  0  0  0  0  0  0  0  0  0  0  0
    0.7159   -5.2165   -3.1239 H   0  0  0  0  0  0  0  0  0  0  0  0
    0.0613   -6.9307   -5.6097 H   0  0  0  0  0  0  0  0  0  0  0  0
    0.2682   -7.5260   -3.9606 H   0  0  0  0  0  0  0  0  0  0  0  0
   -2.1635   -7.2928   -4.5244 H   0  0  0  0  0  0  0  0  0  0  0  0
   -1.7324   -6.2240   -3.1927 H   0  0  0  0  0  0  0  0  0  0  0  0
   -2.0195   -5.4292   -6.1655 H   0  0  0  0  0  0  0  0  0  0  0  0
   -3.1282   -4.9913   -4.8650 H   0  0  0  0  0  0  0  0  0  0  0  0
  1 10  1  0  0  0  0
  2  1  1  0  0  0  0
  3  4  2  0  0  0  0
  3  1  1  0  0  0  0
  4  5  1  0  0  0  0
  5 10  2  0  0  0  0
  5  6  1  0  0  0  0
  6  7  2  0  0  0  0
  7  8  1  0  0  0  0
  7 25  1  0  0  0  0
  8 26  1  0  0  0  0
  9 27  1  0  0  0  0
  9  8  2  0  0  0  0
 10  9  1  0  0  0  0
 11 12  1  0  0  0  0
 11 29  1  0  0  0  0
 11  4  1  0  0  0  0
 12 31  1  0  0  0  0
 13 12  1  0  0  0  0
 13 32  1  0  0  0  0
 14 13  1  0  0  0  0
 15 14  2  0  0  0  0
 16 14  1  0  0  0  0
 16 33  1  0  0  0  0
 17 16  1  0  0  0  0
 18 17  1  0  0  0  0
 18 35  1  0  0  0  0
 18 19  1  0  0  0  0
 19 38  1  0  0  0  0
 20 21  1  0  0  0  0
 20 19  1  0  0  0  0
 20 40  1  0  0  0  0
 21 42  1  0  0  0  0
 22 44  1  0  0  0  0
 22 17  1  0  0  0  0
 22 21  1  0  0  0  0
 23  3  1  0  0  0  0
 24  6  1  0  0  0  0
 28 11  1  0  0  0  0
 30 12  1  0  0  0  0
 34 17  1  0  0  0  0
 36 18  1  0  0  0  0
 37 19  1  0  0  0  0
 39 20  1  0  0  0  0
 41 21  1  0  0  0  0
 43 22  1  0  0  0  0
M  END
$$$$
