
     RDKit          3D

 44 46  0  0  0  0  0  0  0  0999 V2000
   -0.0472   -0.0183    0.1545 N   0  0  0  0  0  0  0  0  0  0  0  0
    0.9610    0.0282    0.2007 H   0  0  0  0  0  0  0  0  0  0  0  0
   -0.7973    0.0307   -1.0072 C   0  0  0  0  0  0  0  0  0  0  0  0
   -2.1412   -0.0166   -0.7060 C   0  0  0  0  0  0  0  0  0  0  0  0
   -2.2259   -0.0971    0.7356 C   0  0  0  0  0  0  0  0  0  0  0  0
   -3.2983   -0.1522    1.6470 C   0  0  0  0  0  0  0  0  0  0  0  0
   -3.0238   -0.2160    3.0094 C   0  0  0  0  0  0  0  0  0  0  0  0
   -1.6943   -0.2264    3.4869 C   0  0  0  0  0  0  0  0  0  0  0  0
   -0.6132   -0.1636    2.6122 C   0  0  0  0  0  0  0  0  0  0  0  0
   -0.8909   -0.0964    1.2401 C   0  0  0  0  0  0  0  0  0  0  0  0
   -3.2891   -0.0743   -1.6696 C   0  0  0  0  0  0  0  0  0  0  0  0
   -3.7150   -1.5180   -2.0095 C   0  0  0  0  0  0  0  0  0  0  0  0
   -4.0443   -2.3203   -0.8482 N   0  0  0  0  0  0  0  0  0  0  0  0
   -5.2994   -2.2130   -0.2771 C   0  0  0  0  0  0  0  0  0  0  0  0
   -6.2302   -1.6465   -0.8346 O   0  0  0  0  0  0  0  0  0  0  0  0
   -5.4121   -2.8108    0.9560 N   0  0  0  0  0  0  0  0  0  0  0  0
   -6.6566   -2.8069    1.7101 C   0  0  0  0  0  0  0  0  0  0  0  0
   -7.1456   -4.2377    1.9962 C   0  0  0  0  0  0  0  0  0  0  0  0
   -6.2506   -4.9621    3.0087 C   0  0  0  0  0  0  0  0  0  0  0  0
   -6.1115   -4.1600    4.3085 C   0  0  0  0  0  0  0  0  0  0  0  0
   -5.6223   -2.7321    4.0377 C   0  0  0  0  0  0  0  0  0  0  0  0
   -6.5228   -2.0167    3.0244 C   0  0  0  0  0  0  0  0  0  0  0  0
   -0.3109    0.1009   -1.9787 H   0  0  0  0  0  0  0  0  0  0  0  0
   -4.3293   -0.1343    1.2903 H   0  0  0  0  0  0  0  0  0  0  0  0
   -3.8477   -0.2526    3.7249 H   0  0  0  0  0  0  0  0  0  0  0  0
   -1.5114   -0.2783    4.5627 H   0  0  0  0  0  0  0  0  0  0  0  0
    0.4144   -0.1637    2.9838 H   0  0  0  0  0  0  0  0  0  0  0  0
   -3.0262    0.4413   -2.6081 H   0  0  0  0  0  0  0  0  0  0  0  0
   -4.1623    0.4507   -1.2507 H   0  0  0  0  0  0  0  0  0  0  0  0
   -2.9022   -2.0218   -2.5576 H   0  0  0  0  0  0  0  0  0  0  0  0
   -4.6037   -1.4974   -2.6548 H   0  0  0  0  0  0  0  0  0  0  0  0
   -3.2711   -2.5325   -0.2272 H   0  0  0  0  0  0  0  0  0  0  0  0
   -4.5942   -3.2401    1.3679 H   0  0  0  0  0  0  0  0  0  0  0  0
   -7.3753   -2.3001    1.0524 H   0  0  0  0  0  0  0  0  0  0  0  0
   -7.2040   -4.7984    1.0500 H   0  0  0  0  0  0  0  0  0  0  0  0
   -8.1716   -4.1786    2.4003 H   0  0  0  0  0  0  0  0  0  0  0  0
   -6.6491   -5.9684    3.2174 H   0  0  0  0  0  0  0  0  0  0  0  0
   -5.2484   -5.1219    2.5683 H   0  0  0  0  0  0  0  0  0  0  0  0
   -7.0968   -4.1137    4.8078 H   0  0  0  0  0  0  0  0  0  0  0  0
   -5.4315   -4.6743    5.0078 H   0  0  0  0  0  0  0  0  0  0  0  0
   -5.5744   -2.1566    4.9770 H   0  0  0  0  0  0  0  0  0  0  0  0
   -4.5868   -2.7618    3.6527 H   0  0  0  0  0  0  0  0  0  0  0  0
   -7.5304   -1.8943    3.4592 H   0  0  0  0  0  0  0  0  0  0  0  0
   -6.1452   -1.0054    2.8067 H   0  0  0  0  0  0  0  0  0  0  0  0
  1  2  1  0
  1  3  1  0
  1 10  1  0
  3  4  2  0
  3 23  1  0
  4  5  1  0
  4 11  1  0
  5  6  1  0
  5 10  2  0
  6  7  2  0
  6 24  1  0
  7  8  1  0
  7 25  1  0
  8  9  2  0
  8 26  1  0
  9 10  1  0
  9 27  1  0
 11 12  1  0
 11 28  1  0
 11 29  1  0
 12 13  1  0
 12 30  1  0
 12 31  1  0
 13 14  1  0
 13 32  1  0
 14 15  2  0
 14 16  1  0
 16 17  1  0
 16 33  1  0
 17 18  1  0
 17 22  1  0
 17 34  1  0
 18 19  1  0
 18 35  1  0
 18 36  1  0
 19 20  1  0
 19 37  1  0
 19 38  1  0
 20 21  1  0
 20 39  1  0
 20 40  1  0
 21 22  1  0
 21 41  1  0
 21 42  1  0
 22 43  1  0
 22 44  1  0
M  END

