44
rmsd165.gzmat
N          0.00000        0.00000        0.00000
H          0.99210        0.00000        0.00000
C         -0.81940        0.00000       -1.13480
C         -2.14920       -0.06190       -0.74900
C         -2.17510       -0.12140        0.68810
C         -3.19780       -0.19600        1.63900
C         -2.85760       -0.23120        2.97840
C         -1.50900       -0.19380        3.39630
C         -0.47150       -0.12090        2.48690
C         -0.81360       -0.08500        1.12820
C         -3.32860       -0.01040       -1.63510
C         -3.94200        1.41120       -1.63390
N         -2.94510        2.43870       -1.97070
C         -2.71760        2.66430       -3.33720
O         -3.49820        2.30940       -4.20090
N         -1.51710        3.33000       -3.63490
C         -1.38610        3.86490       -5.00700
C         -2.19530        5.16450       -5.20590
C         -1.60350        6.33910       -4.42250
C         -0.13490        6.55780       -4.80600
C          0.68780        5.29070       -4.54340
C          0.11070        4.09220       -5.30490
H         -0.39740        0.05000       -2.12210
H         -4.23610       -0.22630        1.31720
H         -3.63630       -0.28910        3.73570
H         -1.29230       -0.22450        4.46380
H          0.56450       -0.09300        2.80350
H         -4.09640       -0.74440       -1.31560
H         -3.06350       -0.29540       -2.67600
H         -4.34520        1.65640       -0.62570
H         -4.78890        1.46270       -2.35700
H         -2.15340        2.46300       -1.33610
H         -1.09240        3.90930       -2.92130
H         -1.78610        3.08050       -5.70960
H         -3.24830        4.99150       -4.90750
H         -2.22750        5.40660       -6.28460
H         -2.18790        7.25720       -4.62120
H         -1.69230        6.16000       -3.33520
H         -0.06180        6.84140       -5.87260
H          0.28490        7.40670       -4.23680
H          1.73930        5.45340       -4.84570
H          0.72200        5.07850       -3.45920
H          0.23410        4.24600       -6.39370
H          0.68030        3.17560       -5.05760
