44
rmsd69.gzmat
N          0.00000        0.00000        0.00000
H          0.99230        0.00000        0.00000
C         -0.81930        0.00000       -1.13470
C         -2.14930        0.06150       -0.74910
C         -2.17590        0.11990        0.68770
C         -3.19910        0.19360        1.63830
C         -2.85960        0.22930        2.97780
C         -1.51110        0.19160        3.39620
C         -0.47310        0.11800        2.48740
C         -0.81380        0.08340        1.12820
C         -3.32600        0.01160       -1.63830
C         -3.92840       -1.41470       -1.65810
N         -2.91710       -2.43610       -1.97330
C         -2.56310       -2.55230       -3.32810
O         -3.25420       -2.11490       -4.22920
N         -1.34270       -3.20640       -3.56390
C         -1.05810       -3.58310       -4.96430
C          0.46140       -3.80900       -5.10980
C          0.93090       -5.10110       -4.43190
C          0.13740       -6.30780       -4.94750
C         -1.36590       -6.10650       -4.71850
C         -1.85140       -4.82950       -5.40960
H         -0.39930       -0.05040       -2.12310
H         -4.23740        0.22430        1.31670
H         -3.63850        0.28850        3.73470
H         -1.29460        0.22300        4.46340
H          0.56210        0.08800        2.80650
H         -3.05810        0.30830       -2.67620
H         -4.10050        0.73580       -1.31390
H         -4.75170       -1.47000       -2.40790
H         -4.35910       -1.66710       -0.66370
H         -2.18050       -2.51020       -1.27810
H         -1.00510       -3.86870       -2.87670
H         -1.36530       -2.71300       -5.61110
H          1.00650       -2.94080       -4.69200
H          0.71220       -3.83920       -6.18720
H          2.01090       -5.24990       -4.62020
H          0.82950       -5.02030       -3.33420
H          0.33720       -6.45610       -6.02540
H          0.47920       -7.23050       -4.44500
H         -1.92710       -6.97790       -5.10550
H         -1.58700       -6.06660       -3.63610
H         -1.76330       -4.93820       -6.50670
H         -2.92980       -4.66790       -5.21090
