44
rmsd112.gzmat
N          0.00000        0.00000        0.00000
H          0.99210        0.00000        0.00000
C         -0.82000        0.00000       -1.13450
C         -2.15000        0.04170       -0.74780
C         -2.17590        0.08370        0.69010
C         -3.19870        0.13440        1.64260
C         -2.85880        0.15210        2.98220
C         -1.50960        0.12580        3.39950
C         -0.47160        0.08190        2.48910
C         -0.81380        0.05840        1.12930
C         -3.32970       -0.00110       -1.63420
C         -4.06450       -1.35620       -1.49870
N         -3.16490       -2.49650       -1.72650
C         -3.00250       -2.91590       -3.05520
O         -3.76030       -2.58330       -3.94780
N         -1.90080       -3.75920       -3.27560
C         -1.88010       -4.48520       -4.56370
C         -0.46860       -5.07150       -4.77470
C         -0.17720       -6.25440       -3.84390
C         -1.25800       -7.33500       -3.97180
C         -2.64640       -6.75160       -3.68140
C         -2.95290       -5.59300       -4.63330
H         -0.39840       -0.03630       -2.12200
H         -4.23780        0.16100        1.32270
H         -3.63780        0.18660        3.74040
H         -1.29330        0.14270        4.46730
H          0.56440        0.06630        2.80660
H         -3.04160        0.15550       -2.69600
H         -4.03090        0.82470       -1.39380
H         -4.91560       -1.40330       -2.21770
H         -4.48550       -1.46680       -0.47380
H         -2.36320       -2.51850       -1.10520
H         -1.53650       -4.28980       -2.49370
H         -2.09270       -3.72820       -5.36970
H          0.28860       -4.27740       -4.62940
H         -0.37560       -5.39460       -5.82890
H          0.81420       -6.68240       -4.08420
H         -0.10450       -5.91240       -2.79550
H         -1.23790       -7.77050       -4.98810
H         -1.04380       -8.16960       -3.28000
H         -3.41760       -7.53790       -3.78490
H         -2.70690       -6.41160       -2.63140
H         -3.02060       -5.96430       -5.67250
H         -3.94700       -5.15690       -4.40760
