44
rmsd212.gzmat
N          0.00000        0.00000        0.00000
H          0.99150        0.00000        0.00000
C         -0.81910        0.00000       -1.13570
C         -2.14940        0.02480       -0.74970
C         -2.17700        0.04920        0.68920
C         -3.20090        0.07970        1.64200
C         -2.86270        0.08520        2.98170
C         -1.51360        0.07280        3.39970
C         -0.47440        0.04900        2.48990
C         -0.81510        0.03530        1.12920
C         -3.33060        0.00230       -1.63410
C         -3.77740       -1.44960       -1.92580
N         -4.15040       -2.17610       -0.70300
C         -5.44830       -1.94750       -0.21770
O         -6.32420       -1.44210       -0.89570
N         -5.65840       -2.34410        1.11160
C         -7.05750       -2.34370        1.58820
C         -7.91070       -3.44760        0.92950
C         -7.50200       -4.84690        1.39460
C         -7.58870       -4.95020        2.92210
C         -6.68230       -3.90480        3.58310
C         -7.04940       -2.48860        3.12440
H         -0.39630       -0.02120       -2.12180
H         -4.24300        0.09560        1.32250
H         -3.64410        0.10280        3.73840
H         -1.29750        0.08430        4.46730
H          0.56150        0.04350        2.80710
H         -3.12750        0.52390       -2.59070
H         -4.17720        0.55960       -1.17400
H         -2.95510       -2.01800       -2.41380
H         -4.64460       -1.44350       -2.62760
H         -3.39250       -2.27550       -0.03390
H         -5.08140       -3.08100        1.49670
H         -7.49440       -1.34330        1.31180
H         -7.82920       -3.36590       -0.17350
H         -8.97610       -3.26670        1.16220
H         -8.15410       -5.60550        0.92360
H         -6.47660       -5.08030        1.05340
H         -8.63460       -4.80550        3.25070
H         -7.30390       -5.96520        3.25280
H         -6.76710       -3.97390        4.68370
H         -5.62330       -4.12320        3.35410
H         -8.05110       -2.21890        3.50830
H         -6.34600       -1.75450        3.56300
