
     RDKit          3D

 56 60  0  0  0  0  0  0  0  0999 V2000
    0.3541    0.1129    0.0626 C   0  0  0  0  0  0  0  0  0  0  0  0
    1.8252    0.3617   -0.0825 C   0  0  0  0  0  0  0  0  0  0  0  0
    2.6381    0.7068    0.9700 C   0  0  0  0  0  0  0  0  0  0  0  0
    4.0299    0.9317    0.7777 C   0  0  0  0  0  0  0  0  0  0  0  0
    4.5630    0.8062   -0.4690 C   0  0  0  0  0  0  0  0  0  0  0  0
    3.7661    0.4624   -1.5397 N   0  0  0  0  0  0  0  0  0  0  0  0
    2.3997    0.2301   -1.3989 C   0  0  0  0  0  0  0  0  0  0  0  0
    1.6353   -0.0957   -2.4231 N   0  0  0  0  0  0  0  0  0  0  0  0
    2.1817   -0.2177   -3.6529 C   0  0  0  0  0  0  0  0  0  0  0  0
    3.5365   -0.0236   -3.9015 C   0  0  0  0  0  0  0  0  0  0  0  0
    4.4069    0.3600   -2.8310 C   0  0  0  0  0  0  0  0  0  0  0  0
    5.6085    0.6045   -2.9126 O   0  0  0  0  0  0  0  0  0  0  0  0
    4.1799   -0.1220   -5.2581 C   0  0  0  0  0  0  0  0  0  0  0  0
    4.4277    1.2734   -5.8433 C   0  0  0  0  0  0  0  0  0  0  0  0
    5.1807    1.2829   -7.0925 N   0  0  0  0  0  0  0  0  0  0  0  0
    5.3553    2.6427   -7.5984 C   0  0  0  0  0  0  0  0  0  0  0  0
    6.3176    3.4897   -6.7484 C   0  0  0  0  0  0  0  0  0  0  0  0
    7.6800    2.7821   -6.5684 C   0  0  0  0  0  0  0  0  0  0  0  0
    8.1957    2.7987   -7.5435 H   0  0  0  0  0  0  0  0  0  0  0  0
    7.5006    1.3093   -6.1471 C   0  0  0  0  0  0  0  0  0  0  0  0
    6.4790    0.6107   -7.0530 C   0  0  0  0  0  0  0  0  0  0  0  0
    8.5484    3.5467   -5.6141 C   0  0  0  0  0  0  0  0  0  0  0  0
    9.5685    4.2343   -6.0549 N   0  0  0  0  0  0  0  0  0  0  0  0
   10.1547    4.8834   -4.9565 O   0  0  0  0  0  0  0  0  0  0  0  0
    9.4576    4.5676   -3.8495 C   0  0  0  0  0  0  0  0  0  0  0  0
    9.7105    5.0079   -2.5475 C   0  0  0  0  0  0  0  0  0  0  0  0
    8.8354    4.5258   -1.5829 C   0  0  0  0  0  0  0  0  0  0  0  0
    7.7697    3.6517   -1.8696 C   0  0  0  0  0  0  0  0  0  0  0  0
    7.5434    3.2279   -3.1740 C   0  0  0  0  0  0  0  0  0  0  0  0
    8.4014    3.7029   -4.1827 C   0  0  0  0  0  0  0  0  0  0  0  0
    9.0128    4.9047   -0.3092 F   0  0  0  0  0  0  0  0  0  0  0  0
    1.2263   -0.5856   -4.7575 C   0  0  0  0  0  0  0  0  0  0  0  0
    0.0325    0.2421    1.1053 H   0  0  0  0  0  0  0  0  0  0  0  0
    0.0979   -0.9037   -0.2735 H   0  0  0  0  0  0  0  0  0  0  0  0
   -0.2196    0.7965   -0.5821 H   0  0  0  0  0  0  0  0  0  0  0  0
    2.2092    0.8091    1.9696 H   0  0  0  0  0  0  0  0  0  0  0  0
    4.6753    1.2017    1.6142 H   0  0  0  0  0  0  0  0  0  0  0  0
    5.6107    0.9492   -0.7286 H   0  0  0  0  0  0  0  0  0  0  0  0
    3.5772   -0.7190   -5.9562 H   0  0  0  0  0  0  0  0  0  0  0  0
    5.1421   -0.6379   -5.1280 H   0  0  0  0  0  0  0  0  0  0  0  0
    4.9036    1.8803   -5.0488 H   0  0  0  0  0  0  0  0  0  0  0  0
    3.4525    1.7497   -6.0441 H   0  0  0  0  0  0  0  0  0  0  0  0
    4.3702    3.1338   -7.6578 H   0  0  0  0  0  0  0  0  0  0  0  0
    5.7432    2.5767   -8.6303 H   0  0  0  0  0  0  0  0  0  0  0  0
    6.4766    4.4740   -7.2172 H   0  0  0  0  0  0  0  0  0  0  0  0
    5.8725    3.6866   -5.7597 H   0  0  0  0  0  0  0  0  0  0  0  0
    8.4720    0.7909   -6.1959 H   0  0  0  0  0  0  0  0  0  0  0  0
    7.1628    1.2398   -5.1020 H   0  0  0  0  0  0  0  0  0  0  0  0
    6.8626    0.5841   -8.0881 H   0  0  0  0  0  0  0  0  0  0  0  0
    6.3503   -0.4373   -6.7475 H   0  0  0  0  0  0  0  0  0  0  0  0
   10.5304    5.6788   -2.2935 H   0  0  0  0  0  0  0  0  0  0  0  0
    7.1374    3.3140   -1.0472 H   0  0  0  0  0  0  0  0  0  0  0  0
    6.7345    2.5257   -3.3763 H   0  0  0  0  0  0  0  0  0  0  0  0
    1.2766    0.1334   -5.5899 H   0  0  0  0  0  0  0  0  0  0  0  0
    1.4661   -1.5778   -5.1733 H   0  0  0  0  0  0  0  0  0  0  0  0
    0.2040   -0.6076   -4.3608 H   0  0  0  0  0  0  0  0  0  0  0  0
  1  2  1  0
  1 33  1  0
  1 34  1  0
  1 35  1  0
  2  3  2  0
  2  7  1  0
  3  4  1  0
  3 36  1  0
  4  5  2  0
  4 37  1  0
  5  6  1  0
  5 38  1  0
  6  7  1  0
  6 11  1  0
  7  8  2  0
  8  9  1  0
  9 10  2  0
  9 32  1  0
 10 11  1  0
 10 13  1  0
 11 12  2  0
 13 14  1  0
 13 39  1  0
 13 40  1  0
 14 15  1  0
 14 41  1  0
 14 42  1  0
 15 16  1  0
 15 21  1  0
 16 17  1  0
 16 43  1  0
 16 44  1  0
 17 18  1  0
 17 45  1  0
 17 46  1  0
 18 19  1  0
 18 20  1  0
 18 22  1  0
 20 21  1  0
 20 47  1  0
 20 48  1  0
 21 49  1  0
 21 50  1  0
 22 23  2  0
 22 30  1  0
 23 24  1  0
 24 25  1  0
 25 26  1  0
 25 30  2  0
 26 27  2  0
 26 51  1  0
 27 28  1  0
 27 31  1  0
 28 29  2  0
 28 52  1  0
 29 30  1  0
 29 53  1  0
 32 54  1  0
 32 55  1  0
 32 56  1  0
M  END

