56
rmsd101.gzmat
C          0.00000        0.00000        0.00000
C          1.48450        0.00000        0.00000
C          2.22470        0.00000        1.14420
C          3.64870        0.00210        1.08570
C          4.28350        0.00830       -0.11980
N          3.55500        0.01080       -1.30850
C          2.15400        0.00270       -1.29070
N          1.44900        0.00030       -2.42120
C          2.07760        0.01790       -3.63720
C          3.45290        0.03370       -3.75020
C          4.27550        0.02290       -2.57790
O          5.48380        0.03360       -2.49490
C          4.18070        0.08140       -5.04990
C          4.80770        1.48080       -5.22540
N          5.41220        1.65250       -6.56930
C          6.03090        2.99410       -6.68060
C          7.28720        3.17940       -5.80650
C          8.31580        2.07200       -6.10080
H          8.71850        2.22900       -7.13800
C          7.68070        0.67320       -6.03320
C          6.41810        0.62550       -6.91090
C          9.42760        2.16840       -5.11280
N         10.65770        2.52300       -5.44140
O         11.47340        2.53810       -4.31710
C         10.69510        2.17010       -3.24190
C         11.10520        2.05440       -1.92080
C         10.09900        1.65890       -1.04430
C          8.77250        1.38830       -1.42580
C          8.40110        1.51820       -2.75800
C          9.36890        1.91570       -3.67600
F         10.40880        1.52590        0.23560
C          1.15870        0.02440       -4.81060
H         -0.43280       -0.03300        1.00670
H         -0.39790       -0.86110       -0.56630
H         -0.39800        0.89550       -0.50950
H          1.74450       -0.00100        2.12430
H          4.21620       -0.00110        2.01500
H          5.37960        0.01040       -0.23010
H          3.51940       -0.14260       -5.90940
H          4.97260       -0.69950       -5.06620
H          5.53250        1.65930       -4.39990
H          4.00900        2.25100       -5.13070
H          5.26910        3.76010       -6.42360
H          6.28310        3.15500       -7.75190
H          7.73710        4.17110       -5.99680
H          7.00990        3.17500       -4.73570
H          8.40670       -0.09100       -6.36440
H          7.42010        0.40740       -4.99020
H          6.68870        0.77310       -7.98090
H          5.94660       -0.37760       -6.85540
H         12.12380        2.25700       -1.60700
H          8.03980        1.07150       -0.68430
H          7.37440        1.30440       -3.07130
H          1.29990        0.93140       -5.42050
H          1.33420       -0.84570       -5.46180
H          0.09870       -0.00480       -4.50540
