56
rmsd109.gzmat
C          0.00000        0.00000        0.00000
C          1.48430        0.00000        0.00000
C          2.22400        0.00000        1.14430
C          3.64770        0.01070        1.08570
C          4.28200        0.02660       -0.12050
N          3.55520        0.02640       -1.30930
C          2.15430        0.00540       -1.29060
N          1.44780       -0.00960       -2.42000
C          2.07690       -0.00060       -3.63560
C          3.45200        0.03370       -3.75030
C          4.27870        0.04870       -2.58200
O          5.48440        0.07790       -2.49810
C          4.15140        0.07580       -5.06410
C          4.25760        1.53950       -5.55480
N          4.26010        1.55420       -7.03660
C          3.93110        2.89070       -7.57340
C          5.04130        3.93920       -7.37030
C          6.35730        3.42680       -7.98090
H          6.22590        3.34600       -9.09420
C          6.71870        2.03730       -7.42960
C          5.53210        1.07200       -7.61150
C          7.45470        4.38760       -7.67810
N          8.13010        5.03460       -8.61140
O          9.08590        5.85940       -8.03290
C          8.98740        5.70550       -6.66780
C          9.75370        6.34260       -5.70140
C          9.43260        5.99020       -4.39420
C          8.42520        5.07200       -4.04240
C          7.67970        4.45650       -5.03950
C          7.96170        4.77450       -6.36460
F         10.11970        6.55320       -3.41360
C          1.16420       -0.03430       -4.81290
H         -0.43200       -0.05130        1.00610
H         -0.39960       -0.84900       -0.58280
H         -0.39620        0.90490       -0.49340
H          1.74460       -0.00640        2.12430
H          4.21570        0.00720        2.01410
H          5.37800        0.03900       -0.22930
H          3.61490       -0.53620       -5.82060
H          5.16410       -0.37370       -4.98780
H          5.15010        2.02200       -5.10580
H          3.37520        2.11520       -5.19910
H          2.98290        3.23980       -7.11250
H          3.71840        2.76610       -8.65900
H          4.75100        4.89700       -7.83970
H          5.16800        4.15590       -6.29420
H          7.61140        1.64160       -7.94810
H          6.99650        2.09900       -6.36130
H          5.35330        0.88890       -8.69490
H          5.77540        0.08380       -7.16530
H         10.53650        7.05150       -5.95230
H          8.23340        4.84500       -2.99360
H          6.89490        3.74190       -4.78870
H          1.44080        0.72520       -5.56230
H          1.20820       -1.01460       -5.31420
H          0.11370        0.13850       -4.52820
