56
rmsd166.gzmat
C          0.00000        0.00000        0.00000
C          1.48440        0.00000        0.00000
C          2.22740        0.00000        1.14230
C          3.65140        0.00840        1.08040
C          4.28360        0.02140       -0.12630
N          3.55200        0.02170       -1.31320
C          2.15140        0.00320       -1.29180
N          1.44270       -0.01580       -2.41980
C          2.06690        0.00900       -3.63780
C          3.44060        0.06500       -3.75470
C          4.26740        0.05100       -2.58520
O          5.47610        0.04500       -2.50740
C          4.16370        0.13150       -5.05590
C          4.83990       -1.22730       -5.33260
N          5.48470       -1.25000       -6.66830
C          6.53240       -0.22150       -6.83900
C          7.75860       -0.42040       -5.93080
C          8.35000       -1.82580       -6.13410
H          8.80610       -1.87420       -7.15960
C          7.27510       -2.92330       -6.02900
C          6.07120       -2.58480       -6.93000
C          9.40050       -2.07350       -5.10600
N         10.64260       -2.41010       -5.40660
O         11.39140       -2.57820       -4.24880
C         10.55710       -2.32880       -3.18160
C         10.89260       -2.37880       -1.83550
C          9.84290       -2.07290       -0.97420
C          8.54160       -1.74150       -1.39270
C          8.24540       -1.70340       -2.74950
C          9.26080       -1.99990       -3.65420
F         10.08230       -2.09550        0.32740
C          1.14530       -0.03140       -4.80840
H         -0.43210        0.04960        1.00610
H         -0.39790       -0.90270       -0.49650
H         -0.39870        0.85120       -0.58080
H          1.75010       -0.00420        2.12360
H          4.22120        0.00820        2.00840
H          5.37950        0.03490       -0.23950
H          4.92840        0.93870       -5.01840
H          3.49310        0.39650       -5.89650
H          4.06640       -2.02710       -5.32530
H          5.55050       -1.45410       -4.50680
H          6.08740        0.78110       -6.66770
H          6.83980       -0.24020       -7.90870
H          8.52320        0.34790       -6.14640
H          7.46880       -0.26190       -4.87340
H          7.70180       -3.90090       -6.31970
H          6.94480       -3.04080       -4.98000
H          6.37330       -2.61120       -8.00030
H          5.27660       -3.35170       -6.81500
H         11.88990       -2.63330       -1.49230
H          7.76980       -1.50950       -0.65980
H          7.24070       -1.43600       -3.09090
H          1.18840        0.90640       -5.38310
H          1.40510       -0.85450       -5.49280
H          0.09520       -0.17550       -4.50240
