56
rmsd177.gzmat
C          0.00000        0.00000        0.00000
C          1.48450        0.00000        0.00000
C          2.22500        0.00000        1.14380
C          3.64890        0.00060        1.08440
C          4.28290        0.00330       -0.12170
N          3.55430        0.00800       -1.30970
C          2.15350        0.00520       -1.29060
N          1.44670        0.00600       -2.41990
C          2.07490        0.03590       -3.63630
C          3.44930        0.06610       -3.75100
C          4.27540        0.02660       -2.58140
O          5.48180       -0.00470       -2.50080
C          4.17060        0.12330       -5.05250
C          4.65490       -1.29390       -5.43240
N          5.20590       -1.27000       -6.80780
C          6.53310       -0.62470       -6.88330
C          7.67040       -1.42710       -6.22220
C          7.71530       -2.85620       -6.78770
H          8.03630       -2.80360       -7.86310
C          6.33330       -3.53140       -6.72320
C          5.27590       -2.62870       -7.38570
C          8.68820       -3.67740       -6.01340
N          9.71680       -4.29800       -6.56380
O         10.42880       -5.00160       -5.60070
C          9.79660       -4.79890       -4.39420
C         10.16790       -5.32140       -3.16280
C          9.33770       -4.94730       -2.11050
C          8.21390       -4.11020       -2.24270
C          7.87570       -3.60730       -3.49240
C          8.67120       -3.95590       -4.57980
F          9.62190       -5.40620       -0.90230
C          1.15630        0.03270       -4.81000
H         -0.43220        0.00100        1.00740
H         -0.39820       -0.87850       -0.53810
H         -0.39690        0.87820       -0.53980
H          1.74620        0.00130        2.12420
H          4.21710        0.00130        2.01280
H          5.37930        0.00520       -0.23270
H          5.03810        0.81530       -4.98320
H          3.53650        0.53320       -5.86360
H          3.79160       -1.99310       -5.40490
H          5.38380       -1.65070       -4.67330
H          6.46700        0.38510       -6.42380
H          6.75680       -0.46100       -7.96110
H          8.63820       -0.92010       -6.39160
H          7.53130       -1.44050       -5.12440
H          6.36740       -4.51440       -7.22760
H          6.05110       -3.73850       -5.67480
H          5.49370       -2.51600       -8.47140
H          4.27210       -3.09870       -7.32020
H         11.03380       -5.96430       -3.03990
H          7.61590       -3.85400       -1.36810
H          7.01100       -2.95230       -3.61380
H          1.19140        0.99590       -5.34330
H          1.42730       -0.75620       -5.52910
H          0.10720       -0.13480       -4.51200
