56
rmsd124.gzmat
C          0.00000        0.00000        0.00000
C          1.48460        0.00000        0.00000
C          2.22520        0.00000        1.14390
C          3.64910       -0.00470        1.08450
C          4.28280       -0.00680       -0.12200
N          3.55490       -0.00520       -1.31030
C          2.15380       -0.00290       -1.29100
N          1.44650        0.00020       -2.42020
C          2.07490       -0.01540       -3.63640
C          3.45010       -0.03300       -3.75080
C          4.27680       -0.00760       -2.58240
O          5.48320        0.02030       -2.50150
C          4.16210       -0.05630       -5.05860
C          4.56270        1.38240       -5.45590
N          4.74920        1.46890       -6.92380
C          4.88020        2.87440       -7.36400
C          6.20800        3.54010       -6.95370
C          7.39240        2.70360       -7.46950
H          7.38490        2.73070       -8.59310
C          7.27300        1.23910       -7.01630
C          5.89520        0.67760       -7.41540
C          8.66710        3.28820       -6.96700
N          9.58650        3.80930       -7.76060
O         10.65610        4.28620       -7.01420
C         10.37160        4.04270       -5.68900
C         11.16660        4.35990       -4.59610
C         10.62320        3.99240       -3.36910
C          9.38130        3.34950       -3.20940
C          8.61530        3.04880       -4.32810
C          9.11090        3.40080       -5.58010
F         11.31850        4.26400       -2.27660
C          1.16060       -0.01120       -4.81300
H         -0.43220        0.03290        1.00690
H         -0.39690       -0.89580       -0.50990
H         -0.39900        0.85960       -0.56770
H          1.74580        0.00280        2.12420
H          4.21780       -0.00730        2.01280
H          5.37890       -0.01070       -0.23280
H          3.53350       -0.50480       -5.85550
H          5.06670       -0.69870       -4.99550
H          5.45890        1.68990       -4.87680
H          3.74310        2.08160       -5.17720
H          4.02120        3.45610       -6.96780
H          4.77490        2.88400       -8.47200
H          6.25980        4.56660       -7.36060
H          6.25700        3.64770       -5.85460
H          8.07640        0.63170       -7.47150
H          7.41340        1.15190       -5.92270
H          5.80900        0.63220       -8.52460
H          5.79270       -0.36840       -7.05650
H         12.12830        4.85280       -4.69810
H          9.02520        3.08520       -2.21340
H          7.65220        2.54570       -4.22470
H          1.44190        0.77190       -5.53580
H          1.19490       -0.97610       -5.34300
H          0.11130        0.16280       -4.52230
