rmsd199.gzmat
 OpenBabel08211713403D

 56 60  0  0  1  0  0  0  0  0999 V2000
    0.0000    0.0000    0.0000 C   0  0  0  0  0  0  0  0  0  0  0  0
    1.4846    0.0000    0.0000 C   0  0  0  0  0  0  0  0  0  0  0  0
    2.2238    0.0000    1.1448 C   0  0  0  0  0  0  0  0  0  0  0  0
    3.6475   -0.0013    1.0874 C   0  0  0  0  0  0  0  0  0  0  0  0
    4.2829   -0.0062   -0.1182 C   0  0  0  0  0  0  0  0  0  0  0  0
    3.5564   -0.0070   -1.3073 N   0  0  0  0  0  0  0  0  0  0  0  0
    2.1555    0.0018   -1.2900 C   0  0  0  0  0  0  0  0  0  0  0  0
    1.4506    0.0109   -2.4205 N   0  0  0  0  0  0  0  0  0  0  0  0
    2.0816    0.0328   -3.6355 C   0  0  0  0  0  0  0  0  0  0  0  0
    3.4563    0.0317   -3.7493 C   0  0  1  0  0  0  0  0  0  0  0  0
    4.2809   -0.0062   -2.5787 C   0  0  0  0  0  0  0  0  0  0  0  0
    5.4865   -0.0400   -2.4942 O   0  0  0  0  0  0  0  0  0  0  0  0
    4.1721    0.0631   -5.0540 C   0  0  0  0  0  0  0  0  0  0  0  0
    4.4097   -1.3797   -5.5558 C   0  0  0  0  0  0  0  0  0  0  0  0
    4.9866   -1.3020   -6.9181 N   0  0  0  0  0  0  0  0  0  0  0  0
    6.4505   -1.1048   -6.8996 C   0  0  0  0  0  0  0  0  0  0  0  0
    7.2536   -2.3405   -6.4479 C   0  0  0  0  0  0  0  0  0  0  0  0
    6.8645   -3.5647   -7.2931 C   0  0  2  0  0  0  0  0  0  0  0  0
    7.2082   -3.3917   -8.3488 H   0  0  0  0  0  0  0  0  0  0  0  0
    5.3396   -3.7752   -7.3023 C   0  0  0  0  0  0  0  0  0  0  0  0
    4.6383   -2.4769   -7.7411 C   0  0  0  0  0  0  0  0  0  0  0  0
    7.5183   -4.7866   -6.7468 C   0  0  0  0  0  0  0  0  0  0  0  0
    8.3464   -5.5447   -7.4431 N   0  0  0  0  0  0  0  0  0  0  0  0
    8.7733   -6.6232   -6.6787 O   0  0  0  0  0  0  0  0  0  0  0  0
    8.1695   -6.5159   -5.4456 C   0  0  0  0  0  0  0  0  0  0  0  0
    8.3057   -7.3859   -4.3723 C   0  0  0  0  0  0  0  0  0  0  0  0
    7.5698   -7.0250   -3.2477 C   0  0  0  0  0  0  0  0  0  0  0  0
    6.7499   -5.8836   -3.1651 C   0  0  0  0  0  0  0  0  0  0  0  0
    6.6409   -5.0374   -4.2607 C   0  0  0  0  0  0  0  0  0  0  0  0
    7.3523   -5.3573   -5.4130 C   0  0  0  0  0  0  0  0  0  0  0  0
    7.6425   -7.8052   -2.1818 F   0  0  0  0  0  0  0  0  0  0  0  0
    1.1649    0.0617   -4.8107 C   0  0  0  0  0  0  0  0  0  0  0  0
   -0.4317    0.0197    1.0074 H   0  0  0  0  0  0  0  0  0  0  0  0
   -0.3988   -0.8880   -0.5214 H   0  0  0  0  0  0  0  0  0  0  0  0
   -0.3977    0.8682   -0.5552 H   0  0  0  0  0  0  0  0  0  0  0  0
    1.7439    0.0023    2.1247 H   0  0  0  0  0  0  0  0  0  0  0  0
    4.2148    0.0029    2.0163 H   0  0  0  0  0  0  0  0  0  0  0  0
    5.3792   -0.0084   -0.2270 H   0  0  0  0  0  0  0  0  0  0  0  0
    5.1446    0.5928   -4.9571 H   0  0  0  0  0  0  0  0  0  0  0  0
    3.6097    0.6369   -5.8183 H   0  0  0  0  0  0  0  0  0  0  0  0
    3.4426   -1.9230   -5.5866 H   0  0  0  0  0  0  0  0  0  0  0  0
    5.0558   -1.9238   -4.8355 H   0  0  0  0  0  0  0  0  0  0  0  0
    6.6842   -0.2402   -6.2401 H   0  0  0  0  0  0  0  0  0  0  0  0
    6.7553   -0.8062   -7.9273 H   0  0  0  0  0  0  0  0  0  0  0  0
    8.3376   -2.1425   -6.5408 H   0  0  0  0  0  0  0  0  0  0  0  0
    7.0795   -2.5325   -5.3728 H   0  0  0  0  0  0  0  0  0  0  0  0
    5.0732   -4.6028   -7.9847 H   0  0  0  0  0  0  0  0  0  0  0  0
    4.9826   -4.0807   -6.3022 H   0  0  0  0  0  0  0  0  0  0  0  0
    4.9091   -2.2352   -8.7936 H   0  0  0  0  0  0  0  0  0  0  0  0
    3.5360   -2.6103   -7.7300 H   0  0  0  0  0  0  0  0  0  0  0  0
    8.9341   -8.2698   -4.4156 H   0  0  0  0  0  0  0  0  0  0  0  0
    6.2050   -5.6671   -2.2462 H   0  0  0  0  0  0  0  0  0  0  0  0
    6.0162   -4.1443   -4.2176 H   0  0  0  0  0  0  0  0  0  0  0  0
    0.1193   -0.1398   -4.5222 H   0  0  0  0  0  0  0  0  0  0  0  0
    1.1807    1.0513   -5.2952 H   0  0  0  0  0  0  0  0  0  0  0  0
    1.4519   -0.6835   -5.5679 H   0  0  0  0  0  0  0  0  0  0  0  0
  1  2  1  0  0  0  0
  1 33  1  0  0  0  0
  2  3  2  0  0  0  0
  3 36  1  0  0  0  0
  4  3  1  0  0  0  0
  4 37  1  0  0  0  0
  5  4  2  0  0  0  0
  6  7  1  0  0  0  0
  6  5  1  0  0  0  0
  7  2  1  0  0  0  0
  8  7  2  0  0  0  0
  9  8  2  0  0  0  0
 10 13  1  6  0  0  0
 10  9  1  0  0  0  0
 10 11  1  0  0  0  0
 11 12  2  0  0  0  0
 11  6  1  0  0  0  0
 13 39  1  0  0  0  0
 14 13  1  0  0  0  0
 14 42  1  0  0  0  0
 15 16  1  0  0  0  0
 15 14  1  0  0  0  0
 16 17  1  0  0  0  0
 16 43  1  0  0  0  0
 17 46  1  0  0  0  0
 18 19  1  6  0  0  0
 18 22  1  0  0  0  0
 18 17  1  0  0  0  0
 20 18  1  0  0  0  0
 20 48  1  0  0  0  0
 21 50  1  0  0  0  0
 21 20  1  0  0  0  0
 21 15  1  0  0  0  0
 22 30  1  0  0  0  0
 23 22  2  0  0  0  0
 23 24  1  0  0  0  0
 24 25  1  0  0  0  0
 25 30  2  0  0  0  0
 25 26  1  0  0  0  0
 26 27  2  0  0  0  0
 27 28  1  0  0  0  0
 27 31  1  0  0  0  0
 28 52  1  0  0  0  0
 29 53  1  0  0  0  0
 29 28  2  0  0  0  0
 30 29  1  0  0  0  0
 32 54  1  0  0  0  0
 32  9  1  0  0  0  0
 34  1  1  0  0  0  0
 35  1  1  0  0  0  0
 38  5  1  0  0  0  0
 40 13  1  0  0  0  0
 41 14  1  0  0  0  0
 44 16  1  0  0  0  0
 45 17  1  0  0  0  0
 47 20  1  0  0  0  0
 49 21  1  0  0  0  0
 51 26  1  0  0  0  0
 55 32  1  0  0  0  0
 56 32  1  0  0  0  0
M  RAD  1  10   2
M  END
$$$$
