rmsd166.gzmat
 OpenBabel08211713403D

 56 60  0  0  1  0  0  0  0  0999 V2000
    0.0000    0.0000    0.0000 C   0  0  0  0  0  0  0  0  0  0  0  0
    1.4844    0.0000    0.0000 C   0  0  0  0  0  0  0  0  0  0  0  0
    2.2274    0.0000    1.1423 C   0  0  0  0  0  0  0  0  0  0  0  0
    3.6514    0.0084    1.0804 C   0  0  0  0  0  0  0  0  0  0  0  0
    4.2836    0.0214   -0.1263 C   0  0  0  0  0  0  0  0  0  0  0  0
    3.5520    0.0217   -1.3132 N   0  0  0  0  0  0  0  0  0  0  0  0
    2.1514    0.0032   -1.2918 C   0  0  0  0  0  0  0  0  0  0  0  0
    1.4427   -0.0158   -2.4198 N   0  0  0  0  0  0  0  0  0  0  0  0
    2.0669    0.0090   -3.6378 C   0  0  0  0  0  0  0  0  0  0  0  0
    3.4406    0.0650   -3.7547 C   0  0  1  0  0  0  0  0  0  0  0  0
    4.2674    0.0510   -2.5852 C   0  0  0  0  0  0  0  0  0  0  0  0
    5.4761    0.0450   -2.5074 O   0  0  0  0  0  0  0  0  0  0  0  0
    4.1637    0.1315   -5.0559 C   0  0  0  0  0  0  0  0  0  0  0  0
    4.8399   -1.2273   -5.3326 C   0  0  0  0  0  0  0  0  0  0  0  0
    5.4847   -1.2500   -6.6683 N   0  0  0  0  0  0  0  0  0  0  0  0
    6.5324   -0.2215   -6.8390 C   0  0  0  0  0  0  0  0  0  0  0  0
    7.7586   -0.4204   -5.9308 C   0  0  0  0  0  0  0  0  0  0  0  0
    8.3500   -1.8258   -6.1341 C   0  0  2  0  0  0  0  0  0  0  0  0
    8.8061   -1.8742   -7.1596 H   0  0  0  0  0  0  0  0  0  0  0  0
    7.2751   -2.9233   -6.0290 C   0  0  0  0  0  0  0  0  0  0  0  0
    6.0712   -2.5848   -6.9300 C   0  0  0  0  0  0  0  0  0  0  0  0
    9.4005   -2.0735   -5.1060 C   0  0  0  0  0  0  0  0  0  0  0  0
   10.6426   -2.4101   -5.4066 N   0  0  0  0  0  0  0  0  0  0  0  0
   11.3914   -2.5782   -4.2488 O   0  0  0  0  0  0  0  0  0  0  0  0
   10.5571   -2.3288   -3.1816 C   0  0  0  0  0  0  0  0  0  0  0  0
   10.8926   -2.3788   -1.8355 C   0  0  0  0  0  0  0  0  0  0  0  0
    9.8429   -2.0729   -0.9742 C   0  0  0  0  0  0  0  0  0  0  0  0
    8.5416   -1.7415   -1.3927 C   0  0  0  0  0  0  0  0  0  0  0  0
    8.2454   -1.7034   -2.7495 C   0  0  0  0  0  0  0  0  0  0  0  0
    9.2608   -1.9999   -3.6542 C   0  0  0  0  0  0  0  0  0  0  0  0
   10.0823   -2.0955    0.3274 F   0  0  0  0  0  0  0  0  0  0  0  0
    1.1453   -0.0314   -4.8084 C   0  0  0  0  0  0  0  0  0  0  0  0
   -0.4321    0.0496    1.0061 H   0  0  0  0  0  0  0  0  0  0  0  0
   -0.3979   -0.9027   -0.4965 H   0  0  0  0  0  0  0  0  0  0  0  0
   -0.3987    0.8512   -0.5808 H   0  0  0  0  0  0  0  0  0  0  0  0
    1.7501   -0.0042    2.1236 H   0  0  0  0  0  0  0  0  0  0  0  0
    4.2212    0.0082    2.0084 H   0  0  0  0  0  0  0  0  0  0  0  0
    5.3795    0.0349   -0.2395 H   0  0  0  0  0  0  0  0  0  0  0  0
    4.9284    0.9387   -5.0184 H   0  0  0  0  0  0  0  0  0  0  0  0
    3.4931    0.3965   -5.8965 H   0  0  0  0  0  0  0  0  0  0  0  0
    4.0664   -2.0271   -5.3253 H   0  0  0  0  0  0  0  0  0  0  0  0
    5.5505   -1.4541   -4.5068 H   0  0  0  0  0  0  0  0  0  0  0  0
    6.0874    0.7811   -6.6677 H   0  0  0  0  0  0  0  0  0  0  0  0
    6.8398   -0.2402   -7.9087 H   0  0  0  0  0  0  0  0  0  0  0  0
    8.5232    0.3479   -6.1464 H   0  0  0  0  0  0  0  0  0  0  0  0
    7.4688   -0.2619   -4.8734 H   0  0  0  0  0  0  0  0  0  0  0  0
    7.7018   -3.9009   -6.3197 H   0  0  0  0  0  0  0  0  0  0  0  0
    6.9448   -3.0408   -4.9800 H   0  0  0  0  0  0  0  0  0  0  0  0
    6.3733   -2.6112   -8.0003 H   0  0  0  0  0  0  0  0  0  0  0  0
    5.2766   -3.3517   -6.8150 H   0  0  0  0  0  0  0  0  0  0  0  0
   11.8899   -2.6333   -1.4923 H   0  0  0  0  0  0  0  0  0  0  0  0
    7.7698   -1.5095   -0.6598 H   0  0  0  0  0  0  0  0  0  0  0  0
    7.2407   -1.4360   -3.0909 H   0  0  0  0  0  0  0  0  0  0  0  0
    1.1884    0.9064   -5.3831 H   0  0  0  0  0  0  0  0  0  0  0  0
    1.4051   -0.8545   -5.4928 H   0  0  0  0  0  0  0  0  0  0  0  0
    0.0952   -0.1755   -4.5024 H   0  0  0  0  0  0  0  0  0  0  0  0
  1  2  1  0  0  0  0
  1 33  1  0  0  0  0
  2  3  2  0  0  0  0
  3 36  1  0  0  0  0
  4  3  1  0  0  0  0
  4 37  1  0  0  0  0
  5  4  2  0  0  0  0
  6  7  1  0  0  0  0
  6  5  1  0  0  0  0
  7  2  1  0  0  0  0
  8  7  2  0  0  0  0
  9  8  2  0  0  0  0
 10 13  1  6  0  0  0
 10  9  1  0  0  0  0
 10 11  1  0  0  0  0
 11 12  2  0  0  0  0
 11  6  1  0  0  0  0
 13 39  1  0  0  0  0
 14 41  1  0  0  0  0
 14 13  1  0  0  0  0
 14 42  1  0  0  0  0
 15 14  1  0  0  0  0
 16 15  1  0  0  0  0
 16 43  1  0  0  0  0
 16 17  1  0  0  0  0
 17 46  1  0  0  0  0
 18 19  1  6  0  0  0
 18 20  1  0  0  0  0
 18 17  1  0  0  0  0
 18 22  1  0  0  0  0
 20 48  1  0  0  0  0
 21 50  1  0  0  0  0
 21 15  1  0  0  0  0
 21 20  1  0  0  0  0
 22 30  1  0  0  0  0
 23 22  2  0  0  0  0
 23 24  1  0  0  0  0
 24 25  1  0  0  0  0
 25 26  1  0  0  0  0
 26 51  1  0  0  0  0
 26 27  2  0  0  0  0
 27 31  1  0  0  0  0
 28 27  1  0  0  0  0
 28 52  1  0  0  0  0
 29 28  2  0  0  0  0
 30 25  2  0  0  0  0
 30 29  1  0  0  0  0
 32 56  1  0  0  0  0
 32  9  1  0  0  0  0
 34  1  1  0  0  0  0
 35  1  1  0  0  0  0
 38  5  1  0  0  0  0
 40 13  1  0  0  0  0
 44 16  1  0  0  0  0
 45 17  1  0  0  0  0
 47 20  1  0  0  0  0
 49 21  1  0  0  0  0
 53 29  1  0  0  0  0
 54 32  1  0  0  0  0
 55 32  1  0  0  0  0
M  RAD  1  10   2
M  END
$$$$
