
     RDKit          3D

 56 60  0  0  0  0  0  0  0  0999 V2000
    0.3987   -0.1219    0.0959 C   0  0  0  0  0  0  0  0  0  0  0  0
    1.8719   -0.3442   -0.0696 C   0  0  0  0  0  0  0  0  0  0  0  0
    2.7096   -0.6496    0.9756 C   0  0  0  0  0  0  0  0  0  0  0  0
    4.1022   -0.8505    0.7637 C   0  0  0  0  0  0  0  0  0  0  0  0
    4.6112   -0.7419   -0.4946 C   0  0  0  0  0  0  0  0  0  0  0  0
    3.7891   -0.4380   -1.5583 N   0  0  0  0  0  0  0  0  0  0  0  0
    2.4209   -0.2301   -1.3985 C   0  0  0  0  0  0  0  0  0  0  0  0
    1.6324    0.0574   -2.4160 N   0  0  0  0  0  0  0  0  0  0  0  0
    2.1550    0.1631   -3.6575 C   0  0  0  0  0  0  0  0  0  0  0  0
    3.5091   -0.0091   -3.9257 C   0  0  0  0  0  0  0  0  0  0  0  0
    4.4054   -0.3513   -2.8626 C   0  0  0  0  0  0  0  0  0  0  0  0
    5.6102   -0.5732   -2.9601 O   0  0  0  0  0  0  0  0  0  0  0  0
    4.1268    0.0722   -5.2953 C   0  0  0  0  0  0  0  0  0  0  0  0
    4.3926   -1.3306   -5.8543 C   0  0  0  0  0  0  0  0  0  0  0  0
    5.1222   -1.3528   -7.1172 N   0  0  0  0  0  0  0  0  0  0  0  0
    6.4059   -0.6520   -7.1179 C   0  0  0  0  0  0  0  0  0  0  0  0
    7.4596   -1.3074   -6.2163 C   0  0  0  0  0  0  0  0  0  0  0  0
    7.6633   -2.7852   -6.6076 C   0  0  0  0  0  0  0  0  0  0  0  0
    8.1609   -2.8132   -7.5917 H   0  0  0  0  0  0  0  0  0  0  0  0
    6.3136   -3.5260   -6.7451 C   0  0  0  0  0  0  0  0  0  0  0  0
    5.3172   -2.7198   -7.5954 C   0  0  0  0  0  0  0  0  0  0  0  0
    8.5662   -3.5087   -5.6531 C   0  0  0  0  0  0  0  0  0  0  0  0
    9.5931   -4.1835   -6.0976 N   0  0  0  0  0  0  0  0  0  0  0  0
   10.2139   -4.7943   -4.9963 O   0  0  0  0  0  0  0  0  0  0  0  0
    9.5305   -4.4687   -3.8836 C   0  0  0  0  0  0  0  0  0  0  0  0
    9.8173   -4.8734   -2.5771 C   0  0  0  0  0  0  0  0  0  0  0  0
    8.9496   -4.3887   -1.6071 C   0  0  0  0  0  0  0  0  0  0  0  0
    7.8595   -3.5451   -1.8930 C   0  0  0  0  0  0  0  0  0  0  0  0
    7.5995   -3.1564   -3.2021 C   0  0  0  0  0  0  0  0  0  0  0  0
    8.4492   -3.6353   -4.2160 C   0  0  0  0  0  0  0  0  0  0  0  0
    9.1590   -4.7343   -0.3287 F   0  0  0  0  0  0  0  0  0  0  0  0
    1.1734    0.4870   -4.7529 C   0  0  0  0  0  0  0  0  0  0  0  0
    0.0978   -0.2345    1.1466 H   0  0  0  0  0  0  0  0  0  0  0  0
   -0.1719   -0.8308   -0.5238 H   0  0  0  0  0  0  0  0  0  0  0  0
    0.1161    0.8818   -0.2576 H   0  0  0  0  0  0  0  0  0  0  0  0
    2.3001   -0.7385    1.9845 H   0  0  0  0  0  0  0  0  0  0  0  0
    4.7673   -1.0890    1.5943 H   0  0  0  0  0  0  0  0  0  0  0  0
    5.6570   -0.8694   -0.7695 H   0  0  0  0  0  0  0  0  0  0  0  0
    5.0805    0.6098   -5.1935 H   0  0  0  0  0  0  0  0  0  0  0  0
    3.5001    0.6416   -5.9954 H   0  0  0  0  0  0  0  0  0  0  0  0
    3.4240   -1.8310   -6.0259 H   0  0  0  0  0  0  0  0  0  0  0  0
    4.8957   -1.9097   -5.0559 H   0  0  0  0  0  0  0  0  0  0  0  0
    6.2600    0.3998   -6.8340 H   0  0  0  0  0  0  0  0  0  0  0  0
    6.7693   -0.6413   -8.1606 H   0  0  0  0  0  0  0  0  0  0  0  0
    8.4183   -0.7694   -6.2957 H   0  0  0  0  0  0  0  0  0  0  0  0
    7.1403   -1.2211   -5.1667 H   0  0  0  0  0  0  0  0  0  0  0  0
    6.4855   -4.5172   -7.1944 H   0  0  0  0  0  0  0  0  0  0  0  0
    5.8917   -3.7095   -5.7438 H   0  0  0  0  0  0  0  0  0  0  0  0
    5.6839   -2.6693   -8.6358 H   0  0  0  0  0  0  0  0  0  0  0  0
    4.3421   -3.2333   -7.6246 H   0  0  0  0  0  0  0  0  0  0  0  0
   10.6566   -5.5200   -2.3236 H   0  0  0  0  0  0  0  0  0  0  0  0
    7.2350   -3.2027   -1.0666 H   0  0  0  0  0  0  0  0  0  0  0  0
    6.7715   -2.4770   -3.4046 H   0  0  0  0  0  0  0  0  0  0  0  0
    1.3856    1.4744   -5.1946 H   0  0  0  0  0  0  0  0  0  0  0  0
    1.2240   -0.2491   -5.5701 H   0  0  0  0  0  0  0  0  0  0  0  0
    0.1578    0.4974   -4.3388 H   0  0  0  0  0  0  0  0  0  0  0  0
  1  2  1  0
  1 33  1  0
  1 34  1  0
  1 35  1  0
  2  3  2  0
  2  7  1  0
  3  4  1  0
  3 36  1  0
  4  5  2  0
  4 37  1  0
  5  6  1  0
  5 38  1  0
  6  7  1  0
  6 11  1  0
  7  8  2  0
  8  9  1  0
  9 10  2  0
  9 32  1  0
 10 11  1  0
 10 13  1  0
 11 12  2  0
 13 14  1  0
 13 39  1  0
 13 40  1  0
 14 15  1  0
 14 41  1  0
 14 42  1  0
 15 16  1  0
 15 21  1  0
 16 17  1  0
 16 43  1  0
 16 44  1  0
 17 18  1  0
 17 45  1  0
 17 46  1  0
 18 19  1  0
 18 20  1  0
 18 22  1  0
 20 21  1  0
 20 47  1  0
 20 48  1  0
 21 49  1  0
 21 50  1  0
 22 23  2  0
 22 30  1  0
 23 24  1  0
 24 25  1  0
 25 26  1  0
 25 30  2  0
 26 27  2  0
 26 51  1  0
 27 28  1  0
 27 31  1  0
 28 29  2  0
 28 52  1  0
 29 30  1  0
 29 53  1  0
 32 54  1  0
 32 55  1  0
 32 56  1  0
M  END

