56
rmsd199.gzmat
C          0.00000        0.00000        0.00000
C          1.48460        0.00000        0.00000
C          2.22380        0.00000        1.14480
C          3.64750       -0.00130        1.08740
C          4.28290       -0.00620       -0.11820
N          3.55640       -0.00700       -1.30730
C          2.15550        0.00180       -1.29000
N          1.45060        0.01090       -2.42050
C          2.08160        0.03280       -3.63550
C          3.45630        0.03170       -3.74930
C          4.28090       -0.00620       -2.57870
O          5.48650       -0.04000       -2.49420
C          4.17210        0.06310       -5.05400
C          4.40970       -1.37970       -5.55580
N          4.98660       -1.30200       -6.91810
C          6.45050       -1.10480       -6.89960
C          7.25360       -2.34050       -6.44790
C          6.86450       -3.56470       -7.29310
H          7.20820       -3.39170       -8.34880
C          5.33960       -3.77520       -7.30230
C          4.63830       -2.47690       -7.74110
C          7.51830       -4.78660       -6.74680
N          8.34640       -5.54470       -7.44310
O          8.77330       -6.62320       -6.67870
C          8.16950       -6.51590       -5.44560
C          8.30570       -7.38590       -4.37230
C          7.56980       -7.02500       -3.24770
C          6.74990       -5.88360       -3.16510
C          6.64090       -5.03740       -4.26070
C          7.35230       -5.35730       -5.41300
F          7.64250       -7.80520       -2.18180
C          1.16490        0.06170       -4.81070
H         -0.43170        0.01970        1.00740
H         -0.39880       -0.88800       -0.52140
H         -0.39770        0.86820       -0.55520
H          1.74390        0.00230        2.12470
H          4.21480        0.00290        2.01630
H          5.37920       -0.00840       -0.22700
H          5.14460        0.59280       -4.95710
H          3.60970        0.63690       -5.81830
H          3.44260       -1.92300       -5.58660
H          5.05580       -1.92380       -4.83550
H          6.68420       -0.24020       -6.24010
H          6.75530       -0.80620       -7.92730
H          8.33760       -2.14250       -6.54080
H          7.07950       -2.53250       -5.37280
H          5.07320       -4.60280       -7.98470
H          4.98260       -4.08070       -6.30220
H          4.90910       -2.23520       -8.79360
H          3.53600       -2.61030       -7.73000
H          8.93410       -8.26980       -4.41560
H          6.20500       -5.66710       -2.24620
H          6.01620       -4.14430       -4.21760
H          0.11930       -0.13980       -4.52220
H          1.18070        1.05130       -5.29520
H          1.45190       -0.68350       -5.56790
