56
rmsd169.gzmat
C          0.00000        0.00000        0.00000
C          1.48440        0.00000        0.00000
C          2.22550        0.00000        1.14340
C          3.64940        0.00240        1.08320
C          4.28380        0.00980       -0.12250
N          3.55400        0.01030       -1.31050
C          2.15310       -0.00180       -1.29080
N          1.44640       -0.02020       -2.41990
C          2.07270       -0.00290       -3.63720
C          3.44720        0.04180       -3.75270
C          4.27230        0.02630       -2.58180
O          5.48070        0.00910       -2.50160
C          4.17170        0.09540       -5.05440
C          4.85900       -1.26200       -5.31060
N          5.45840       -1.32120       -6.66610
C          6.48760       -0.28830       -6.90700
C          7.74740       -0.44430       -6.03690
C          8.34440       -1.85170       -6.20790
H          8.77020       -1.93190       -7.24460
C          7.28550       -2.95590       -6.03370
C          6.04950       -2.65830       -6.90480
C          9.42660       -2.05630       -5.20300
N         10.66420       -2.38530       -5.52960
O         11.44770       -2.51230       -4.38990
C         10.64060       -2.24470       -3.30600
C         11.01590       -2.25440       -1.96950
C          9.98630       -1.94410       -1.08610
C          8.67000       -1.63660       -1.47560
C          8.33490       -1.63480       -2.82390
C          9.32710       -1.94430       -3.74980
F         10.26160       -1.93520        0.20860
C          1.15140       -0.03650       -4.80850
H         -0.43240        0.04570        1.00640
H         -0.39730       -0.90200       -0.49850
H         -0.39910        0.85240       -0.57840
H          1.74690       -0.00180        2.12430
H          4.21670       -0.00140        2.01250
H          5.38000        0.01630       -0.23300
H          4.92790        0.91060       -5.03070
H          3.49830        0.34010       -5.89890
H          4.09660       -2.07110       -5.25280
H          5.59890       -1.45320       -4.50170
H          6.03680        0.71460       -6.75350
H          6.75830       -0.33890       -7.98580
H          8.49710        0.32060       -6.31020
H          7.49470       -0.24760       -4.97690
H          7.71530       -3.93690       -6.30810
H          6.98960       -3.04460       -4.97170
H          6.31720       -2.71660       -7.98290
H          5.26690       -3.42830       -6.73880
H         12.02710       -2.48310       -1.64970
H          7.91750       -1.39240       -0.72660
H          7.31790       -1.38490       -3.14210
H          1.20790        0.89910       -5.38570
H          1.40090       -0.86540       -5.48990
H          0.09920       -0.16680       -4.50310
