rmsd174.gzmat
 OpenBabel08211713383D

 31 32  0  0  0  0  0  0  0  0999 V2000
    0.0000    0.0000    0.0000 Cl  0  0  0  0  0  0  0  0  0  0  0  0
    1.6960    0.0000    0.0000 C   0  0  0  0  0  0  0  0  0  0  0  0
    2.3794    0.0000    1.2159 C   0  0  0  0  0  0  0  0  0  0  0  0
    1.7189    0.1271    2.4048 O   0  0  0  0  0  0  0  0  0  0  0  0
    1.2012   -1.1146    2.9110 C   0  0  0  0  0  0  0  0  0  0  0  0
    0.0645   -0.6761    3.8469 C   0  0  0  0  0  0  0  0  0  0  0  0
   -1.1035   -0.2311    3.1072 N   0  0  0  0  0  0  0  0  0  0  0  0
   -2.0685   -1.1340    2.7370 N   0  0  0  0  0  0  0  0  0  0  0  0
   -2.8924   -0.4495    1.9113 C   0  0  0  0  0  0  0  0  0  0  0  0
   -4.3297   -1.1311    1.1889 S   0  0  0  0  0  0  0  0  0  0  0  0
   -4.8624    0.2091    0.0810 C   0  0  0  0  0  0  0  0  0  0  0  0
   -2.4556    0.8573    1.6883 N   0  0  0  0  0  0  0  0  0  0  0  0
   -1.3145    0.9732    2.4171 C   0  0  0  0  0  0  0  0  0  0  0  0
   -0.5271    2.1002    2.5962 N   0  0  0  0  0  0  0  0  0  0  0  0
    3.7741   -0.0106    1.2069 C   0  0  0  0  0  0  0  0  0  0  0  0
    4.6049   -0.0363    2.6877 Cl  0  0  0  0  0  0  0  0  0  0  0  0
    4.4828   -0.0016    0.0122 C   0  0  0  0  0  0  0  0  0  0  0  0
    3.7809    0.0037   -1.1939 C   0  0  0  0  0  0  0  0  0  0  0  0
    2.3858    0.0036   -1.2064 C   0  0  0  0  0  0  0  0  0  0  0  0
    2.0222   -1.6103    3.4601 H   0  0  0  0  0  0  0  0  0  0  0  0
    0.8440   -1.7699    2.0976 H   0  0  0  0  0  0  0  0  0  0  0  0
    0.4034    0.1633    4.5064 H   0  0  0  0  0  0  0  0  0  0  0  0
   -0.2263   -1.5295    4.5116 H   0  0  0  0  0  0  0  0  0  0  0  0
   -5.6404   -0.1786   -0.5844 H   0  0  0  0  0  0  0  0  0  0  0  0
   -4.0316    0.5886   -0.5298 H   0  0  0  0  0  0  0  0  0  0  0  0
   -5.2618    1.0644    0.6394 H   0  0  0  0  0  0  0  0  0  0  0  0
    0.4697    1.9198    2.5885 H   0  0  0  0  0  0  0  0  0  0  0  0
   -0.7977    2.8962    2.0322 H   0  0  0  0  0  0  0  0  0  0  0  0
    5.5740   -0.0012    0.0119 H   0  0  0  0  0  0  0  0  0  0  0  0
    4.3303    0.0065   -2.1364 H   0  0  0  0  0  0  0  0  0  0  0  0
    1.8441    0.0075   -2.1550 H   0  0  0  0  0  0  0  0  0  0  0  0
  1  2  1  0  0  0  0
  2  3  2  0  0  0  0
  3  4  1  0  0  0  0
  4  5  1  0  0  0  0
  5 20  1  0  0  0  0
  5  6  1  0  0  0  0
  6 22  1  0  0  0  0
  6 23  1  0  0  0  0
  7  6  1  0  0  0  0
  8  7  1  0  0  0  0
  9  8  2  0  0  0  0
 10  9  1  0  0  0  0
 11 26  1  0  0  0  0
 11 10  1  0  0  0  0
 12  9  2  0  0  0  0
 12 13  2  0  0  0  0
 13 14  1  0  0  0  0
 13  7  1  0  0  0  0
 15  3  1  0  0  0  0
 15 16  1  0  0  0  0
 17 15  2  0  0  0  0
 18 17  1  0  0  0  0
 19 18  2  0  0  0  0
 19  2  1  0  0  0  0
 21  5  1  0  0  0  0
 24 11  1  0  0  0  0
 25 11  1  0  0  0  0
 27 14  1  0  0  0  0
 28 14  1  0  0  0  0
 29 17  1  0  0  0  0
 30 18  1  0  0  0  0
 31 19  1  0  0  0  0
M  END
$$$$
