31
rmsd248.gzmat
Cl         0.00000        0.00000        0.00000
C          1.69610        0.00000        0.00000
C          2.37740        0.00000        1.21700
O          1.71180        0.12340        2.40320
C          1.21360       -1.12500        2.91270
C          0.07510       -0.69840        3.85130
N         -1.10270       -0.27720        3.11230
N         -2.04480       -1.20150        2.73630
C         -2.88200       -0.53470        1.90940
S         -4.30070       -1.24870        1.18160
C         -4.87830        0.08950        0.09370
N         -2.47660        0.78320        1.69250
C         -1.34000        0.92350        2.42400
N         -0.57470        2.06600        2.60470
C          3.77210       -0.00920        1.21240
Cl         4.59810       -0.03610        2.69580
C          4.48330        0.00320        0.01930
C          3.78400        0.01020       -1.18820
C          2.38850        0.00590       -1.20460
H          2.04310       -1.61090        3.45790
H          0.86120       -1.78500        2.10060
H          0.40460        0.15080        4.50340
H         -0.19970       -1.55070        4.52390
H         -5.80040       -0.23780       -0.39780
H         -4.13510        0.34020       -0.67400
H         -5.08160        1.01210        0.65460
H          0.42530        1.90520        2.58090
H         -0.86890        2.86070        2.05090
H          5.57470        0.00650        0.02080
H          4.33440        0.01910       -2.12980
H          1.85070        0.00790       -2.15540
