rmsd248.gzmat
 OpenBabel08211713383D

 31 32  0  0  0  0  0  0  0  0999 V2000
    0.0000    0.0000    0.0000 Cl  0  0  0  0  0  0  0  0  0  0  0  0
    1.6961    0.0000    0.0000 C   0  0  0  0  0  0  0  0  0  0  0  0
    2.3774    0.0000    1.2170 C   0  0  0  0  0  0  0  0  0  0  0  0
    1.7118    0.1234    2.4032 O   0  0  0  0  0  0  0  0  0  0  0  0
    1.2136   -1.1250    2.9127 C   0  0  0  0  0  0  0  0  0  0  0  0
    0.0751   -0.6984    3.8513 C   0  0  0  0  0  0  0  0  0  0  0  0
   -1.1027   -0.2772    3.1123 N   0  0  0  0  0  0  0  0  0  0  0  0
   -2.0448   -1.2015    2.7363 N   0  0  0  0  0  0  0  0  0  0  0  0
   -2.8820   -0.5347    1.9094 C   0  0  0  0  0  0  0  0  0  0  0  0
   -4.3007   -1.2487    1.1816 S   0  0  0  0  0  0  0  0  0  0  0  0
   -4.8783    0.0895    0.0937 C   0  0  0  0  0  0  0  0  0  0  0  0
   -2.4766    0.7832    1.6925 N   0  0  0  0  0  0  0  0  0  0  0  0
   -1.3400    0.9235    2.4240 C   0  0  0  0  0  0  0  0  0  0  0  0
   -0.5747    2.0660    2.6047 N   0  0  0  0  0  0  0  0  0  0  0  0
    3.7721   -0.0092    1.2124 C   0  0  0  0  0  0  0  0  0  0  0  0
    4.5981   -0.0361    2.6958 Cl  0  0  0  0  0  0  0  0  0  0  0  0
    4.4833    0.0032    0.0193 C   0  0  0  0  0  0  0  0  0  0  0  0
    3.7840    0.0102   -1.1882 C   0  0  0  0  0  0  0  0  0  0  0  0
    2.3885    0.0059   -1.2046 C   0  0  0  0  0  0  0  0  0  0  0  0
    2.0431   -1.6109    3.4579 H   0  0  0  0  0  0  0  0  0  0  0  0
    0.8612   -1.7850    2.1006 H   0  0  0  0  0  0  0  0  0  0  0  0
    0.4046    0.1508    4.5034 H   0  0  0  0  0  0  0  0  0  0  0  0
   -0.1997   -1.5507    4.5239 H   0  0  0  0  0  0  0  0  0  0  0  0
   -5.8004   -0.2378   -0.3978 H   0  0  0  0  0  0  0  0  0  0  0  0
   -4.1351    0.3402   -0.6740 H   0  0  0  0  0  0  0  0  0  0  0  0
   -5.0816    1.0121    0.6546 H   0  0  0  0  0  0  0  0  0  0  0  0
    0.4253    1.9052    2.5809 H   0  0  0  0  0  0  0  0  0  0  0  0
   -0.8689    2.8607    2.0509 H   0  0  0  0  0  0  0  0  0  0  0  0
    5.5747    0.0065    0.0208 H   0  0  0  0  0  0  0  0  0  0  0  0
    4.3344    0.0191   -2.1298 H   0  0  0  0  0  0  0  0  0  0  0  0
    1.8507    0.0079   -2.1554 H   0  0  0  0  0  0  0  0  0  0  0  0
  1  2  1  0  0  0  0
  2  3  2  0  0  0  0
  3  4  1  0  0  0  0
  4  5  1  0  0  0  0
  5 20  1  0  0  0  0
  5  6  1  0  0  0  0
  6 22  1  0  0  0  0
  6 23  1  0  0  0  0
  7  6  1  0  0  0  0
  8  7  1  0  0  0  0
  9  8  2  0  0  0  0
 10  9  1  0  0  0  0
 11 26  1  0  0  0  0
 11 10  1  0  0  0  0
 12  9  2  0  0  0  0
 12 13  2  0  0  0  0
 13 14  1  0  0  0  0
 13  7  1  0  0  0  0
 15  3  1  0  0  0  0
 15 16  1  0  0  0  0
 17 29  1  0  0  0  0
 17 15  2  0  0  0  0
 18 17  1  0  0  0  0
 19 18  2  0  0  0  0
 19  2  1  0  0  0  0
 21  5  1  0  0  0  0
 24 11  1  0  0  0  0
 25 11  1  0  0  0  0
 27 14  1  0  0  0  0
 28 14  1  0  0  0  0
 30 18  1  0  0  0  0
 31 19  1  0  0  0  0
M  END
$$$$
