31
rmsd186.gzmat
Cl         0.00000        0.00000        0.00000
C          1.69620        0.00000        0.00000
C          2.37960        0.00000        1.21590
O          1.72170       -0.12180        2.40620
C          1.18490        1.11460        2.90440
C          0.05560        0.65740        3.84080
N         -1.10330        0.18650        3.10220
N         -2.09600        1.06150        2.73960
C         -2.90540        0.35430        1.91880
S         -4.37300        0.99040        1.21500
C         -4.83710       -0.33160        0.05490
N         -2.43370       -0.93990        1.69260
C         -1.28560       -1.02390        2.41430
N         -0.46590       -2.12790        2.58850
C          3.77440       -0.00150        1.20790
Cl         4.60320        0.02760        2.68980
C          4.48370       -0.02580        0.01390
C          3.78210       -0.02880       -1.19200
C          2.38720       -0.01140       -1.20550
H          0.81980        1.76150        2.08840
H          1.99790        1.62480        3.45240
H         -0.25050        1.50340        4.50780
H          0.41330       -0.17550        4.49960
H         -5.86340       -0.15370       -0.28230
H         -4.78780       -1.32470        0.52530
H         -4.17240       -0.35790       -0.81620
H          0.52530       -1.91960        2.58100
H         -0.71480       -2.93090        2.02500
H          5.57500       -0.04190        0.01390
H          4.32990       -0.04650       -2.13510
H          1.84800       -0.00880       -2.15550
