rmsd14.gzmat
 OpenBabel08211713383D

 31 32  0  0  0  0  0  0  0  0999 V2000
    0.0000    0.0000    0.0000 Cl  0  0  0  0  0  0  0  0  0  0  0  0
    1.6984    0.0000    0.0000 C   0  0  0  0  0  0  0  0  0  0  0  0
    2.3729    0.0000    1.2208 C   0  0  0  0  0  0  0  0  0  0  0  0
    1.6620    0.1329    2.3800 O   0  0  0  0  0  0  0  0  0  0  0  0
    1.4470   -1.1121    3.0657 C   0  0  0  0  0  0  0  0  0  0  0  0
    1.1900   -0.6862    4.5192 C   0  0  0  0  0  0  0  0  0  0  0  0
    2.4110   -0.2615    5.1817 N   0  0  0  0  0  0  0  0  0  0  0  0
    3.2069   -1.1831    5.8141 N   0  0  0  0  0  0  0  0  0  0  0  0
    4.3407   -0.5152    6.1250 C   0  0  0  0  0  0  0  0  0  0  0  0
    5.6809   -1.2192    6.9977 S   0  0  0  0  0  0  0  0  0  0  0  0
    6.9936    0.0018    6.6863 C   0  0  0  0  0  0  0  0  0  0  0  0
    4.3276    0.8007    5.6585 N   0  0  0  0  0  0  0  0  0  0  0  0
    3.1276    0.9385    5.0370 C   0  0  0  0  0  0  0  0  0  0  0  0
    2.5898    2.0787    4.4602 N   0  0  0  0  0  0  0  0  0  0  0  0
    3.7676   -0.0181    1.2223 C   0  0  0  0  0  0  0  0  0  0  0  0
    4.5964   -0.0247    2.7017 Cl  0  0  0  0  0  0  0  0  0  0  0  0
    4.4825   -0.0237    0.0307 C   0  0  0  0  0  0  0  0  0  0  0  0
    3.7888   -0.0145   -1.1799 C   0  0  0  0  0  0  0  0  0  0  0  0
    2.3938   -0.0004   -1.2026 C   0  0  0  0  0  0  0  0  0  0  0  0
    2.3193   -1.7827    2.9747 H   0  0  0  0  0  0  0  0  0  0  0  0
    0.5593   -1.5866    2.6097 H   0  0  0  0  0  0  0  0  0  0  0  0
    0.7429   -1.5407    5.0888 H   0  0  0  0  0  0  0  0  0  0  0  0
    0.4583    0.1609    4.5549 H   0  0  0  0  0  0  0  0  0  0  0  0
    7.8987   -0.3197    7.2102 H   0  0  0  0  0  0  0  0  0  0  0  0
    6.7115    1.0022    7.0442 H   0  0  0  0  0  0  0  0  0  0  0  0
    7.2157    0.0957    5.6161 H   0  0  0  0  0  0  0  0  0  0  0  0
    2.1086    1.9159    3.5839 H   0  0  0  0  0  0  0  0  0  0  0  0
    3.2172    2.8728    4.4345 H   0  0  0  0  0  0  0  0  0  0  0  0
    5.5751   -0.0333    0.0384 H   0  0  0  0  0  0  0  0  0  0  0  0
    4.3425   -0.0188   -2.1197 H   0  0  0  0  0  0  0  0  0  0  0  0
    1.8610    0.0084   -2.1553 H   0  0  0  0  0  0  0  0  0  0  0  0
  1  2  1  0  0  0  0
  2  3  2  0  0  0  0
  3 15  1  0  0  0  0
  3  4  1  0  0  0  0
  4  5  1  0  0  0  0
  5  6  1  0  0  0  0
  6 23  1  0  0  0  0
  6 22  1  0  0  0  0
  6  7  1  0  0  0  0
  7  8  1  0  0  0  0
  8  9  2  0  0  0  0
  9 10  1  0  0  0  0
 11 10  1  0  0  0  0
 11 25  1  0  0  0  0
 11 24  1  0  0  0  0
 12  9  2  0  0  0  0
 13  7  1  0  0  0  0
 13 12  2  0  0  0  0
 14 13  1  0  0  0  0
 15 16  1  0  0  0  0
 17 29  1  0  0  0  0
 17 15  2  0  0  0  0
 18 17  1  0  0  0  0
 19 18  2  0  0  0  0
 19  2  1  0  0  0  0
 20  5  1  0  0  0  0
 21  5  1  0  0  0  0
 26 11  1  0  0  0  0
 27 14  1  0  0  0  0
 28 14  1  0  0  0  0
 30 18  1  0  0  0  0
 31 19  1  0  0  0  0
M  END
$$$$
