rmsd225.gzmat
 OpenBabel08211713383D

 31 32  0  0  0  0  0  0  0  0999 V2000
    0.0000    0.0000    0.0000 Cl  0  0  0  0  0  0  0  0  0  0  0  0
    1.6952    0.0000    0.0000 C   0  0  0  0  0  0  0  0  0  0  0  0
    2.3795    0.0000    1.2155 C   0  0  0  0  0  0  0  0  0  0  0  0
    1.7129   -0.1276    2.4020 O   0  0  0  0  0  0  0  0  0  0  0  0
    1.2415    1.1271    2.9225 C   0  0  0  0  0  0  0  0  0  0  0  0
    0.0673    0.7324    3.8303 C   0  0  0  0  0  0  0  0  0  0  0  0
   -1.1028    0.3417    3.0637 N   0  0  0  0  0  0  0  0  0  0  0  0
   -2.0025    1.2893    2.6456 N   0  0  0  0  0  0  0  0  0  0  0  0
   -2.8515    0.6297    1.8242 C   0  0  0  0  0  0  0  0  0  0  0  0
   -4.2183    1.3840    1.0389 S   0  0  0  0  0  0  0  0  0  0  0  0
   -4.9058    0.0096    0.0663 C   0  0  0  0  0  0  0  0  0  0  0  0
   -2.4961   -0.7095    1.6568 N   0  0  0  0  0  0  0  0  0  0  0  0
   -1.3775   -0.8706    2.4121 C   0  0  0  0  0  0  0  0  0  0  0  0
   -0.6581   -2.0341    2.6424 N   0  0  0  0  0  0  0  0  0  0  0  0
    3.7739    0.0196    1.2049 C   0  0  0  0  0  0  0  0  0  0  0  0
    4.6069    0.0474    2.6851 Cl  0  0  0  0  0  0  0  0  0  0  0  0
    4.4810    0.0181    0.0091 C   0  0  0  0  0  0  0  0  0  0  0  0
    3.7777    0.0062   -1.1962 C   0  0  0  0  0  0  0  0  0  0  0  0
    2.3828   -0.0019   -1.2074 C   0  0  0  0  0  0  0  0  0  0  0  0
    0.9305    1.8118    2.1140 H   0  0  0  0  0  0  0  0  0  0  0  0
    2.0744    1.5737    3.4959 H   0  0  0  0  0  0  0  0  0  0  0  0
   -0.2018    1.5957    4.4920 H   0  0  0  0  0  0  0  0  0  0  0  0
    0.3551   -0.1220    4.4940 H   0  0  0  0  0  0  0  0  0  0  0  0
   -5.6332    0.4156   -0.6444 H   0  0  0  0  0  0  0  0  0  0  0  0
   -5.4032   -0.7294    0.7059 H   0  0  0  0  0  0  0  0  0  0  0  0
   -4.1281   -0.5267   -0.4954 H   0  0  0  0  0  0  0  0  0  0  0  0
    0.3475   -1.9112    2.6235 H   0  0  0  0  0  0  0  0  0  0  0  0
   -0.9759   -2.8364    2.1128 H   0  0  0  0  0  0  0  0  0  0  0  0
    5.5723    0.0291    0.0069 H   0  0  0  0  0  0  0  0  0  0  0  0
    4.3247    0.0052   -2.1399 H   0  0  0  0  0  0  0  0  0  0  0  0
    1.8384   -0.0095   -2.1547 H   0  0  0  0  0  0  0  0  0  0  0  0
  1  2  1  0  0  0  0
  2  3  2  0  0  0  0
  3  4  1  0  0  0  0
  4  5  1  0  0  0  0
  5 21  1  0  0  0  0
  5  6  1  0  0  0  0
  6 22  1  0  0  0  0
  6 23  1  0  0  0  0
  7  6  1  0  0  0  0
  8  7  1  0  0  0  0
  9  8  2  0  0  0  0
 10  9  1  0  0  0  0
 11 25  1  0  0  0  0
 11 10  1  0  0  0  0
 12  9  2  0  0  0  0
 12 13  2  0  0  0  0
 13 14  1  0  0  0  0
 13  7  1  0  0  0  0
 15  3  1  0  0  0  0
 15 16  1  0  0  0  0
 17 15  2  0  0  0  0
 18 17  1  0  0  0  0
 19 18  2  0  0  0  0
 19  2  1  0  0  0  0
 20  5  1  0  0  0  0
 24 11  1  0  0  0  0
 26 11  1  0  0  0  0
 27 14  1  0  0  0  0
 28 14  1  0  0  0  0
 29 17  1  0  0  0  0
 30 18  1  0  0  0  0
 31 19  1  0  0  0  0
M  END
$$$$
