
     RDKit          3D

 31 32  0  0  0  0  0  0  0  0999 V2000
   -0.0580    0.1532    0.1172 Cl  0  0  0  0  0  0  0  0  0  0  0  0
    1.6745    0.0341   -0.0389 C   0  0  0  0  0  0  0  0  0  0  0  0
    2.4586    0.0574    1.1268 C   0  0  0  0  0  0  0  0  0  0  0  0
    1.8883    0.2075    2.3518 O   0  0  0  0  0  0  0  0  0  0  0  0
    1.5072   -0.9993    3.0315 C   0  0  0  0  0  0  0  0  0  0  0  0
    1.3028   -0.6532    4.4942 C   0  0  0  0  0  0  0  0  0  0  0  0
    2.5317   -0.2800    5.1496 N   0  0  0  0  0  0  0  0  0  0  0  0
    3.3273   -1.2233    5.7486 N   0  0  0  0  0  0  0  0  0  0  0  0
    4.3602   -0.5019    6.1470 C   0  0  0  0  0  0  0  0  0  0  0  0
    5.6980   -1.2337    7.0303 S   0  0  0  0  0  0  0  0  0  0  0  0
    6.7839    0.2189    7.1773 C   0  0  0  0  0  0  0  0  0  0  0  0
    4.3073    0.8246    5.8212 N   0  0  0  0  0  0  0  0  0  0  0  0
    3.1534    0.9261    5.1774 C   0  0  0  0  0  0  0  0  0  0  0  0
    2.6050    2.0639    4.6361 N   0  0  0  0  0  0  0  0  0  0  0  0
    3.8544   -0.0495    0.9912 C   0  0  0  0  0  0  0  0  0  0  0  0
    4.8387   -0.0396    2.4268 Cl  0  0  0  0  0  0  0  0  0  0  0  0
    4.4499   -0.1560   -0.2676 C   0  0  0  0  0  0  0  0  0  0  0  0
    3.6466   -0.1670   -1.4091 C   0  0  0  0  0  0  0  0  0  0  0  0
    2.2579   -0.0717   -1.3028 C   0  0  0  0  0  0  0  0  0  0  0  0
    2.3076   -1.7501    2.9343 H   0  0  0  0  0  0  0  0  0  0  0  0
    0.5777   -1.3940    2.5876 H   0  0  0  0  0  0  0  0  0  0  0  0
    0.8942   -1.5232    5.0269 H   0  0  0  0  0  0  0  0  0  0  0  0
    0.5880    0.1802    4.5840 H   0  0  0  0  0  0  0  0  0  0  0  0
    7.6692   -0.1216    7.7322 H   0  0  0  0  0  0  0  0  0  0  0  0
    6.2820    1.0262    7.7260 H   0  0  0  0  0  0  0  0  0  0  0  0
    7.0803    0.5881    6.1865 H   0  0  0  0  0  0  0  0  0  0  0  0
    2.2268    1.9185    3.7015 H   0  0  0  0  0  0  0  0  0  0  0  0
    3.2504    2.8463    4.6754 H   0  0  0  0  0  0  0  0  0  0  0  0
    5.5353   -0.2320   -0.3384 H   0  0  0  0  0  0  0  0  0  0  0  0
    4.1089   -0.2502   -2.3948 H   0  0  0  0  0  0  0  0  0  0  0  0
    1.6197   -0.0804   -2.1869 H   0  0  0  0  0  0  0  0  0  0  0  0
  1  2  1  0
  2  3  2  0
  2 19  1  0
  3  4  1  0
  3 15  1  0
  4  5  1  0
  5  6  1  0
  5 20  1  0
  5 21  1  0
  6  7  1  0
  6 22  1  0
  6 23  1  0
  7  8  1  0
  7 13  1  0
  8  9  2  0
  9 10  1  0
  9 12  1  0
 10 11  1  0
 11 24  1  0
 11 25  1  0
 11 26  1  0
 12 13  2  0
 13 14  1  0
 14 27  1  0
 14 28  1  0
 15 16  1  0
 15 17  2  0
 17 18  1  0
 17 29  1  0
 18 19  2  0
 18 30  1  0
 19 31  1  0
M  END

