rmsd158.gzmat
 OpenBabel08211713383D

 31 32  0  0  0  0  0  0  0  0999 V2000
    0.0000    0.0000    0.0000 Cl  0  0  0  0  0  0  0  0  0  0  0  0
    1.6951    0.0000    0.0000 C   0  0  0  0  0  0  0  0  0  0  0  0
    2.3785    0.0000    1.2159 C   0  0  0  0  0  0  0  0  0  0  0  0
    1.7168    0.1331    2.4037 O   0  0  0  0  0  0  0  0  0  0  0  0
    1.2126   -1.1088    2.9230 C   0  0  0  0  0  0  0  0  0  0  0  0
    0.0763   -0.6731    3.8609 C   0  0  0  0  0  0  0  0  0  0  0  0
   -1.0977   -0.2411    3.1218 N   0  0  0  0  0  0  0  0  0  0  0  0
   -2.0223   -1.1665    2.7049 N   0  0  0  0  0  0  0  0  0  0  0  0
   -2.8314   -0.4973    1.8536 C   0  0  0  0  0  0  0  0  0  0  0  0
   -4.2105   -1.2095    1.0517 S   0  0  0  0  0  0  0  0  0  0  0  0
   -4.6445    0.0907   -0.1451 C   0  0  0  0  0  0  0  0  0  0  0  0
   -2.4230    0.8241    1.6595 N   0  0  0  0  0  0  0  0  0  0  0  0
   -1.3104    0.9611    2.4265 C   0  0  0  0  0  0  0  0  0  0  0  0
   -0.5511    2.1019    2.6354 N   0  0  0  0  0  0  0  0  0  0  0  0
    3.7730   -0.0164    1.2057 C   0  0  0  0  0  0  0  0  0  0  0  0
    4.6040   -0.0452    2.6864 Cl  0  0  0  0  0  0  0  0  0  0  0  0
    4.4814   -0.0103    0.0107 C   0  0  0  0  0  0  0  0  0  0  0  0
    3.7793    0.0013   -1.1950 C   0  0  0  0  0  0  0  0  0  0  0  0
    2.3840    0.0044   -1.2068 C   0  0  0  0  0  0  0  0  0  0  0  0
    2.0396   -1.5949    3.4715 H   0  0  0  0  0  0  0  0  0  0  0  0
    0.8556   -1.7727    2.1160 H   0  0  0  0  0  0  0  0  0  0  0  0
    0.4100    0.1721    4.5148 H   0  0  0  0  0  0  0  0  0  0  0  0
   -0.2065   -1.5247    4.5311 H   0  0  0  0  0  0  0  0  0  0  0  0
   -5.3347   -0.3297   -0.8829 H   0  0  0  0  0  0  0  0  0  0  0  0
   -3.7602    0.4769   -0.6715 H   0  0  0  0  0  0  0  0  0  0  0  0
   -5.1197    0.9487    0.3471 H   0  0  0  0  0  0  0  0  0  0  0  0
    0.4492    1.9416    2.6390 H   0  0  0  0  0  0  0  0  0  0  0  0
   -0.8298    2.9007    2.0796 H   0  0  0  0  0  0  0  0  0  0  0  0
    5.5728   -0.0152    0.0095 H   0  0  0  0  0  0  0  0  0  0  0  0
    4.3268    0.0069   -2.1384 H   0  0  0  0  0  0  0  0  0  0  0  0
    1.8426    0.0110   -2.1557 H   0  0  0  0  0  0  0  0  0  0  0  0
  1  2  1  0  0  0  0
  2  3  2  0  0  0  0
  3  4  1  0  0  0  0
  4  5  1  0  0  0  0
  5 20  1  0  0  0  0
  5  6  1  0  0  0  0
  6 22  1  0  0  0  0
  6 23  1  0  0  0  0
  7  6  1  0  0  0  0
  8  7  1  0  0  0  0
  9  8  2  0  0  0  0
 10  9  1  0  0  0  0
 11 26  1  0  0  0  0
 11 10  1  0  0  0  0
 12  9  2  0  0  0  0
 12 13  2  0  0  0  0
 13 14  1  0  0  0  0
 13  7  1  0  0  0  0
 14 27  1  0  0  0  0
 15  3  1  0  0  0  0
 15 16  1  0  0  0  0
 17 15  2  0  0  0  0
 18 17  1  0  0  0  0
 19 18  2  0  0  0  0
 19  2  1  0  0  0  0
 21  5  1  0  0  0  0
 24 11  1  0  0  0  0
 25 11  1  0  0  0  0
 28 14  1  0  0  0  0
 29 17  1  0  0  0  0
 30 18  1  0  0  0  0
 31 19  1  0  0  0  0
M  END
$$$$
