
     RDKit          3D

 31 32  0  0  0  0  0  0  0  0999 V2000
    0.1790   -0.0135   -0.3770 Cl  0  0  0  0  0  0  0  0  0  0  0  0
    1.9096   -0.0267   -0.1897 C   0  0  0  0  0  0  0  0  0  0  0  0
    2.4509    0.0692    1.1049 C   0  0  0  0  0  0  0  0  0  0  0  0
    1.6418    0.2106    2.1883 O   0  0  0  0  0  0  0  0  0  0  0  0
    1.2242   -1.0019    2.8357 C   0  0  0  0  0  0  0  0  0  0  0  0
    0.0342   -0.6639    3.7135 C   0  0  0  0  0  0  0  0  0  0  0  0
   -1.1284   -0.2904    2.9467 N   0  0  0  0  0  0  0  0  0  0  0  0
   -2.0299   -1.2351    2.5264 N   0  0  0  0  0  0  0  0  0  0  0  0
   -2.8732   -0.5135    1.8093 C   0  0  0  0  0  0  0  0  0  0  0  0
   -4.2835   -1.2470    1.0488 S   0  0  0  0  0  0  0  0  0  0  0  0
   -4.9303    0.2054    0.1639 C   0  0  0  0  0  0  0  0  0  0  0  0
   -2.5658    0.8144    1.7069 N   0  0  0  0  0  0  0  0  0  0  0  0
   -1.4519    0.9168    2.4173 C   0  0  0  0  0  0  0  0  0  0  0  0
   -0.7188    2.0561    2.6474 N   0  0  0  0  0  0  0  0  0  0  0  0
    3.8489    0.0437    1.2435 C   0  0  0  0  0  0  0  0  0  0  0  0
    4.5316    0.1495    2.8443 Cl  0  0  0  0  0  0  0  0  0  0  0  0
    4.6859   -0.0540    0.1305 C   0  0  0  0  0  0  0  0  0  0  0  0
    4.1221   -0.1386   -1.1438 C   0  0  0  0  0  0  0  0  0  0  0  0
    2.7364   -0.1250   -1.3109 C   0  0  0  0  0  0  0  0  0  0  0  0
    2.0564   -1.4022    3.4390 H   0  0  0  0  0  0  0  0  0  0  0  0
    0.9294   -1.7455    2.0781 H   0  0  0  0  0  0  0  0  0  0  0  0
    0.2931    0.1665    4.3893 H   0  0  0  0  0  0  0  0  0  0  0  0
   -0.2373   -1.5380    4.3215 H   0  0  0  0  0  0  0  0  0  0  0  0
   -5.8383   -0.1361   -0.3524 H   0  0  0  0  0  0  0  0  0  0  0  0
   -4.1994    0.5762   -0.5669 H   0  0  0  0  0  0  0  0  0  0  0  0
   -5.1762    1.0117    0.8667 H   0  0  0  0  0  0  0  0  0  0  0  0
    0.2839    1.9144    2.5363 H   0  0  0  0  0  0  0  0  0  0  0  0
   -1.0620    2.8393    2.1007 H   0  0  0  0  0  0  0  0  0  0  0  0
    5.7668   -0.0649    0.2741 H   0  0  0  0  0  0  0  0  0  0  0  0
    4.7715   -0.2156   -2.0182 H   0  0  0  0  0  0  0  0  0  0  0  0
    2.2849   -0.1927   -2.3012 H   0  0  0  0  0  0  0  0  0  0  0  0
  1  2  1  0
  2  3  2  0
  2 19  1  0
  3  4  1  0
  3 15  1  0
  4  5  1  0
  5  6  1  0
  5 20  1  0
  5 21  1  0
  6  7  1  0
  6 22  1  0
  6 23  1  0
  7  8  1  0
  7 13  1  0
  8  9  2  0
  9 10  1  0
  9 12  1  0
 10 11  1  0
 11 24  1  0
 11 25  1  0
 11 26  1  0
 12 13  2  0
 13 14  1  0
 14 27  1  0
 14 28  1  0
 15 16  1  0
 15 17  2  0
 17 18  1  0
 17 29  1  0
 18 19  2  0
 18 30  1  0
 19 31  1  0
M  END

