rmsd91.gzmat
 OpenBabel08211713383D

 31 32  0  0  0  0  0  0  0  0999 V2000
    0.0000    0.0000    0.0000 Cl  0  0  0  0  0  0  0  0  0  0  0  0
    1.6987    0.0000    0.0000 C   0  0  0  0  0  0  0  0  0  0  0  0
    2.3742    0.0000    1.2202 C   0  0  0  0  0  0  0  0  0  0  0  0
    1.6705    0.1257    2.3853 O   0  0  0  0  0  0  0  0  0  0  0  0
    1.4081   -1.1354    3.0244 C   0  0  0  0  0  0  0  0  0  0  0  0
    1.1699   -0.7558    4.4934 C   0  0  0  0  0  0  0  0  0  0  0  0
    2.4088   -0.4023    5.1647 N   0  0  0  0  0  0  0  0  0  0  0  0
    3.1925   -1.3829    5.7200 N   0  0  0  0  0  0  0  0  0  0  0  0
    4.3483   -0.7645    6.0515 C   0  0  0  0  0  0  0  0  0  0  0  0
    5.6844   -1.5614    6.8474 S   0  0  0  0  0  0  0  0  0  0  0  0
    6.9973   -0.3095    6.7161 C   0  0  0  0  0  0  0  0  0  0  0  0
    4.3591    0.5797    5.6738 N   0  0  0  0  0  0  0  0  0  0  0  0
    3.1536    0.7856    5.0823 C   0  0  0  0  0  0  0  0  0  0  0  0
    2.6390    1.9712    4.5808 N   0  0  0  0  0  0  0  0  0  0  0  0
    3.7688   -0.0181    1.2200 C   0  0  0  0  0  0  0  0  0  0  0  0
    4.5983   -0.0373    2.6980 Cl  0  0  0  0  0  0  0  0  0  0  0  0
    4.4829   -0.0191    0.0279 C   0  0  0  0  0  0  0  0  0  0  0  0
    3.7883   -0.0110   -1.1819 C   0  0  0  0  0  0  0  0  0  0  0  0
    2.3931   -0.0013   -1.2032 C   0  0  0  0  0  0  0  0  0  0  0  0
    2.2573   -1.8317    2.9070 H   0  0  0  0  0  0  0  0  0  0  0  0
    0.5033   -1.5609    2.5543 H   0  0  0  0  0  0  0  0  0  0  0  0
    0.6940   -1.6144    5.0325 H   0  0  0  0  0  0  0  0  0  0  0  0
    0.4698    0.1149    4.5657 H   0  0  0  0  0  0  0  0  0  0  0  0
    7.7935   -0.5618    7.4239 H   0  0  0  0  0  0  0  0  0  0  0  0
    6.6257    0.6993    6.9529 H   0  0  0  0  0  0  0  0  0  0  0  0
    7.4169   -0.2668    5.7047 H   0  0  0  0  0  0  0  0  0  0  0  0
    2.1413    1.8709    3.7040 H   0  0  0  0  0  0  0  0  0  0  0  0
    3.2891    2.7475    4.5873 H   0  0  0  0  0  0  0  0  0  0  0  0
    5.5755   -0.0261    0.0351 H   0  0  0  0  0  0  0  0  0  0  0  0
    4.3421   -0.0131   -2.1216 H   0  0  0  0  0  0  0  0  0  0  0  0
    1.8587    0.0043   -2.1548 H   0  0  0  0  0  0  0  0  0  0  0  0
  1  2  1  0  0  0  0
  2  3  2  0  0  0  0
  3  4  1  0  0  0  0
  4  5  1  0  0  0  0
  5  6  1  0  0  0  0
  6 23  1  0  0  0  0
  6 22  1  0  0  0  0
  6  7  1  0  0  0  0
  7  8  1  0  0  0  0
  8  9  2  0  0  0  0
  9 10  1  0  0  0  0
 11 10  1  0  0  0  0
 11 25  1  0  0  0  0
 11 24  1  0  0  0  0
 12  9  2  0  0  0  0
 13  7  1  0  0  0  0
 13 12  2  0  0  0  0
 14 28  1  0  0  0  0
 14 13  1  0  0  0  0
 15  3  1  0  0  0  0
 15 16  1  0  0  0  0
 17 29  1  0  0  0  0
 17 15  2  0  0  0  0
 18 17  1  0  0  0  0
 19 18  2  0  0  0  0
 19  2  1  0  0  0  0
 20  5  1  0  0  0  0
 21  5  1  0  0  0  0
 26 11  1  0  0  0  0
 27 14  1  0  0  0  0
 30 18  1  0  0  0  0
 31 19  1  0  0  0  0
M  END
$$$$
