rmsd72.gzmat
 OpenBabel08211713383D

 55 57  0  0  1  0  0  0  0  0999 V2000
    0.0000    0.0000    0.0000 C   0  0  0  0  0  0  0  0  0  0  0  0
    1.3974    0.0000    0.0000 C   0  0  0  0  0  0  0  0  0  0  0  0
    2.0862    0.0000    1.2101 C   0  0  0  0  0  0  0  0  0  0  0  0
    1.3807    0.0103    2.4126 C   0  0  0  0  0  0  0  0  0  0  0  0
   -0.0141    0.0249    2.4084 C   0  0  0  0  0  0  0  0  0  0  0  0
   -0.7093    0.0218    1.2019 C   0  0  0  0  0  0  0  0  0  0  0  0
   -0.6721    0.0200   -1.3167 C   0  0  0  0  0  0  0  0  0  0  0  0
   -0.2323    0.5911   -2.2901 O   0  0  0  0  0  0  0  0  0  0  0  0
   -1.8732   -0.7129   -1.3988 N   0  0  0  0  0  0  0  0  0  0  0  0
   -2.7106   -0.7944   -2.5111 C   0  0  1  0  0  0  0  0  0  0  0  0
   -3.9277   -1.5058   -2.4226 C   0  0  1  0  0  0  0  0  0  0  0  0
   -4.5171   -1.6948   -1.1152 C   0  0  0  0  0  0  0  0  0  0  0  0
   -3.9177   -1.7089   -0.0515 O   0  0  0  0  0  0  0  0  0  0  0  0
   -5.8636   -1.8156   -1.1621 O   0  0  0  0  0  0  0  0  0  0  0  0
   -6.5625   -1.8059    0.0885 C   0  0  0  0  0  0  0  0  0  0  0  0
   -6.6653   -0.3783    0.5942 C   0  0  0  0  0  0  0  0  0  0  0  0
   -4.6261   -1.8308   -3.6472 C   0  0  1  0  0  0  0  0  0  0  0  0
   -4.3336   -1.0294   -4.7717 C   0  0  1  0  0  0  0  0  0  0  0  0
   -3.2168   -0.1734   -4.7940 C   0  0  0  0  0  0  0  0  0  0  0  0
   -2.7562    0.8237   -6.0346 S   0  0  0  0  0  0  0  0  0  0  0  0
   -2.3527   -0.1767   -3.6716 N   0  0  0  0  0  0  0  0  0  0  0  0
   -1.4595    0.3580   -3.7250 H   0  0  0  0  0  0  0  0  0  0  0  0
   -5.1345   -1.0266   -6.0163 C   0  0  0  0  0  0  0  0  0  0  0  0
   -6.2628   -0.5962   -6.0555 O   0  0  0  0  0  0  0  0  0  0  0  0
   -4.4913   -1.6020   -7.2277 C   0  0  0  0  0  0  0  0  0  0  0  0
   -3.6091   -2.6779   -7.1197 C   0  0  0  0  0  0  0  0  0  0  0  0
   -3.0191   -3.2036   -8.2654 C   0  0  0  0  0  0  0  0  0  0  0  0
   -3.3022   -2.6462   -9.5124 C   0  0  0  0  0  0  0  0  0  0  0  0
   -4.1840   -1.5722   -9.6178 C   0  0  0  0  0  0  0  0  0  0  0  0
   -4.7866   -1.0510   -8.4741 C   0  0  0  0  0  0  0  0  0  0  0  0
   -5.3861   -2.9491   -3.7240 N   0  0  0  0  0  0  0  0  0  0  0  0
   -5.3704   -3.9837   -2.6873 C   0  0  0  0  0  0  0  0  0  0  0  0
   -6.4642   -3.1052   -4.7034 C   0  0  0  0  0  0  0  0  0  0  0  0
    1.9433    0.0091   -0.9474 H   0  0  0  0  0  0  0  0  0  0  0  0
    3.1752   -0.0025    1.2158 H   0  0  0  0  0  0  0  0  0  0  0  0
    1.9208    0.0121    3.3593 H   0  0  0  0  0  0  0  0  0  0  0  0
   -0.5614    0.0405    3.3500 H   0  0  0  0  0  0  0  0  0  0  0  0
   -1.8014    0.0466    1.2099 H   0  0  0  0  0  0  0  0  0  0  0  0
   -2.2290   -1.1976   -0.5439 H   0  0  0  0  0  0  0  0  0  0  0  0
   -6.0597   -2.4771    0.8070 H   0  0  0  0  0  0  0  0  0  0  0  0
   -7.5409   -2.2265   -0.2109 H   0  0  0  0  0  0  0  0  0  0  0  0
   -5.6861   -0.0017    0.9223 H   0  0  0  0  0  0  0  0  0  0  0  0
   -7.3530   -0.3010    1.4429 H   0  0  0  0  0  0  0  0  0  0  0  0
   -7.0255    0.2975   -0.1940 H   0  0  0  0  0  0  0  0  0  0  0  0
   -3.3742   -3.0966   -6.1418 H   0  0  0  0  0  0  0  0  0  0  0  0
   -2.3293   -4.0399   -8.1868 H   0  0  0  0  0  0  0  0  0  0  0  0
   -2.8280   -3.0488  -10.4050 H   0  0  0  0  0  0  0  0  0  0  0  0
   -4.3967   -1.1347  -10.5902 H   0  0  0  0  0  0  0  0  0  0  0  0
   -5.4779   -0.2083   -8.5433 H   0  0  0  0  0  0  0  0  0  0  0  0
   -4.4246   -3.9728   -2.1152 H   0  0  0  0  0  0  0  0  0  0  0  0
   -5.4388   -4.9785   -3.1677 H   0  0  0  0  0  0  0  0  0  0  0  0
   -6.2117   -3.8795   -1.9783 H   0  0  0  0  0  0  0  0  0  0  0  0
   -7.1164   -2.2059   -4.7348 H   0  0  0  0  0  0  0  0  0  0  0  0
   -7.1112   -3.9631   -4.4590 H   0  0  0  0  0  0  0  0  0  0  0  0
   -6.0498   -3.2806   -5.7157 H   0  0  0  0  0  0  0  0  0  0  0  0
  1  2  2  0  0  0  0
  1  6  1  0  0  0  0
  2  3  1  0  0  0  0
  3 35  1  0  0  0  0
  3  4  2  0  0  0  0
  4 36  1  0  0  0  0
  5  4  1  0  0  0  0
  5 37  1  0  0  0  0
  6 38  1  0  0  0  0
  6  5  2  0  0  0  0
  7  1  1  0  0  0  0
  8  7  2  0  0  0  0
  9  7  1  0  0  0  0
  9 39  1  0  0  0  0
 10 11  1  0  0  0  0
 10  9  1  1  0  0  0
 11 12  1  1  0  0  0
 12 13  2  0  0  0  0
 14 12  1  0  0  0  0
 14 15  1  0  0  0  0
 15 16  1  0  0  0  0
 15 40  1  0  0  0  0
 16 42  1  0  0  0  0
 16 43  1  0  0  0  0
 17 31  1  6  0  0  0
 17 11  1  0  0  0  0
 18 23  1  6  0  0  0
 18 17  1  0  0  0  0
 19 18  1  0  0  0  0
 19 21  1  0  0  0  0
 20 19  2  0  0  0  0
 21 10  1  0  0  0  0
 22 21  1  0  0  0  0
 24 23  2  0  0  0  0
 25 26  1  0  0  0  0
 25 23  1  0  0  0  0
 26 45  1  0  0  0  0
 27 46  1  0  0  0  0
 27 26  2  0  0  0  0
 28 27  1  0  0  0  0
 29 28  2  0  0  0  0
 29 30  1  0  0  0  0
 30 25  2  0  0  0  0
 31 32  1  0  0  0  0
 32 50  1  0  0  0  0
 32 52  1  0  0  0  0
 33 54  1  0  0  0  0
 33 31  1  0  0  0  0
 34  2  1  0  0  0  0
 41 15  1  0  0  0  0
 44 16  1  0  0  0  0
 47 28  1  0  0  0  0
 48 29  1  0  0  0  0
 49 30  1  0  0  0  0
 51 32  1  0  0  0  0
 53 33  1  0  0  0  0
 55 33  1  0  0  0  0
M  RAD  4  10   2  11   2  17   2  18   2
M  END
$$$$
