
     RDKit          3D

 55 57  0  0  0  0  0  0  0  0999 V2000
   -0.0197    0.0409    0.0923 C   0  0  0  0  0  0  0  0  0  0  0  0
    1.2286    0.6657    0.2422 C   0  0  0  0  0  0  0  0  0  0  0  0
    1.9113    0.5882    1.4544 C   0  0  0  0  0  0  0  0  0  0  0  0
    1.3483   -0.1052    2.5311 C   0  0  0  0  0  0  0  0  0  0  0  0
    0.0996   -0.7180    2.3923 C   0  0  0  0  0  0  0  0  0  0  0  0
   -0.5859   -0.6473    1.1788 C   0  0  0  0  0  0  0  0  0  0  0  0
   -0.6940    0.1760   -1.2341 C   0  0  0  0  0  0  0  0  0  0  0  0
   -0.3112    0.9711   -2.0824 O   0  0  0  0  0  0  0  0  0  0  0  0
   -1.7707   -0.6685   -1.4363 N   0  0  0  0  0  0  0  0  0  0  0  0
   -2.6365   -0.6820   -2.5050 C   0  0  0  0  0  0  0  0  0  0  0  0
   -3.7487   -1.5503   -2.5363 C   0  0  0  0  0  0  0  0  0  0  0  0
   -4.1262   -2.2125   -1.2806 C   0  0  0  0  0  0  0  0  0  0  0  0
   -3.3665   -2.3663   -0.3208 O   0  0  0  0  0  0  0  0  0  0  0  0
   -5.4055   -2.5952   -1.2086 O   0  0  0  0  0  0  0  0  0  0  0  0
   -5.8537   -3.1883    0.0252 C   0  0  0  0  0  0  0  0  0  0  0  0
   -5.4791   -4.6561    0.1280 C   0  0  0  0  0  0  0  0  0  0  0  0
   -4.5656   -1.5377   -3.7427 C   0  0  0  0  0  0  0  0  0  0  0  0
   -4.3385   -0.5587   -4.7095 C   0  0  0  0  0  0  0  0  0  0  0  0
   -3.2286    0.3313   -4.6315 C   0  0  0  0  0  0  0  0  0  0  0  0
   -2.7671    1.4010   -5.8279 S   0  0  0  0  0  0  0  0  0  0  0  0
   -2.4174    0.1839   -3.5090 N   0  0  0  0  0  0  0  0  0  0  0  0
   -1.5804    0.7755   -3.4349 H   0  0  0  0  0  0  0  0  0  0  0  0
   -5.0963   -0.5264   -6.0221 C   0  0  0  0  0  0  0  0  0  0  0  0
   -6.0699    0.1835   -6.1736 O   0  0  0  0  0  0  0  0  0  0  0  0
   -4.6322   -1.4611   -7.0944 C   0  0  0  0  0  0  0  0  0  0  0  0
   -5.3514   -1.4991   -8.2996 C   0  0  0  0  0  0  0  0  0  0  0  0
   -4.9763   -2.3763   -9.3148 C   0  0  0  0  0  0  0  0  0  0  0  0
   -3.8774   -3.2249   -9.1350 C   0  0  0  0  0  0  0  0  0  0  0  0
   -3.1548   -3.1908   -7.9384 C   0  0  0  0  0  0  0  0  0  0  0  0
   -3.5299   -2.3116   -6.9216 C   0  0  0  0  0  0  0  0  0  0  0  0
   -5.5052   -2.5320   -3.9360 N   0  0  0  0  0  0  0  0  0  0  0  0
   -5.1945   -3.9241   -3.6985 C   0  0  0  0  0  0  0  0  0  0  0  0
   -6.8291   -2.2887   -4.4739 C   0  0  0  0  0  0  0  0  0  0  0  0
    1.6426    1.2070   -0.6097 H   0  0  0  0  0  0  0  0  0  0  0  0
    2.8850    1.0712    1.5628 H   0  0  0  0  0  0  0  0  0  0  0  0
    1.8822   -0.1644    3.4826 H   0  0  0  0  0  0  0  0  0  0  0  0
   -0.3472   -1.2502    3.2350 H   0  0  0  0  0  0  0  0  0  0  0  0
   -1.5688   -1.1163    1.1008 H   0  0  0  0  0  0  0  0  0  0  0  0
   -2.0281   -1.3775   -0.7359 H   0  0  0  0  0  0  0  0  0  0  0  0
   -6.9439   -3.0528    0.0060 H   0  0  0  0  0  0  0  0  0  0  0  0
   -5.4356   -2.6177    0.8666 H   0  0  0  0  0  0  0  0  0  0  0  0
   -5.8918   -5.2331   -0.7135 H   0  0  0  0  0  0  0  0  0  0  0  0
   -5.8857   -5.0765    1.0614 H   0  0  0  0  0  0  0  0  0  0  0  0
   -4.3870   -4.7787    0.1438 H   0  0  0  0  0  0  0  0  0  0  0  0
   -6.2021   -0.8244   -8.4104 H   0  0  0  0  0  0  0  0  0  0  0  0
   -5.5380   -2.4009  -10.2517 H   0  0  0  0  0  0  0  0  0  0  0  0
   -3.5819   -3.9125   -9.9314 H   0  0  0  0  0  0  0  0  0  0  0  0
   -2.2928   -3.8478   -7.8007 H   0  0  0  0  0  0  0  0  0  0  0  0
   -2.9613   -2.2758   -5.9913 H   0  0  0  0  0  0  0  0  0  0  0  0
   -4.1657   -4.0359   -3.3338 H   0  0  0  0  0  0  0  0  0  0  0  0
   -5.2789   -4.4908   -4.6448 H   0  0  0  0  0  0  0  0  0  0  0  0
   -5.8788   -4.3774   -2.9620 H   0  0  0  0  0  0  0  0  0  0  0  0
   -7.0595   -1.2191   -4.4618 H   0  0  0  0  0  0  0  0  0  0  0  0
   -7.5689   -2.8130   -3.8423 H   0  0  0  0  0  0  0  0  0  0  0  0
   -6.9412   -2.6583   -5.5092 H   0  0  0  0  0  0  0  0  0  0  0  0
  1  2  2  0
  1  6  1  0
  1  7  1  0
  2  3  1  0
  2 34  1  0
  3  4  2  0
  3 35  1  0
  4  5  1  0
  4 36  1  0
  5  6  2  0
  5 37  1  0
  6 38  1  0
  7  8  2  0
  7  9  1  0
  9 10  1  0
  9 39  1  0
 10 11  2  0
 10 21  1  0
 11 12  1  0
 11 17  1  0
 12 13  2  0
 12 14  1  0
 14 15  1  0
 15 16  1  0
 15 40  1  0
 15 41  1  0
 16 42  1  0
 16 43  1  0
 16 44  1  0
 17 18  2  0
 17 31  1  0
 18 19  1  0
 18 23  1  0
 19 20  2  0
 19 21  1  0
 21 22  1  0
 23 24  2  0
 23 25  1  0
 25 26  2  0
 25 30  1  0
 26 27  1  0
 26 45  1  0
 27 28  2  0
 27 46  1  0
 28 29  1  0
 28 47  1  0
 29 30  2  0
 29 48  1  0
 30 49  1  0
 31 32  1  0
 31 33  1  0
 32 50  1  0
 32 51  1  0
 32 52  1  0
 33 53  1  0
 33 54  1  0
 33 55  1  0
M  END

