rmsd190.gzmat
 OpenBabel08211713383D

 55 57  0  0  1  0  0  0  0  0999 V2000
    0.0000    0.0000    0.0000 C   0  0  0  0  0  0  0  0  0  0  0  0
    1.3957    0.0000    0.0000 C   0  0  0  0  0  0  0  0  0  0  0  0
    2.0807    0.0000    1.2127 C   0  0  0  0  0  0  0  0  0  0  0  0
    1.3742   -0.0010    2.4155 C   0  0  0  0  0  0  0  0  0  0  0  0
   -0.0201   -0.0084    2.4108 C   0  0  0  0  0  0  0  0  0  0  0  0
   -0.7115   -0.0135    1.2020 C   0  0  0  0  0  0  0  0  0  0  0  0
   -0.7855   -0.0269   -1.2530 C   0  0  0  0  0  0  0  0  0  0  0  0
   -1.7945   -0.6778   -1.4072 O   0  0  0  0  0  0  0  0  0  0  0  0
   -0.3025    0.8044   -2.2841 N   0  0  0  0  0  0  0  0  0  0  0  0
   -0.8373    0.9192   -3.5669 C   0  0  1  0  0  0  0  0  0  0  0  0
   -0.1888    1.7253   -4.5312 C   0  0  1  0  0  0  0  0  0  0  0  0
    1.2254    1.9729   -4.3585 C   0  0  0  0  0  0  0  0  0  0  0  0
    1.8308    1.9650   -3.2978 O   0  0  0  0  0  0  0  0  0  0  0  0
    1.8808    2.1443   -5.5307 O   0  0  0  0  0  0  0  0  0  0  0  0
    3.3084    2.2349   -5.4673 C   0  0  0  0  0  0  0  0  0  0  0  0
    3.7393    3.6162   -5.0069 C   0  0  0  0  0  0  0  0  0  0  0  0
   -0.9219    2.0973   -5.7239 C   0  0  0  0  0  0  0  0  0  0  0  0
   -2.0107    1.2712   -6.0748 C   0  0  0  0  0  0  0  0  0  0  0  0
   -2.5256    0.3075   -5.1888 C   0  0  0  0  0  0  0  0  0  0  0  0
   -3.7759   -0.7403   -5.4813 S   0  0  0  0  0  0  0  0  0  0  0  0
   -1.9716    0.2364   -3.8869 N   0  0  0  0  0  0  0  0  0  0  0  0
   -2.4318   -0.3753   -3.1797 H   0  0  0  0  0  0  0  0  0  0  0  0
   -2.7976    1.4111   -7.3230 C   0  0  0  0  0  0  0  0  0  0  0  0
   -3.5290    2.3536   -7.5179 O   0  0  0  0  0  0  0  0  0  0  0  0
   -2.6491    0.3391   -8.3408 C   0  0  0  0  0  0  0  0  0  0  0  0
   -1.4592   -0.3790   -8.4630 C   0  0  0  0  0  0  0  0  0  0  0  0
   -1.3504   -1.3724   -9.4327 C   0  0  0  0  0  0  0  0  0  0  0  0
   -2.4330   -1.6563  -10.2652 C   0  0  0  0  0  0  0  0  0  0  0  0
   -3.6227   -0.9415  -10.1376 C   0  0  0  0  0  0  0  0  0  0  0  0
   -3.7308    0.0627   -9.1777 C   0  0  0  0  0  0  0  0  0  0  0  0
   -0.5859    3.2154   -6.4028 N   0  0  0  0  0  0  0  0  0  0  0  0
    0.2210    4.2839   -5.8120 C   0  0  0  0  0  0  0  0  0  0  0  0
   -0.9514    3.4583   -7.7989 C   0  0  0  0  0  0  0  0  0  0  0  0
    1.9561   -0.0097   -0.9373 H   0  0  0  0  0  0  0  0  0  0  0  0
    3.1697   -0.0005    1.2207 H   0  0  0  0  0  0  0  0  0  0  0  0
    1.9141   -0.0001    3.3624 H   0  0  0  0  0  0  0  0  0  0  0  0
   -0.5690   -0.0151    3.3517 H   0  0  0  0  0  0  0  0  0  0  0  0
   -1.8043   -0.0351    1.1892 H   0  0  0  0  0  0  0  0  0  0  0  0
    0.5765    1.3472   -2.1217 H   0  0  0  0  0  0  0  0  0  0  0  0
    3.5774    2.0274   -6.5208 H   0  0  0  0  0  0  0  0  0  0  0  0
    3.6991    1.4359   -4.8103 H   0  0  0  0  0  0  0  0  0  0  0  0
    3.3877    4.4043   -5.6810 H   0  0  0  0  0  0  0  0  0  0  0  0
    4.8322    3.6916   -4.9488 H   0  0  0  0  0  0  0  0  0  0  0  0
    3.3483    3.8340   -4.0008 H   0  0  0  0  0  0  0  0  0  0  0  0
   -0.6236   -0.1737   -7.7944 H   0  0  0  0  0  0  0  0  0  0  0  0
   -0.4255   -1.9344   -9.5321 H   0  0  0  0  0  0  0  0  0  0  0  0
   -2.3500   -2.4423  -11.0128 H   0  0  0  0  0  0  0  0  0  0  0  0
   -4.4686   -1.1708  -10.7810 H   0  0  0  0  0  0  0  0  0  0  0  0
   -4.6582    0.6285   -9.0649 H   0  0  0  0  0  0  0  0  0  0  0  0
    0.2283    4.2325   -4.7080 H   0  0  0  0  0  0  0  0  0  0  0  0
   -0.2132    5.2659   -6.0802 H   0  0  0  0  0  0  0  0  0  0  0  0
    1.2658    4.2490   -6.1727 H   0  0  0  0  0  0  0  0  0  0  0  0
   -0.9523    2.5240   -8.3909 H   0  0  0  0  0  0  0  0  0  0  0  0
   -0.2273    4.1356   -8.2835 H   0  0  0  0  0  0  0  0  0  0  0  0
   -1.9591    3.9242   -7.8645 H   0  0  0  0  0  0  0  0  0  0  0  0
  1  6  1  0  0  0  0
  2  1  2  0  0  0  0
  2  3  1  0  0  0  0
  3 35  1  0  0  0  0
  3  4  2  0  0  0  0
  4 36  1  0  0  0  0
  5  4  1  0  0  0  0
  5 37  1  0  0  0  0
  6  5  2  0  0  0  0
  7  1  1  0  0  0  0
  8  7  2  0  0  0  0
  9 39  1  0  0  0  0
  9  7  1  0  0  0  0
 10  9  1  6  0  0  0
 11 12  1  6  0  0  0
 11 10  1  0  0  0  0
 12 13  2  0  0  0  0
 14 15  1  0  0  0  0
 14 12  1  0  0  0  0
 15 16  1  0  0  0  0
 15 41  1  0  0  0  0
 16 43  1  0  0  0  0
 16 44  1  0  0  0  0
 17 11  1  0  0  0  0
 18 17  2  0  0  0  0
 18 19  1  0  0  0  0
 19 21  1  0  0  0  0
 20 19  2  0  0  0  0
 21 10  1  0  0  0  0
 21 22  1  0  0  0  0
 23 18  1  0  0  0  0
 24 23  2  0  0  0  0
 25 23  1  0  0  0  0
 26 25  1  0  0  0  0
 26 45  1  0  0  0  0
 27 26  2  0  0  0  0
 28 29  2  0  0  0  0
 28 27  1  0  0  0  0
 29 30  1  0  0  0  0
 30 49  1  0  0  0  0
 30 25  2  0  0  0  0
 31 32  1  0  0  0  0
 31 17  1  0  0  0  0
 32 50  1  0  0  0  0
 33 31  1  0  0  0  0
 34  2  1  0  0  0  0
 38  6  1  0  0  0  0
 40 15  1  0  0  0  0
 42 16  1  0  0  0  0
 46 27  1  0  0  0  0
 47 28  1  0  0  0  0
 48 29  1  0  0  0  0
 51 32  1  0  0  0  0
 52 32  1  0  0  0  0
 53 33  1  0  0  0  0
 54 33  1  0  0  0  0
 55 33  1  0  0  0  0
M  RAD  2  10   2  11   2
M  END
$$$$
