55
rmsd37.gzmat
C          0.00000        0.00000        0.00000
C          1.39580        0.00000        0.00000
C          2.08160        0.00000        1.21210
C          1.37600       -0.00400        2.41520
C         -0.01830       -0.01770        2.41180
C         -0.71000       -0.02030        1.20350
C         -0.79280       -0.01520       -1.24820
O         -1.84490       -0.60170       -1.37370
N         -0.26680        0.74690       -2.31080
C         -0.80550        0.85320       -3.59280
C         -0.11440        1.58240       -4.58670
C          1.31130        1.76780       -4.42490
O          1.91670        1.78500       -3.36420
O          1.96510        1.87990       -5.60340
C          3.39740        1.88830       -5.55300
C          3.90510        0.47150       -5.35550
C         -0.81910        1.93410       -5.79990
C         -1.95270        1.15630       -6.11960
C         -2.53620        0.28260       -5.18370
S         -3.85520       -0.69050       -5.42670
N         -1.99070        0.24450       -3.87780
H         -2.48210       -0.31150       -3.14580
C         -2.64000        1.18980       -7.43070
O         -2.13340        0.74490       -8.43350
C         -3.98870        1.81610       -7.47110
C         -4.30770        2.88140       -6.62820
C         -5.57160        3.46080       -6.69810
C         -6.51550        2.96800       -7.59950
C         -6.19680        1.89980       -8.43580
C         -4.92920        1.32370       -8.37570
N         -0.48700        3.05380       -6.48690
C          0.42690        4.06630       -5.95390
C         -0.79880        3.22640       -7.90790
H          1.95820       -0.00880       -0.93630
H          3.17070        0.00210        1.21950
H          1.91690       -0.00080        3.36130
H         -0.56680       -0.03150        3.35250
H         -1.80310       -0.04510        1.19210
H          0.64570        1.23920       -2.17500
H          3.74240        2.57610       -4.76110
H          3.64320        2.29620       -6.55140
H          3.63120        0.08750       -4.36260
H          4.99610        0.42030       -5.43940
H          3.47570       -0.21330       -6.09930
H         -3.57490        3.25130       -5.91160
H         -5.82650        4.28980       -6.04280
H         -7.50580        3.41670       -7.64530
H         -6.93720        1.51120       -9.13130
H         -4.66740        0.48340       -9.02270
H          0.45810        4.04720       -4.84950
H          0.06290        5.07110       -6.24250
H          1.45580        3.94460       -6.33830
H         -0.52570        2.32390       -8.49610
H         -0.24330        4.07230       -8.34410
H         -1.87820        3.43080       -8.04760
