rmsd37.gzmat
 OpenBabel08211713383D

 55 57  0  0  1  0  0  0  0  0999 V2000
    0.0000    0.0000    0.0000 C   0  0  0  0  0  0  0  0  0  0  0  0
    1.3958    0.0000    0.0000 C   0  0  0  0  0  0  0  0  0  0  0  0
    2.0816    0.0000    1.2121 C   0  0  0  0  0  0  0  0  0  0  0  0
    1.3760   -0.0040    2.4152 C   0  0  0  0  0  0  0  0  0  0  0  0
   -0.0183   -0.0177    2.4118 C   0  0  0  0  0  0  0  0  0  0  0  0
   -0.7100   -0.0203    1.2035 C   0  0  0  0  0  0  0  0  0  0  0  0
   -0.7928   -0.0152   -1.2482 C   0  0  0  0  0  0  0  0  0  0  0  0
   -1.8449   -0.6017   -1.3737 O   0  0  0  0  0  0  0  0  0  0  0  0
   -0.2668    0.7469   -2.3108 N   0  0  0  0  0  0  0  0  0  0  0  0
   -0.8055    0.8532   -3.5928 C   0  0  1  0  0  0  0  0  0  0  0  0
   -0.1144    1.5824   -4.5867 C   0  0  1  0  0  0  0  0  0  0  0  0
    1.3113    1.7678   -4.4249 C   0  0  0  0  0  0  0  0  0  0  0  0
    1.9167    1.7850   -3.3642 O   0  0  0  0  0  0  0  0  0  0  0  0
    1.9651    1.8799   -5.6034 O   0  0  0  0  0  0  0  0  0  0  0  0
    3.3974    1.8883   -5.5530 C   0  0  0  0  0  0  0  0  0  0  0  0
    3.9051    0.4715   -5.3555 C   0  0  0  0  0  0  0  0  0  0  0  0
   -0.8191    1.9341   -5.7999 C   0  0  1  0  0  0  0  0  0  0  0  0
   -1.9527    1.1563   -6.1196 C   0  0  1  0  0  0  0  0  0  0  0  0
   -2.5362    0.2826   -5.1837 C   0  0  0  0  0  0  0  0  0  0  0  0
   -3.8552   -0.6905   -5.4267 S   0  0  0  0  0  0  0  0  0  0  0  0
   -1.9907    0.2445   -3.8778 N   0  0  0  0  0  0  0  0  0  0  0  0
   -2.4821   -0.3115   -3.1458 H   0  0  0  0  0  0  0  0  0  0  0  0
   -2.6400    1.1898   -7.4307 C   0  0  0  0  0  0  0  0  0  0  0  0
   -2.1334    0.7449   -8.4335 O   0  0  0  0  0  0  0  0  0  0  0  0
   -3.9887    1.8161   -7.4711 C   0  0  0  0  0  0  0  0  0  0  0  0
   -4.3077    2.8814   -6.6282 C   0  0  0  0  0  0  0  0  0  0  0  0
   -5.5716    3.4608   -6.6981 C   0  0  0  0  0  0  0  0  0  0  0  0
   -6.5155    2.9680   -7.5995 C   0  0  0  0  0  0  0  0  0  0  0  0
   -6.1968    1.8998   -8.4358 C   0  0  0  0  0  0  0  0  0  0  0  0
   -4.9292    1.3237   -8.3757 C   0  0  0  0  0  0  0  0  0  0  0  0
   -0.4870    3.0538   -6.4869 N   0  0  0  0  0  0  0  0  0  0  0  0
    0.4269    4.0663   -5.9539 C   0  0  0  0  0  0  0  0  0  0  0  0
   -0.7988    3.2264   -7.9079 C   0  0  0  0  0  0  0  0  0  0  0  0
    1.9582   -0.0088   -0.9363 H   0  0  0  0  0  0  0  0  0  0  0  0
    3.1707    0.0021    1.2195 H   0  0  0  0  0  0  0  0  0  0  0  0
    1.9169   -0.0008    3.3613 H   0  0  0  0  0  0  0  0  0  0  0  0
   -0.5668   -0.0315    3.3525 H   0  0  0  0  0  0  0  0  0  0  0  0
   -1.8031   -0.0451    1.1921 H   0  0  0  0  0  0  0  0  0  0  0  0
    0.6457    1.2392   -2.1750 H   0  0  0  0  0  0  0  0  0  0  0  0
    3.7424    2.5761   -4.7611 H   0  0  0  0  0  0  0  0  0  0  0  0
    3.6432    2.2962   -6.5514 H   0  0  0  0  0  0  0  0  0  0  0  0
    3.6312    0.0875   -4.3626 H   0  0  0  0  0  0  0  0  0  0  0  0
    4.9961    0.4203   -5.4394 H   0  0  0  0  0  0  0  0  0  0  0  0
    3.4757   -0.2133   -6.0993 H   0  0  0  0  0  0  0  0  0  0  0  0
   -3.5749    3.2513   -5.9116 H   0  0  0  0  0  0  0  0  0  0  0  0
   -5.8265    4.2898   -6.0428 H   0  0  0  0  0  0  0  0  0  0  0  0
   -7.5058    3.4167   -7.6453 H   0  0  0  0  0  0  0  0  0  0  0  0
   -6.9372    1.5112   -9.1313 H   0  0  0  0  0  0  0  0  0  0  0  0
   -4.6674    0.4834   -9.0227 H   0  0  0  0  0  0  0  0  0  0  0  0
    0.4581    4.0472   -4.8495 H   0  0  0  0  0  0  0  0  0  0  0  0
    0.0629    5.0711   -6.2425 H   0  0  0  0  0  0  0  0  0  0  0  0
    1.4558    3.9446   -6.3383 H   0  0  0  0  0  0  0  0  0  0  0  0
   -0.5257    2.3239   -8.4961 H   0  0  0  0  0  0  0  0  0  0  0  0
   -0.2433    4.0723   -8.3441 H   0  0  0  0  0  0  0  0  0  0  0  0
   -1.8782    3.4308   -8.0476 H   0  0  0  0  0  0  0  0  0  0  0  0
  1  2  2  0  0  0  0
  1  6  1  0  0  0  0
  2  3  1  0  0  0  0
  3 35  1  0  0  0  0
  3  4  2  0  0  0  0
  4 36  1  0  0  0  0
  5  4  1  0  0  0  0
  5 37  1  0  0  0  0
  6  5  2  0  0  0  0
  7  1  1  0  0  0  0
  8  7  2  0  0  0  0
  9 39  1  0  0  0  0
  9  7  1  0  0  0  0
 10  9  1  6  0  0  0
 11 12  1  6  0  0  0
 11 10  1  0  0  0  0
 12 13  2  0  0  0  0
 14 15  1  0  0  0  0
 14 12  1  0  0  0  0
 15 16  1  0  0  0  0
 15 40  1  0  0  0  0
 16 42  1  0  0  0  0
 17 31  1  1  0  0  0
 17 11  1  0  0  0  0
 18 23  1  1  0  0  0
 18 17  1  0  0  0  0
 18 19  1  0  0  0  0
 19 21  1  0  0  0  0
 20 19  2  0  0  0  0
 21 10  1  0  0  0  0
 21 22  1  0  0  0  0
 24 23  2  0  0  0  0
 25 23  1  0  0  0  0
 25 26  2  0  0  0  0
 26 45  1  0  0  0  0
 27 26  1  0  0  0  0
 27 46  1  0  0  0  0
 28 27  2  0  0  0  0
 29 30  2  0  0  0  0
 29 28  1  0  0  0  0
 30 25  1  0  0  0  0
 31 32  1  0  0  0  0
 32 50  1  0  0  0  0
 33 31  1  0  0  0  0
 34  2  1  0  0  0  0
 38  6  1  0  0  0  0
 41 15  1  0  0  0  0
 43 16  1  0  0  0  0
 44 16  1  0  0  0  0
 47 28  1  0  0  0  0
 48 29  1  0  0  0  0
 49 30  1  0  0  0  0
 51 32  1  0  0  0  0
 52 32  1  0  0  0  0
 53 33  1  0  0  0  0
 54 33  1  0  0  0  0
 55 33  1  0  0  0  0
M  RAD  4  10   2  11   2  17   2  18   2
M  END
$$$$
