55
rmsd71.gzmat
C          0.00000        0.00000        0.00000
C          1.39730        0.00000        0.00000
C          2.08530        0.00000        1.21070
C          1.37860        0.00720        2.41280
C         -0.01620        0.01670        2.40820
C         -0.71090        0.01550        1.20120
C         -0.67520        0.03010       -1.31520
O         -0.25500        0.63490       -2.27650
N         -1.85620       -0.73370       -1.40970
C         -2.69970       -0.80540       -2.51800
C         -3.89190       -1.55920       -2.44550
C         -4.46970       -1.80370       -1.14260
O         -3.86550       -1.83100       -0.08190
O         -5.81260       -1.96310       -1.18940
C         -6.51060       -1.98080        0.06170
C         -6.65130       -0.55900        0.57640
C         -4.58520       -1.86780       -3.67800
C         -4.34590       -0.99950       -4.76780
C         -3.26100       -0.10380       -4.76470
S         -2.86280        0.98240       -5.95120
N         -2.37480       -0.13490       -3.65880
H         -1.49920        0.42870       -3.70270
C         -5.19500       -0.94170       -5.97710
O         -6.35220       -0.59340       -5.92970
C         -4.57700       -1.35370       -7.26570
C         -5.03360       -0.76810       -8.44650
C         -4.46560       -1.13700       -9.66470
C         -3.45140       -2.09230       -9.69900
C         -3.00280       -2.68320       -8.51740
C         -3.56320       -2.31240       -7.29830
N         -5.28340       -3.01990       -3.79650
C         -5.25110       -4.07190       -2.77740
C         -6.31750       -3.21730       -4.81520
H          1.94360        0.00840       -0.94700
H          3.17440        0.00150        1.21750
H          1.91760        0.01060        3.36000
H         -0.56330        0.02730        3.35010
H         -1.80300        0.03650        1.20710
H         -2.18970       -1.25550       -0.56740
H         -5.98990       -2.64250        0.77580
H         -7.47780       -2.42490       -0.24060
H         -5.68330       -0.15830        0.90980
H         -7.34320       -0.50460        1.42370
H         -7.02770        0.11200       -0.20910
H         -5.82530       -0.01670       -8.40570
H         -4.80840       -0.67280      -10.58600
H         -3.00350       -2.37460      -10.64940
H         -2.20720       -3.42330       -8.54670
H         -3.20380       -2.75950       -6.37210
H         -4.31820       -4.03880       -2.18560
H         -5.27510       -5.06140       -3.27220
H         -6.11070       -4.00640       -2.08520
H         -7.05900       -2.38910       -4.80470
H         -6.87650       -4.15200       -4.64850
H         -5.86550       -3.27940       -5.82460
