55
rmsd190.gzmat
C          0.00000        0.00000        0.00000
C          1.39570        0.00000        0.00000
C          2.08070        0.00000        1.21270
C          1.37420       -0.00100        2.41550
C         -0.02010       -0.00840        2.41080
C         -0.71150       -0.01350        1.20200
C         -0.78550       -0.02690       -1.25300
O         -1.79450       -0.67780       -1.40720
N         -0.30250        0.80440       -2.28410
C         -0.83730        0.91920       -3.56690
C         -0.18880        1.72530       -4.53120
C          1.22540        1.97290       -4.35850
O          1.83080        1.96500       -3.29780
O          1.88080        2.14430       -5.53070
C          3.30840        2.23490       -5.46730
C          3.73930        3.61620       -5.00690
C         -0.92190        2.09730       -5.72390
C         -2.01070        1.27120       -6.07480
C         -2.52560        0.30750       -5.18880
S         -3.77590       -0.74030       -5.48130
N         -1.97160        0.23640       -3.88690
H         -2.43180       -0.37530       -3.17970
C         -2.79760        1.41110       -7.32300
O         -3.52900        2.35360       -7.51790
C         -2.64910        0.33910       -8.34080
C         -1.45920       -0.37900       -8.46300
C         -1.35040       -1.37240       -9.43270
C         -2.43300       -1.65630      -10.26520
C         -3.62270       -0.94150      -10.13760
C         -3.73080        0.06270       -9.17770
N         -0.58590        3.21540       -6.40280
C          0.22100        4.28390       -5.81200
C         -0.95140        3.45830       -7.79890
H          1.95610       -0.00970       -0.93730
H          3.16970       -0.00050        1.22070
H          1.91410       -0.00010        3.36240
H         -0.56900       -0.01510        3.35170
H         -1.80430       -0.03510        1.18920
H          0.57650        1.34720       -2.12170
H          3.57740        2.02740       -6.52080
H          3.69910        1.43590       -4.81030
H          3.38770        4.40430       -5.68100
H          4.83220        3.69160       -4.94880
H          3.34830        3.83400       -4.00080
H         -0.62360       -0.17370       -7.79440
H         -0.42550       -1.93440       -9.53210
H         -2.35000       -2.44230      -11.01280
H         -4.46860       -1.17080      -10.78100
H         -4.65820        0.62850       -9.06490
H          0.22830        4.23250       -4.70800
H         -0.21320        5.26590       -6.08020
H          1.26580        4.24900       -6.17270
H         -0.95230        2.52400       -8.39090
H         -0.22730        4.13560       -8.28350
H         -1.95910        3.92420       -7.86450
