55

C          0.06130       -0.00420        0.01320
C          1.38200        0.47180        0.07490
C          2.09580        0.39300        1.27160
C          1.50100       -0.15910        2.40980
C          0.18940       -0.64200        2.35000
C         -0.52560       -0.57000        1.15620
C         -0.76540        0.02970       -1.23100
O         -1.80720       -0.60350       -1.33900
N         -0.27420        0.83570       -2.24250
C         -0.76380        0.97040       -3.52060
C         -0.09490        1.75570       -4.48400
C          1.28680        2.15600       -4.18060
O          1.75940        2.20760       -3.04220
O          2.05130        2.40580       -5.24870
C          3.43100        2.74640       -5.01410
C          3.60600        4.20290       -4.62210
C         -0.74000        1.90320       -5.78160
C         -1.86720        1.12740       -6.08130
C         -2.47660        0.28700       -5.10140
S         -3.88820       -0.58740       -5.29790
N         -1.87700        0.29290       -3.84520
H         -2.31950       -0.25610       -3.09760
C         -2.69620        1.39890       -7.31910
O         -3.18160        2.50360       -7.48040
C         -2.84240        0.32570       -8.34810
C         -2.09940       -0.86330       -8.29220
C         -2.21790       -1.81330       -9.30580
C         -3.08710       -1.58660      -10.37850
C         -3.83180       -0.40350      -10.43870
C         -3.70550        0.55080       -9.43050
N         -0.22670        2.81010       -6.68080
C          0.10950        4.16060       -6.28110
C         -0.23480        2.60350       -8.11320
H          1.87470        0.88860       -0.80590
H          3.12350        0.76030        1.31280
H          2.06290       -0.21700        3.34510
H         -0.27530       -1.07710        3.23750
H         -1.54690       -0.94630        1.08180
H          0.57000        1.40710       -2.10160
H          3.92630        2.52620       -5.96980
H          3.83520        2.08080       -4.23810
H          3.19850        4.87470       -5.39260
H          4.67790        4.42770       -4.50560
H          3.10590        4.41130       -3.66580
H         -1.43460       -1.04230       -7.44550
H         -1.63840       -2.73810       -9.25670
H         -3.18470       -2.33490      -11.16900
H         -4.51150       -0.22760      -11.27600
H         -4.26890        1.48500       -9.45490
H          0.02240        4.28130       -5.19490
H         -0.59510        4.86930       -6.75480
H          1.13430        4.42920       -6.58510
H         -0.35230        1.53910       -8.34750
H          0.73700        2.93400       -8.52000
H         -1.03770        3.16370       -8.62250
