
     RDKit          3D

 55 57  0  0  0  0  0  0  0  0999 V2000
    0.0613   -0.0042    0.0132 C   0  0  0  0  0  0  0  0  0  0  0  0
    1.3820    0.4718    0.0749 C   0  0  0  0  0  0  0  0  0  0  0  0
    2.0958    0.3930    1.2716 C   0  0  0  0  0  0  0  0  0  0  0  0
    1.5010   -0.1591    2.4098 C   0  0  0  0  0  0  0  0  0  0  0  0
    0.1894   -0.6420    2.3500 C   0  0  0  0  0  0  0  0  0  0  0  0
   -0.5256   -0.5700    1.1562 C   0  0  0  0  0  0  0  0  0  0  0  0
   -0.7654    0.0297   -1.2310 C   0  0  0  0  0  0  0  0  0  0  0  0
   -1.8072   -0.6035   -1.3390 O   0  0  0  0  0  0  0  0  0  0  0  0
   -0.2742    0.8357   -2.2425 N   0  0  0  0  0  0  0  0  0  0  0  0
   -0.7638    0.9704   -3.5206 C   0  0  0  0  0  0  0  0  0  0  0  0
   -0.0949    1.7557   -4.4840 C   0  0  0  0  0  0  0  0  0  0  0  0
    1.2868    2.1560   -4.1806 C   0  0  0  0  0  0  0  0  0  0  0  0
    1.7594    2.2076   -3.0422 O   0  0  0  0  0  0  0  0  0  0  0  0
    2.0513    2.4058   -5.2487 O   0  0  0  0  0  0  0  0  0  0  0  0
    3.4310    2.7464   -5.0141 C   0  0  0  0  0  0  0  0  0  0  0  0
    3.6060    4.2029   -4.6221 C   0  0  0  0  0  0  0  0  0  0  0  0
   -0.7400    1.9032   -5.7816 C   0  0  0  0  0  0  0  0  0  0  0  0
   -1.8672    1.1274   -6.0813 C   0  0  0  0  0  0  0  0  0  0  0  0
   -2.4766    0.2870   -5.1014 C   0  0  0  0  0  0  0  0  0  0  0  0
   -3.8882   -0.5874   -5.2979 S   0  0  0  0  0  0  0  0  0  0  0  0
   -1.8770    0.2929   -3.8452 N   0  0  0  0  0  0  0  0  0  0  0  0
   -2.3195   -0.2561   -3.0976 H   0  0  0  0  0  0  0  0  0  0  0  0
   -2.6962    1.3989   -7.3191 C   0  0  0  0  0  0  0  0  0  0  0  0
   -3.1816    2.5036   -7.4804 O   0  0  0  0  0  0  0  0  0  0  0  0
   -2.8424    0.3257   -8.3481 C   0  0  0  0  0  0  0  0  0  0  0  0
   -2.0994   -0.8633   -8.2922 C   0  0  0  0  0  0  0  0  0  0  0  0
   -2.2179   -1.8133   -9.3058 C   0  0  0  0  0  0  0  0  0  0  0  0
   -3.0871   -1.5866  -10.3785 C   0  0  0  0  0  0  0  0  0  0  0  0
   -3.8318   -0.4035  -10.4387 C   0  0  0  0  0  0  0  0  0  0  0  0
   -3.7055    0.5508   -9.4305 C   0  0  0  0  0  0  0  0  0  0  0  0
   -0.2267    2.8101   -6.6808 N   0  0  0  0  0  0  0  0  0  0  0  0
    0.1095    4.1606   -6.2811 C   0  0  0  0  0  0  0  0  0  0  0  0
   -0.2348    2.6035   -8.1132 C   0  0  0  0  0  0  0  0  0  0  0  0
    1.8747    0.8886   -0.8059 H   0  0  0  0  0  0  0  0  0  0  0  0
    3.1235    0.7603    1.3128 H   0  0  0  0  0  0  0  0  0  0  0  0
    2.0629   -0.2170    3.3451 H   0  0  0  0  0  0  0  0  0  0  0  0
   -0.2753   -1.0771    3.2375 H   0  0  0  0  0  0  0  0  0  0  0  0
   -1.5469   -0.9463    1.0818 H   0  0  0  0  0  0  0  0  0  0  0  0
    0.5700    1.4071   -2.1016 H   0  0  0  0  0  0  0  0  0  0  0  0
    3.9263    2.5262   -5.9698 H   0  0  0  0  0  0  0  0  0  0  0  0
    3.8352    2.0808   -4.2381 H   0  0  0  0  0  0  0  0  0  0  0  0
    3.1985    4.8747   -5.3926 H   0  0  0  0  0  0  0  0  0  0  0  0
    4.6779    4.4277   -4.5056 H   0  0  0  0  0  0  0  0  0  0  0  0
    3.1059    4.4113   -3.6658 H   0  0  0  0  0  0  0  0  0  0  0  0
   -1.4346   -1.0423   -7.4455 H   0  0  0  0  0  0  0  0  0  0  0  0
   -1.6384   -2.7381   -9.2567 H   0  0  0  0  0  0  0  0  0  0  0  0
   -3.1847   -2.3349  -11.1690 H   0  0  0  0  0  0  0  0  0  0  0  0
   -4.5115   -0.2276  -11.2760 H   0  0  0  0  0  0  0  0  0  0  0  0
   -4.2689    1.4850   -9.4549 H   0  0  0  0  0  0  0  0  0  0  0  0
    0.0224    4.2813   -5.1949 H   0  0  0  0  0  0  0  0  0  0  0  0
   -0.5951    4.8693   -6.7548 H   0  0  0  0  0  0  0  0  0  0  0  0
    1.1343    4.4292   -6.5851 H   0  0  0  0  0  0  0  0  0  0  0  0
   -0.3523    1.5391   -8.3475 H   0  0  0  0  0  0  0  0  0  0  0  0
    0.7370    2.9340   -8.5200 H   0  0  0  0  0  0  0  0  0  0  0  0
   -1.0377    3.1637   -8.6225 H   0  0  0  0  0  0  0  0  0  0  0  0
  1  2  2  0
  1  6  1  0
  1  7  1  0
  2  3  1  0
  2 34  1  0
  3  4  2  0
  3 35  1  0
  4  5  1  0
  4 36  1  0
  5  6  2  0
  5 37  1  0
  6 38  1  0
  7  8  2  0
  7  9  1  0
  9 10  1  0
  9 39  1  0
 10 11  2  0
 10 21  1  0
 11 12  1  0
 11 17  1  0
 12 13  2  0
 12 14  1  0
 14 15  1  0
 15 16  1  0
 15 40  1  0
 15 41  1  0
 16 42  1  0
 16 43  1  0
 16 44  1  0
 17 18  2  0
 17 31  1  0
 18 19  1  0
 18 23  1  0
 19 20  2  0
 19 21  1  0
 21 22  1  0
 23 24  2  0
 23 25  1  0
 25 26  2  0
 25 30  1  0
 26 27  1  0
 26 45  1  0
 27 28  2  0
 27 46  1  0
 28 29  1  0
 28 47  1  0
 29 30  2  0
 29 48  1  0
 30 49  1  0
 31 32  1  0
 31 33  1  0
 32 50  1  0
 32 51  1  0
 32 52  1  0
 33 53  1  0
 33 54  1  0
 33 55  1  0
M  END

