55
rmsd120.gzmat
C          0.00000        0.00000        0.00000
C          1.39660        0.00000        0.00000
C          2.08310        0.00000        1.21190
C          1.37500       -0.00990        2.41310
C         -0.01980       -0.02530        2.40770
C         -0.71260       -0.02080        1.19960
C         -0.68000       -0.00850       -1.31360
O         -0.32100       -0.66960       -2.26160
N         -1.80390        0.83630       -1.40730
C         -2.58090        1.04620       -2.54670
C         -3.68390        1.92530       -2.49100
C         -3.71120        2.93660       -1.45690
O         -3.18050        2.86020       -0.36070
O         -4.35120        4.06070       -1.85370
C         -4.27810        5.19770       -0.98720
C         -5.34740        5.10760        0.08740
C         -4.63060        1.90320       -3.58550
C         -4.13750        1.45320       -4.83400
C         -2.94270        0.71710       -4.91780
S         -2.22990        0.11820       -6.28950
N         -2.26140        0.41350       -3.71110
H         -1.45150       -0.24040       -3.74530
C         -4.79730        1.75070       -6.12130
O         -4.96100        2.88760       -6.50140
C         -5.29020        0.60420       -6.92990
C         -5.30910        0.72130       -8.31970
C         -5.77550       -0.33880       -9.09540
C         -6.23040       -1.50360       -8.48050
C         -6.21970       -1.61420       -7.08970
C         -5.74330       -0.56280       -6.31200
N         -5.94050        2.13700       -3.35440
C         -6.88790        2.47190       -4.42010
C         -6.47840        2.32410       -2.00510
H          1.94250       -0.00510       -0.94710
H          3.17240        0.00410        1.22120
H          1.91370       -0.00910        3.36050
H         -0.56840       -0.03990        3.34840
H         -1.80330       -0.04180        1.20120
H         -2.06540        1.41990       -0.57930
H         -4.45630        6.02130       -1.70590
H         -3.26100        5.28000       -0.56110
H         -6.35630        5.07820       -0.33790
H         -5.30000        5.96960        0.76450
H         -5.21170        4.20520        0.70110
H         -4.94900        1.63910       -8.78890
H         -5.77770       -0.25780      -10.17960
H         -6.58990       -2.33350       -9.08510
H         -6.57170       -2.52620       -6.61470
H         -5.71220       -0.65450       -5.22690
H         -7.00980        1.61930       -5.11700
H         -6.55230        3.36100       -4.99700
H         -7.88560        2.70730       -4.01550
H         -6.51530        3.39270       -1.72060
H         -5.88070        1.77810       -1.25190
H         -7.50270        1.91110       -1.95200
