55

C         -0.01970        0.04090        0.09230
C          1.22860        0.66570        0.24220
C          1.91130        0.58820        1.45440
C          1.34830       -0.10520        2.53110
C          0.09960       -0.71800        2.39230
C         -0.58590       -0.64730        1.17880
C         -0.69400        0.17600       -1.23410
O         -0.31120        0.97110       -2.08240
N         -1.77070       -0.66850       -1.43630
C         -2.63650       -0.68200       -2.50500
C         -3.74870       -1.55030       -2.53630
C         -4.12620       -2.21250       -1.28060
O         -3.36650       -2.36630       -0.32080
O         -5.40550       -2.59520       -1.20860
C         -5.85370       -3.18830        0.02520
C         -5.47910       -4.65610        0.12800
C         -4.56560       -1.53770       -3.74270
C         -4.33850       -0.55870       -4.70950
C         -3.22860        0.33130       -4.63150
S         -2.76710        1.40100       -5.82790
N         -2.41740        0.18390       -3.50900
H         -1.58040        0.77550       -3.43490
C         -5.09630       -0.52640       -6.02210
O         -6.06990        0.18350       -6.17360
C         -4.63220       -1.46110       -7.09440
C         -5.35140       -1.49910       -8.29960
C         -4.97630       -2.37630       -9.31480
C         -3.87740       -3.22490       -9.13500
C         -3.15480       -3.19080       -7.93840
C         -3.52990       -2.31160       -6.92160
N         -5.50520       -2.53200       -3.93600
C         -5.19450       -3.92410       -3.69850
C         -6.82910       -2.28870       -4.47390
H          1.64260        1.20700       -0.60970
H          2.88500        1.07120        1.56280
H          1.88220       -0.16440        3.48260
H         -0.34720       -1.25020        3.23500
H         -1.56880       -1.11630        1.10080
H         -2.02810       -1.37750       -0.73590
H         -6.94390       -3.05280        0.00600
H         -5.43560       -2.61770        0.86660
H         -5.89180       -5.23310       -0.71350
H         -5.88570       -5.07650        1.06140
H         -4.38700       -4.77870        0.14380
H         -6.20210       -0.82440       -8.41040
H         -5.53800       -2.40090      -10.25170
H         -3.58190       -3.91250       -9.93140
H         -2.29280       -3.84780       -7.80070
H         -2.96130       -2.27580       -5.99130
H         -4.16570       -4.03590       -3.33380
H         -5.27890       -4.49080       -4.64480
H         -5.87880       -4.37740       -2.96200
H         -7.05950       -1.21910       -4.46180
H         -7.56890       -2.81300       -3.84230
H         -6.94120       -2.65830       -5.50920
