rmsd71.gzmat
 OpenBabel08211713383D

 55 57  0  0  1  0  0  0  0  0999 V2000
    0.0000    0.0000    0.0000 C   0  0  0  0  0  0  0  0  0  0  0  0
    1.3973    0.0000    0.0000 C   0  0  0  0  0  0  0  0  0  0  0  0
    2.0853    0.0000    1.2107 C   0  0  0  0  0  0  0  0  0  0  0  0
    1.3786    0.0072    2.4128 C   0  0  0  0  0  0  0  0  0  0  0  0
   -0.0162    0.0167    2.4082 C   0  0  0  0  0  0  0  0  0  0  0  0
   -0.7109    0.0155    1.2012 C   0  0  0  0  0  0  0  0  0  0  0  0
   -0.6752    0.0301   -1.3152 C   0  0  0  0  0  0  0  0  0  0  0  0
   -0.2550    0.6349   -2.2765 O   0  0  0  0  0  0  0  0  0  0  0  0
   -1.8562   -0.7337   -1.4097 N   0  0  0  0  0  0  0  0  0  0  0  0
   -2.6997   -0.8054   -2.5180 C   0  0  1  0  0  0  0  0  0  0  0  0
   -3.8919   -1.5592   -2.4455 C   0  0  1  0  0  0  0  0  0  0  0  0
   -4.4697   -1.8037   -1.1426 C   0  0  0  0  0  0  0  0  0  0  0  0
   -3.8655   -1.8310   -0.0819 O   0  0  0  0  0  0  0  0  0  0  0  0
   -5.8126   -1.9631   -1.1894 O   0  0  0  0  0  0  0  0  0  0  0  0
   -6.5106   -1.9808    0.0617 C   0  0  0  0  0  0  0  0  0  0  0  0
   -6.6513   -0.5590    0.5764 C   0  0  0  0  0  0  0  0  0  0  0  0
   -4.5852   -1.8678   -3.6780 C   0  0  1  0  0  0  0  0  0  0  0  0
   -4.3459   -0.9995   -4.7678 C   0  0  2  0  0  0  0  0  0  0  0  0
   -3.2610   -0.1038   -4.7647 C   0  0  0  0  0  0  0  0  0  0  0  0
   -2.8628    0.9824   -5.9512 S   0  0  0  0  0  0  0  0  0  0  0  0
   -2.3748   -0.1349   -3.6588 N   0  0  0  0  0  0  0  0  0  0  0  0
   -1.4992    0.4287   -3.7027 H   0  0  0  0  0  0  0  0  0  0  0  0
   -5.1950   -0.9417   -5.9771 C   0  0  0  0  0  0  0  0  0  0  0  0
   -6.3522   -0.5934   -5.9297 O   0  0  0  0  0  0  0  0  0  0  0  0
   -4.5770   -1.3537   -7.2657 C   0  0  0  0  0  0  0  0  0  0  0  0
   -5.0336   -0.7681   -8.4465 C   0  0  0  0  0  0  0  0  0  0  0  0
   -4.4656   -1.1370   -9.6647 C   0  0  0  0  0  0  0  0  0  0  0  0
   -3.4514   -2.0923   -9.6990 C   0  0  0  0  0  0  0  0  0  0  0  0
   -3.0028   -2.6832   -8.5174 C   0  0  0  0  0  0  0  0  0  0  0  0
   -3.5632   -2.3124   -7.2983 C   0  0  0  0  0  0  0  0  0  0  0  0
   -5.2834   -3.0199   -3.7965 N   0  0  0  0  0  0  0  0  0  0  0  0
   -5.2511   -4.0719   -2.7774 C   0  0  0  0  0  0  0  0  0  0  0  0
   -6.3175   -3.2173   -4.8152 C   0  0  0  0  0  0  0  0  0  0  0  0
    1.9436    0.0084   -0.9470 H   0  0  0  0  0  0  0  0  0  0  0  0
    3.1744    0.0015    1.2175 H   0  0  0  0  0  0  0  0  0  0  0  0
    1.9176    0.0106    3.3600 H   0  0  0  0  0  0  0  0  0  0  0  0
   -0.5633    0.0273    3.3501 H   0  0  0  0  0  0  0  0  0  0  0  0
   -1.8030    0.0365    1.2071 H   0  0  0  0  0  0  0  0  0  0  0  0
   -2.1897   -1.2555   -0.5674 H   0  0  0  0  0  0  0  0  0  0  0  0
   -5.9899   -2.6425    0.7758 H   0  0  0  0  0  0  0  0  0  0  0  0
   -7.4778   -2.4249   -0.2406 H   0  0  0  0  0  0  0  0  0  0  0  0
   -5.6833   -0.1583    0.9098 H   0  0  0  0  0  0  0  0  0  0  0  0
   -7.3432   -0.5046    1.4237 H   0  0  0  0  0  0  0  0  0  0  0  0
   -7.0277    0.1120   -0.2091 H   0  0  0  0  0  0  0  0  0  0  0  0
   -5.8253   -0.0167   -8.4057 H   0  0  0  0  0  0  0  0  0  0  0  0
   -4.8084   -0.6728  -10.5860 H   0  0  0  0  0  0  0  0  0  0  0  0
   -3.0035   -2.3746  -10.6494 H   0  0  0  0  0  0  0  0  0  0  0  0
   -2.2072   -3.4233   -8.5467 H   0  0  0  0  0  0  0  0  0  0  0  0
   -3.2038   -2.7595   -6.3721 H   0  0  0  0  0  0  0  0  0  0  0  0
   -4.3182   -4.0388   -2.1856 H   0  0  0  0  0  0  0  0  0  0  0  0
   -5.2751   -5.0614   -3.2722 H   0  0  0  0  0  0  0  0  0  0  0  0
   -6.1107   -4.0064   -2.0852 H   0  0  0  0  0  0  0  0  0  0  0  0
   -7.0590   -2.3891   -4.8047 H   0  0  0  0  0  0  0  0  0  0  0  0
   -6.8765   -4.1520   -4.6485 H   0  0  0  0  0  0  0  0  0  0  0  0
   -5.8655   -3.2794   -5.8246 H   0  0  0  0  0  0  0  0  0  0  0  0
  1  2  2  0  0  0  0
  1  6  1  0  0  0  0
  2  3  1  0  0  0  0
  3 35  1  0  0  0  0
  3  4  2  0  0  0  0
  4 36  1  0  0  0  0
  5  4  1  0  0  0  0
  5 37  1  0  0  0  0
  6 38  1  0  0  0  0
  6  5  2  0  0  0  0
  7  1  1  0  0  0  0
  8  7  2  0  0  0  0
  9  7  1  0  0  0  0
  9 39  1  0  0  0  0
 10 11  1  0  0  0  0
 10  9  1  1  0  0  0
 11 12  1  1  0  0  0
 12 13  2  0  0  0  0
 14 12  1  0  0  0  0
 14 15  1  0  0  0  0
 15 16  1  0  0  0  0
 15 40  1  0  0  0  0
 16 42  1  0  0  0  0
 16 43  1  0  0  0  0
 17 31  1  6  0  0  0
 17 11  1  0  0  0  0
 18 23  1  1  0  0  0
 18 19  1  0  0  0  0
 18 17  1  0  0  0  0
 19 21  1  0  0  0  0
 20 19  2  0  0  0  0
 21 10  1  0  0  0  0
 22 21  1  0  0  0  0
 23 24  2  0  0  0  0
 25 23  1  0  0  0  0
 26 45  1  0  0  0  0
 26 25  2  0  0  0  0
 27 26  1  0  0  0  0
 28 27  2  0  0  0  0
 28 29  1  0  0  0  0
 29 30  2  0  0  0  0
 30 25  1  0  0  0  0
 30 49  1  0  0  0  0
 31 32  1  0  0  0  0
 32 50  1  0  0  0  0
 32 52  1  0  0  0  0
 33 53  1  0  0  0  0
 33 54  1  0  0  0  0
 33 31  1  0  0  0  0
 34  2  1  0  0  0  0
 41 15  1  0  0  0  0
 44 16  1  0  0  0  0
 46 27  1  0  0  0  0
 47 28  1  0  0  0  0
 48 29  1  0  0  0  0
 51 32  1  0  0  0  0
 55 33  1  0  0  0  0
M  RAD  4  10   2  11   2  17   2  18   2
M  END
$$$$
