
     RDKit          3D

 39 40  0  0  0  0  0  0  0  0999 V2000
   -0.3878    0.4843   -0.1742 O   0  0  0  0  0  0  0  0  0  0  0  0
    1.1810    0.0874    0.0733 S   0  0  0  0  0  0  0  0  0  0  0  0
    1.3796   -0.0122    1.5103 O   0  0  0  0  0  0  0  0  0  0  0  0
    1.4659   -0.9817   -0.8568 O   0  0  0  0  0  0  0  0  0  0  0  0
    2.0283    1.4330   -0.4836 N   0  0  0  0  0  0  0  0  0  0  0  0
    1.6714    2.7058    0.0485 C   0  0  0  0  0  0  0  0  0  0  0  0
    1.0287    3.6606   -0.7506 C   0  0  0  0  0  0  0  0  0  0  0  0
    0.6345    4.8763   -0.1967 C   0  0  0  0  0  0  0  0  0  0  0  0
    0.8627    5.1518    1.1538 C   0  0  0  0  0  0  0  0  0  0  0  0
    1.5174    4.1990    1.9462 C   0  0  0  0  0  0  0  0  0  0  0  0
    1.9250    2.9822    1.3963 C   0  0  0  0  0  0  0  0  0  0  0  0
    1.8156    4.5246    3.3878 C   0  0  0  0  0  0  0  0  0  0  0  0
    0.7737    5.3360    4.0295 N   0  0  0  0  0  0  0  0  0  0  0  0
   -0.2107    6.0601    3.2062 C   0  0  1  0  0  0  0  0  0  0  0  0
   -0.4428    6.9821    3.7591 H   0  0  0  0  0  0  0  0  0  0  0  0
    0.3795    6.3998    1.8381 C   0  0  0  0  0  0  0  0  0  0  0  0
   -1.5322    5.2627    3.0601 C   0  0  0  0  0  0  0  0  0  0  0  0
   -1.8958    4.7983    1.9890 O   0  0  0  0  0  0  0  0  0  0  0  0
   -2.2231    5.1539    4.2201 N   0  0  0  0  0  0  0  0  0  0  0  0
   -3.4619    4.4168    4.3256 C   0  0  0  0  0  0  0  0  0  0  0  0
    0.7316    5.5137    5.3847 C   0  0  0  0  0  0  0  0  0  0  0  0
   -0.1725    6.1525    5.9219 O   0  0  0  0  0  0  0  0  0  0  0  0
    1.8390    4.8877    6.2079 C   0  0  0  0  0  0  0  0  0  0  0  0
   -0.6974    1.0141    0.5818 H   0  0  0  0  0  0  0  0  0  0  0  0
    2.0604    1.3894   -1.5013 H   0  0  0  0  0  0  0  0  0  0  0  0
    0.8080    3.4319   -1.7961 H   0  0  0  0  0  0  0  0  0  0  0  0
    0.1022    5.6051   -0.8119 H   0  0  0  0  0  0  0  0  0  0  0  0
    2.4192    2.2264    2.0073 H   0  0  0  0  0  0  0  0  0  0  0  0
    1.9507    3.5877    3.9457 H   0  0  0  0  0  0  0  0  0  0  0  0
    2.7831    5.0622    3.4359 H   0  0  0  0  0  0  0  0  0  0  0  0
    1.2127    7.1096    1.9870 H   0  0  0  0  0  0  0  0  0  0  0  0
   -0.3820    6.9052    1.2301 H   0  0  0  0  0  0  0  0  0  0  0  0
   -1.8039    5.5826    5.0475 H   0  0  0  0  0  0  0  0  0  0  0  0
   -3.7252    4.0453    3.3267 H   0  0  0  0  0  0  0  0  0  0  0  0
   -4.2796    5.0591    4.6928 H   0  0  0  0  0  0  0  0  0  0  0  0
   -3.3647    3.5575    5.0112 H   0  0  0  0  0  0  0  0  0  0  0  0
    1.7735    3.7881    6.1811 H   0  0  0  0  0  0  0  0  0  0  0  0
    1.7168    5.2240    7.2438 H   0  0  0  0  0  0  0  0  0  0  0  0
    2.8383    5.1680    5.8424 H   0  0  0  0  0  0  0  0  0  0  0  0
  2  1  1  0
  1 24  1  0
  2  3  2  0
  2  4  2  0
  2  5  1  0
  5  6  1  0
  5 25  1  0
  6  7  2  0
  6 11  1  0
  7  8  1  0
  7 26  1  0
  8  9  2  0
  8 27  1  0
  9 10  1  0
  9 16  1  0
 10 11  2  0
 10 12  1  0
 11 28  1  0
 12 13  1  0
 12 29  1  0
 12 30  1  0
 13 14  1  0
 13 21  1  0
 14 15  1  1
 14 16  1  0
 14 17  1  0
 16 31  1  0
 16 32  1  0
 17 18  2  0
 17 19  1  0
 19 20  1  0
 19 33  1  0
 20 34  1  0
 20 35  1  0
 20 36  1  0
 21 22  2  0
 21 23  1  0
 23 37  1  0
 23 38  1  0
 23 39  1  0
M  END

