39
rmsd81.gzmat
O          0.00000        0.00000        0.00000
S          1.64870        0.00000        0.00000
O          2.01820        0.00000        1.38470
O          2.13030       -0.96560       -0.93840
N          1.91800        1.53880       -0.73170
C          1.42860        2.74180       -0.18220
C          0.99900        3.75900       -1.05300
C          0.50340        4.95040       -0.53570
C          0.42720        5.13330        0.84240
C          0.89010        4.13360        1.70540
C          1.40010        2.94290        1.20660
C          0.82090        4.37690        3.18440
N         -0.42070        5.06130        3.58720
C         -1.09360        5.93620        2.63470
H         -1.42170        6.87110        3.17890
C         -0.17570        6.34700        1.46380
C         -2.38060        5.29880        2.04950
O         -3.40420        5.95610        2.00990
N         -2.33650        4.00280        1.61460
C         -3.51610        3.39180        1.00010
C         -1.00600        4.68550        4.79600
O         -0.44390        3.85270        5.47800
C         -2.27650        5.35920        5.21320
H         -0.44160       -0.28080        0.81590
H          2.05370        1.54220       -1.74380
H          1.04270        3.61510       -2.12950
H          0.16140        5.73410       -1.21160
H          1.78720        2.18990        1.90060
H          0.91600        3.41760        3.76050
H          1.69000        5.00870        3.50160
H          0.62690        7.02180        1.83750
H         -0.75480        6.95000        0.73370
H         -1.48250        3.46920        1.57750
H         -4.40910        4.03750        1.12570
H         -3.72710        2.41740        1.47290
H         -3.36000        3.23820       -0.08170
H         -2.17480        6.45140        5.27090
H         -2.57870        5.00550        6.21380
H         -3.11140        5.13900        4.52830
