39

O         -0.28320        0.35540        0.00830
S          1.33390        0.15140        0.17000
O          1.62210        0.22260        1.58460
O          1.69190       -0.97880       -0.67330
N          1.98020        1.54970       -0.48460
C          1.64310        2.00370       -1.78520
C          1.28520        3.34540       -1.97180
C          1.00340        3.82310       -3.25220
C          1.03160        2.96350       -4.35190
C          1.38590        1.61730       -4.16090
C          1.70690        1.14010       -2.88940
C          1.40470        0.72120       -5.37030
N          1.98670        1.38810       -6.54600
C          1.90390        2.84210       -6.66900
H          1.67230        3.11400       -7.70780
C          0.78430        3.39770       -5.76990
C          3.20650        3.59830       -6.32730
O          3.25890        4.80800       -6.48020
N          4.22300        2.83820       -5.85190
C          5.47970        3.39990       -5.40850
C          2.42250        0.56320       -7.56740
O          2.36580       -0.65020       -7.46130
C          2.98430        1.23540       -8.80720
H         -0.57050       -0.16390       -0.76170
H          2.01560        2.26840        0.23530
H          1.23920        4.01860       -1.11210
H          0.75330        4.87720       -3.39390
H          2.01510        0.10430       -2.74660
H          1.97050       -0.20070       -5.18640
H          0.37240        0.39760       -5.60860
H         -0.18490        3.01570       -6.13550
H          0.77830        4.49070       -5.86540
H          4.03890        1.85120       -5.71910
H          5.47040        4.47090       -5.65000
H          6.33230        2.92270       -5.91790
H          5.61090        3.28300       -4.31960
H          2.19160        1.75640       -9.36770
H          3.40930        0.45210       -9.44540
H          3.75960        1.97520       -8.56040
