39
rmsd241.gzmat
O          0.00000        0.00000        0.00000
S          1.64780        0.00000        0.00000
O          2.12460        0.00000        1.34790
O          2.01970       -0.99510       -0.96330
N          1.92180        1.59420       -0.59380
C          1.45400        2.04750       -1.84450
C          1.44180        1.21120       -2.97130
C          0.96750        1.69830       -4.18410
C          0.52170        3.01330       -4.28790
C          0.57940        3.85950       -3.17510
C          1.03430        3.38600       -1.95210
C          0.13640        5.28350       -3.34050
N         -1.06270        5.40820       -4.18810
C         -1.32080        4.40070       -5.20980
H         -1.66470        4.92440       -6.15010
C         -0.06490        3.56820       -5.54140
C         -2.46130        3.42910       -4.80870
O         -3.31130        3.13670       -5.62890
N         -2.49390        2.95090       -3.52820
C         -3.53910        2.01490       -3.11390
C         -1.99500        6.38940       -3.85380
O         -1.75720        7.11800       -2.91190
C         -3.22240        6.52420       -4.70120
H         -0.44400       -0.74890       -0.42340
H          2.06460        2.32200        0.10950
H          1.81490        0.18460       -2.92020
H          0.94440        1.04350       -5.05560
H          1.06050        4.04390       -1.08640
H         -0.06270        5.77000       -2.35000
H          0.96240        5.87670       -3.81220
H          0.68270        4.20900       -6.06010
H         -0.33060        2.77310       -6.26920
H         -1.75180        3.12220       -2.86860
H         -4.28870        1.87410       -3.91940
H         -4.06330        2.40520       -2.22350
H         -3.10950        1.02780       -2.87360
H         -2.98180        6.77940       -5.74250
H         -3.86350        7.33170       -4.30770
H         -3.83240        5.60690       -4.71400
