39
rmsd162.gzmat
O          0.00000        0.00000        0.00000
S          1.64890        0.00000        0.00000
O          2.12570        0.00000        1.34800
O          2.01960       -0.99710       -0.96160
N          1.92170        1.59300       -0.59720
C          1.39420        2.04120       -1.82800
C          1.42470        1.22880       -2.97150
C          0.89370        1.70280       -4.16620
C          0.34530        2.98100       -4.23220
C          0.35340        3.80350       -3.10000
C          0.86990        3.34410       -1.89670
C         -0.22120        5.18350       -3.22540
N         -1.46290        5.19780       -4.01890
C         -1.63110        4.22030       -5.08820
H         -2.02770        4.75500       -6.00110
C         -0.30540        3.52190       -5.46030
C         -2.67320        3.12870       -4.73350
O         -3.52150        2.82580       -5.55190
N         -2.61980        2.54530       -3.49850
C         -3.58290        1.50400       -3.13840
C         -2.49010        6.04380       -3.60370
O         -2.29910        6.75480       -2.63750
C         -3.76260        6.06660       -4.39200
H         -0.44180       -0.77820       -0.36870
H          2.06440        2.32100        0.10650
H          1.87200        0.23120       -2.94330
H          0.90560        1.06610       -5.05110
H          0.85940        3.98320       -1.01650
H         -0.42190        5.63840       -2.22040
H          0.52420        5.85670       -3.72180
H          0.37250        4.24950       -5.96020
H         -0.50280        2.73250       -6.21530
H         -1.88890        2.74250       -2.83390
H         -4.09110        1.10390       -4.03930
H         -4.36050        1.91560       -2.46970
H         -3.07670        0.66850       -2.62900
H         -3.60470        6.40040       -5.42670
H         -4.47820        6.76720       -3.92820
H         -4.25790        5.08350       -4.43160
