39

O         -0.25260       -0.04630       -0.52590
S          1.35610       -0.06680       -0.18840
O          1.48880       -0.07580        1.25140
O          1.93480       -1.07890       -1.05790
N          1.87790        1.44940       -0.67630
C          1.49940        1.97420       -1.93930
C          1.69810        1.23240       -3.11150
C          1.24640        1.73920       -4.33130
C          0.64090        2.99460       -4.40540
C          0.48350        3.75330       -3.23270
C          0.89690        3.23820       -2.00520
C         -0.20240        5.08710       -3.36320
N         -1.40550        4.98500       -4.20650
C         -1.44920        3.97260       -5.25930
H         -1.94280        4.37980       -6.15190
C         -0.01580        3.54650       -5.64100
C         -2.22100        2.68670       -4.88420
O         -2.37740        1.80910       -5.71720
N         -2.64030        2.60850       -3.59650
C         -3.19620        1.40310       -3.02330
C         -2.38600        5.94110       -4.01900
O         -2.26450        6.80880       -3.17060
C         -3.61740        5.84550       -4.90140
H         -0.38530       -0.58720       -1.32320
H          1.79490        2.09290        0.10820
H          2.17890        0.25630       -3.05510
H          1.35850        1.13940       -5.23770
H          0.72580        3.80800       -1.08760
H         -0.50520        5.49570       -2.39120
H          0.49410        5.82640       -3.80340
H          0.52400        4.42520       -6.03360
H         -0.07690        2.79430       -6.43710
H         -2.39730        3.37880       -2.98620
H         -3.31850        0.67200       -3.83330
H         -4.17760        1.59170       -2.55930
H         -2.52160        0.98590       -2.25570
H         -3.36980        6.06120       -5.95290
H         -4.33850        6.59150       -4.54790
H         -4.07150        4.84420       -4.86430
