rmsd6.gzmat
 OpenBabel08211713433D

 39 40  0  0  1  0  0  0  0  0999 V2000
    0.0000    0.0000    0.0000 O   0  0  0  0  0  0  0  0  0  0  0  0
    1.6489    0.0000    0.0000 S   0  0  0  0  0  0  0  0  0  0  0  0
    2.1249    0.0000    1.3480 O   0  0  0  0  0  0  0  0  0  0  0  0
    2.0196   -0.9953   -0.9639 O   0  0  0  0  0  0  0  0  0  0  0  0
    1.9173    1.5943   -0.5974 N   0  0  0  0  0  0  0  0  0  0  0  0
    1.4592    2.0191   -1.8642 C   0  0  0  0  0  0  0  0  0  0  0  0
    1.5989    1.2054   -2.9986 C   0  0  0  0  0  0  0  0  0  0  0  0
    1.1428    1.6596   -4.2313 C   0  0  0  0  0  0  0  0  0  0  0  0
    0.5581    2.9184   -4.3430 C   0  0  0  0  0  0  0  0  0  0  0  0
    0.4540    3.7426   -3.2170 C   0  0  0  0  0  0  0  0  0  0  0  0
    0.8957    3.3026   -1.9770 C   0  0  0  0  0  0  0  0  0  0  0  0
   -0.1568    5.1018   -3.3907 C   0  0  0  0  0  0  0  0  0  0  0  0
   -1.3329    5.0755   -4.2783 N   0  0  0  0  0  0  0  0  0  0  0  0
   -1.3903    4.0855   -5.3483 C   0  0  1  0  0  0  0  0  0  0  0  0
   -1.7389    4.6016   -6.2911 H   0  0  0  0  0  0  0  0  0  0  0  0
   -0.0185    3.4321   -5.6191 C   0  0  0  0  0  0  0  0  0  0  0  0
   -2.4156    2.9585   -5.0606 C   0  0  0  0  0  0  0  0  0  0  0  0
   -3.1810    2.6094   -5.9399 O   0  0  0  0  0  0  0  0  0  0  0  0
   -2.4489    2.4079   -3.8095 N   0  0  0  0  0  0  0  0  0  0  0  0
   -3.3901    1.3304   -3.5023 C   0  0  0  0  0  0  0  0  0  0  0  0
   -2.4296    5.8624   -3.9274 C   0  0  0  0  0  0  0  0  0  0  0  0
   -2.3460    6.5662   -2.9409 O   0  0  0  0  0  0  0  0  0  0  0  0
   -3.6372    5.8412   -4.8119 C   0  0  0  0  0  0  0  0  0  0  0  0
   -0.4428   -0.7482   -0.4266 H   0  0  0  0  0  0  0  0  0  0  0  0
    1.9957    2.3326    0.1060 H   0  0  0  0  0  0  0  0  0  0  0  0
    2.0719    0.2211   -2.9321 H   0  0  0  0  0  0  0  0  0  0  0  0
    1.2414    1.0228   -5.1109 H   0  0  0  0  0  0  0  0  0  0  0  0
    0.7971    3.9415   -1.1021 H   0  0  0  0  0  0  0  0  0  0  0  0
   -0.4487    5.5507   -2.4053 H   0  0  0  0  0  0  0  0  0  0  0  0
    0.6006    5.7999   -3.8322 H   0  0  0  0  0  0  0  0  0  0  0  0
    0.6692    4.1798   -6.0740 H   0  0  0  0  0  0  0  0  0  0  0  0
   -0.1337    2.6326   -6.3808 H   0  0  0  0  0  0  0  0  0  0  0  0
   -1.7700    2.6349   -3.0996 H   0  0  0  0  0  0  0  0  0  0  0  0
   -4.0880    1.1592   -4.3471 H   0  0  0  0  0  0  0  0  0  0  0  0
   -3.9894    1.5942   -2.6132 H   0  0  0  0  0  0  0  0  0  0  0  0
   -2.8556    0.3850   -3.3087 H   0  0  0  0  0  0  0  0  0  0  0  0
   -3.4119    6.1868   -5.8304 H   0  0  0  0  0  0  0  0  0  0  0  0
   -4.4129    6.5108   -4.4022 H   0  0  0  0  0  0  0  0  0  0  0  0
   -4.0905    4.8406   -4.8932 H   0  0  0  0  0  0  0  0  0  0  0  0
  1  2  1  0  0  0  0
  2  3  1  0  0  0  0
  4  2  1  0  0  0  0
  5  2  1  0  0  0  0
  5 25  1  0  0  0  0
  6  5  1  0  0  0  0
  7 26  1  0  0  0  0
  7  6  2  0  0  0  0
  8  7  1  0  0  0  0
  9  8  2  0  0  0  0
  9 10  1  0  0  0  0
 10 11  2  0  0  0  0
 11  6  1  0  0  0  0
 11 28  1  0  0  0  0
 12 10  1  0  0  0  0
 12 29  1  0  0  0  0
 13 21  1  0  0  0  0
 13 12  1  0  0  0  0
 14 15  1  6  0  0  0
 14 17  1  0  0  0  0
 14 13  1  0  0  0  0
 16 14  1  0  0  0  0
 16  9  1  0  0  0  0
 17 19  1  0  0  0  0
 18 17  2  0  0  0  0
 19 20  1  0  0  0  0
 19 33  1  0  0  0  0
 20 36  1  0  0  0  0
 20 35  1  0  0  0  0
 21 22  2  0  0  0  0
 23 38  1  0  0  0  0
 23 21  1  0  0  0  0
 24  1  1  0  0  0  0
 27  8  1  0  0  0  0
 30 12  1  0  0  0  0
 31 16  1  0  0  0  0
 32 16  1  0  0  0  0
 34 20  1  0  0  0  0
 37 23  1  0  0  0  0
 39 23  1  0  0  0  0
M  RAD  2   3   2   4   2
M  END
$$$$
