39
rmsd71.gzmat
O          0.00000        0.00000        0.00000
S          1.64490        0.00000        0.00000
O          2.03400        0.00000        1.38160
O          2.10730       -0.96500       -0.94930
N          1.93940        1.54870       -0.70450
C          1.53250        2.74650       -0.06890
C          0.94430        3.76490       -0.83910
C          0.55660        4.95070       -0.22950
C          0.75300        5.13850        1.14030
C          1.35260        4.13200        1.89580
C          1.75320        2.93820        1.29940
C          1.61730        4.31060        3.36400
N          0.80540        5.34780        4.01750
C         -0.17410        6.11260        3.24310
H         -0.33980        7.10100        3.76830
C          0.32410        6.39580        1.81760
C         -1.52550        5.35390        3.18670
O         -1.91590        4.76500        2.20090
N         -2.27740        5.46370        4.32810
C         -3.56060        4.77360        4.44140
C          0.79850        5.47470        5.39650
O         -0.02000        6.21460        5.91900
C          1.82580        4.72940        6.19370
H         -0.44460        0.22470        0.83210
H          1.96920        1.58790       -1.72320
H          0.77660        3.62360       -1.90340
H          0.08010        5.73240       -0.82070
H          2.24540        2.17110        1.90280
H          1.45270        3.33420        3.88850
H          2.69850        4.57990        3.49500
H          1.17330        7.11330        1.85190
H         -0.48660        6.90030        1.24690
H         -1.88720        5.87270        5.17240
H         -3.89000        4.38570        3.45710
H         -4.33150        5.47500        4.80680
H         -3.49350        3.91980        5.13680
H          1.66320        3.64280        6.16660
H          1.76790        5.03600        7.25340
H          2.85010        4.93430        5.85480
