rmsd7.gzmat
 OpenBabel08211713433D

 39 40  0  0  1  0  0  0  0  0999 V2000
    0.0000    0.0000    0.0000 O   0  0  0  0  0  0  0  0  0  0  0  0
    1.6488    0.0000    0.0000 S   0  0  0  0  0  0  0  0  0  0  0  0
    2.1240    0.0000    1.3487 O   0  0  0  0  0  0  0  0  0  0  0  0
    2.0208   -0.9940   -0.9649 O   0  0  0  0  0  0  0  0  0  0  0  0
    1.9231    1.5944   -0.5936 N   0  0  0  0  0  0  0  0  0  0  0  0
    1.4973    2.0296   -1.8667 C   0  0  0  0  0  0  0  0  0  0  0  0
    1.6062    1.2061   -2.9974 C   0  0  0  0  0  0  0  0  0  0  0  0
    1.1825    1.6771   -4.2356 C   0  0  0  0  0  0  0  0  0  0  0  0
    0.6631    2.9631   -4.3579 C   0  0  0  0  0  0  0  0  0  0  0  0
    0.5895    3.7947   -3.2346 C   0  0  0  0  0  0  0  0  0  0  0  0
    0.9974    3.3382   -1.9894 C   0  0  0  0  0  0  0  0  0  0  0  0
    0.0480    5.1815   -3.4202 C   0  0  0  0  0  0  0  0  0  0  0  0
   -1.1266    5.2067   -4.3101 N   0  0  0  0  0  0  0  0  0  0  0  0
   -1.2170    4.2223   -5.3837 C   0  0  1  0  0  0  0  0  0  0  0  0
   -1.5304    4.7570   -6.3281 H   0  0  0  0  0  0  0  0  0  0  0  0
    0.1252    3.5035   -5.6400 C   0  0  0  0  0  0  0  0  0  0  0  0
   -2.2940    3.1402   -5.1122 C   0  0  0  0  0  0  0  0  0  0  0  0
   -3.0610    2.8242   -6.0024 O   0  0  0  0  0  0  0  0  0  0  0  0
   -2.3659    2.5903   -3.8620 N   0  0  0  0  0  0  0  0  0  0  0  0
   -3.3486    1.5459   -3.5705 C   0  0  0  0  0  0  0  0  0  0  0  0
   -2.2057    6.0107   -3.9406 C   0  0  0  0  0  0  0  0  0  0  0  0
   -2.1119    6.6800   -2.9315 O   0  0  0  0  0  0  0  0  0  0  0  0
   -3.4040    6.0540   -4.8372 C   0  0  0  0  0  0  0  0  0  0  0  0
   -0.4436   -0.7424   -0.4350 H   0  0  0  0  0  0  0  0  0  0  0  0
    2.0068    2.3301    0.1120 H   0  0  0  0  0  0  0  0  0  0  0  0
    2.0323    0.2010   -2.9261 H   0  0  0  0  0  0  0  0  0  0  0  0
    1.2563    1.0312   -5.1108 H   0  0  0  0  0  0  0  0  0  0  0  0
    0.9228    3.9852   -1.1183 H   0  0  0  0  0  0  0  0  0  0  0  0
   -0.2204    5.6530   -2.4390 H   0  0  0  0  0  0  0  0  0  0  0  0
    0.8400    5.8360   -3.8677 H   0  0  0  0  0  0  0  0  0  0  0  0
    0.8526    4.2165   -6.0886 H   0  0  0  0  0  0  0  0  0  0  0  0
   -0.0205    2.7094   -6.4021 H   0  0  0  0  0  0  0  0  0  0  0  0
   -1.6856    2.7877   -3.1448 H   0  0  0  0  0  0  0  0  0  0  0  0
   -4.0390    1.4008   -4.4269 H   0  0  0  0  0  0  0  0  0  0  0  0
   -3.9512    1.8296   -2.6896 H   0  0  0  0  0  0  0  0  0  0  0  0
   -2.8508    0.5821   -3.3698 H   0  0  0  0  0  0  0  0  0  0  0  0
   -3.1530    6.3974   -5.8502 H   0  0  0  0  0  0  0  0  0  0  0  0
   -4.1526    6.7545   -4.4290 H   0  0  0  0  0  0  0  0  0  0  0  0
   -3.9018    5.0758   -4.9309 H   0  0  0  0  0  0  0  0  0  0  0  0
  1  2  1  0  0  0  0
  2  3  1  0  0  0  0
  4  2  1  0  0  0  0
  5  2  1  0  0  0  0
  5 25  1  0  0  0  0
  6  5  1  0  0  0  0
  7 26  1  0  0  0  0
  7  6  2  0  0  0  0
  8  7  1  0  0  0  0
  9  8  2  0  0  0  0
  9 10  1  0  0  0  0
 10 11  2  0  0  0  0
 11  6  1  0  0  0  0
 11 28  1  0  0  0  0
 12 10  1  0  0  0  0
 12 29  1  0  0  0  0
 13 21  1  0  0  0  0
 13 12  1  0  0  0  0
 14 15  1  6  0  0  0
 14 17  1  0  0  0  0
 14 13  1  0  0  0  0
 16 14  1  0  0  0  0
 16  9  1  0  0  0  0
 17 19  1  0  0  0  0
 18 17  2  0  0  0  0
 19 20  1  0  0  0  0
 19 33  1  0  0  0  0
 20 36  1  0  0  0  0
 20 35  1  0  0  0  0
 21 22  2  0  0  0  0
 23 38  1  0  0  0  0
 23 21  1  0  0  0  0
 24  1  1  0  0  0  0
 27  8  1  0  0  0  0
 30 12  1  0  0  0  0
 31 16  1  0  0  0  0
 32 16  1  0  0  0  0
 34 20  1  0  0  0  0
 37 23  1  0  0  0  0
 39 23  1  0  0  0  0
M  RAD  2   3   2   4   2
M  END
$$$$
