rmsd71.gzmat
 OpenBabel08211713433D

 39 40  0  0  1  0  0  0  0  0999 V2000
    0.0000    0.0000    0.0000 O   0  0  0  0  0  0  0  0  0  0  0  0
    1.6449    0.0000    0.0000 S   0  0  0  0  0  0  0  0  0  0  0  0
    2.0340    0.0000    1.3816 O   0  0  0  0  0  0  0  0  0  0  0  0
    2.1073   -0.9650   -0.9493 O   0  0  0  0  0  0  0  0  0  0  0  0
    1.9394    1.5487   -0.7045 N   0  0  0  0  0  0  0  0  0  0  0  0
    1.5325    2.7465   -0.0689 C   0  0  0  0  0  0  0  0  0  0  0  0
    0.9443    3.7649   -0.8391 C   0  0  0  0  0  0  0  0  0  0  0  0
    0.5566    4.9507   -0.2295 C   0  0  0  0  0  0  0  0  0  0  0  0
    0.7530    5.1385    1.1403 C   0  0  0  0  0  0  0  0  0  0  0  0
    1.3526    4.1320    1.8958 C   0  0  0  0  0  0  0  0  0  0  0  0
    1.7532    2.9382    1.2994 C   0  0  0  0  0  0  0  0  0  0  0  0
    1.6173    4.3106    3.3640 C   0  0  0  0  0  0  0  0  0  0  0  0
    0.8054    5.3478    4.0175 N   0  0  0  0  0  0  0  0  0  0  0  0
   -0.1741    6.1126    3.2431 C   0  0  1  0  0  0  0  0  0  0  0  0
   -0.3398    7.1010    3.7683 H   0  0  0  0  0  0  0  0  0  0  0  0
    0.3241    6.3958    1.8176 C   0  0  0  0  0  0  0  0  0  0  0  0
   -1.5255    5.3539    3.1867 C   0  0  0  0  0  0  0  0  0  0  0  0
   -1.9159    4.7650    2.2009 O   0  0  0  0  0  0  0  0  0  0  0  0
   -2.2774    5.4637    4.3281 N   0  0  0  0  0  0  0  0  0  0  0  0
   -3.5606    4.7736    4.4414 C   0  0  0  0  0  0  0  0  0  0  0  0
    0.7985    5.4747    5.3965 C   0  0  0  0  0  0  0  0  0  0  0  0
   -0.0200    6.2146    5.9190 O   0  0  0  0  0  0  0  0  0  0  0  0
    1.8258    4.7294    6.1937 C   0  0  0  0  0  0  0  0  0  0  0  0
   -0.4446    0.2247    0.8321 H   0  0  0  0  0  0  0  0  0  0  0  0
    1.9692    1.5879   -1.7232 H   0  0  0  0  0  0  0  0  0  0  0  0
    0.7766    3.6236   -1.9034 H   0  0  0  0  0  0  0  0  0  0  0  0
    0.0801    5.7324   -0.8207 H   0  0  0  0  0  0  0  0  0  0  0  0
    2.2454    2.1711    1.9028 H   0  0  0  0  0  0  0  0  0  0  0  0
    1.4527    3.3342    3.8885 H   0  0  0  0  0  0  0  0  0  0  0  0
    2.6985    4.5799    3.4950 H   0  0  0  0  0  0  0  0  0  0  0  0
    1.1733    7.1133    1.8519 H   0  0  0  0  0  0  0  0  0  0  0  0
   -0.4866    6.9003    1.2469 H   0  0  0  0  0  0  0  0  0  0  0  0
   -1.8872    5.8727    5.1724 H   0  0  0  0  0  0  0  0  0  0  0  0
   -3.8900    4.3857    3.4571 H   0  0  0  0  0  0  0  0  0  0  0  0
   -4.3315    5.4750    4.8068 H   0  0  0  0  0  0  0  0  0  0  0  0
   -3.4935    3.9198    5.1368 H   0  0  0  0  0  0  0  0  0  0  0  0
    1.6632    3.6428    6.1666 H   0  0  0  0  0  0  0  0  0  0  0  0
    1.7679    5.0360    7.2534 H   0  0  0  0  0  0  0  0  0  0  0  0
    2.8501    4.9343    5.8548 H   0  0  0  0  0  0  0  0  0  0  0  0
  1  2  1  0  0  0  0
  1 24  1  0  0  0  0
  2  3  1  0  0  0  0
  4  2  1  0  0  0  0
  5  6  1  0  0  0  0
  5  2  1  0  0  0  0
  6 11  2  0  0  0  0
  7  8  2  0  0  0  0
  7  6  1  0  0  0  0
  8  9  1  0  0  0  0
  9 16  1  0  0  0  0
  9 10  2  0  0  0  0
 10 12  1  0  0  0  0
 11 10  1  0  0  0  0
 11 28  1  0  0  0  0
 12 30  1  0  0  0  0
 12 29  1  0  0  0  0
 12 13  1  0  0  0  0
 13 21  1  0  0  0  0
 14 15  1  1  0  0  0
 14 13  1  0  0  0  0
 16 31  1  0  0  0  0
 16 14  1  0  0  0  0
 17 14  1  0  0  0  0
 17 19  1  0  0  0  0
 18 17  2  0  0  0  0
 19 20  1  0  0  0  0
 19 33  1  0  0  0  0
 20 35  1  0  0  0  0
 20 36  1  0  0  0  0
 21 22  2  0  0  0  0
 21 23  1  0  0  0  0
 23 38  1  0  0  0  0
 25  5  1  0  0  0  0
 26  7  1  0  0  0  0
 27  8  1  0  0  0  0
 32 16  1  0  0  0  0
 34 20  1  0  0  0  0
 37 23  1  0  0  0  0
 39 23  1  0  0  0  0
M  RAD  2   3   2   4   2
M  END
$$$$
