39

O         -0.35810        0.35240       -0.41820
S          1.25530        0.10100       -0.21200
O          1.44250       -0.09290        1.21850
O          1.68340       -0.85660       -1.20780
N          1.92660        1.55740       -0.67660
C          1.47080        2.79030       -0.13910
C          1.05240        3.80860       -1.00370
C          0.57900        5.01480       -0.48500
C          0.51040        5.21130        0.89470
C          0.93960        4.18880        1.75930
C          1.42850        2.98710        1.24900
C          0.81700        4.44770        3.23780
N         -0.49500        5.03300        3.56540
C         -1.16770        5.86720        2.57260
H         -1.64910        6.72430        3.06230
C         -0.14250        6.39820        1.54820
C         -2.27460        5.14710        1.76980
O         -2.96380        5.77760        0.98540
N         -2.36350        3.80730        1.96760
C         -3.17990        2.94680        1.14140
C         -0.96480        4.84580        4.85220
O         -0.32950        4.19890        5.66740
C         -2.30890        5.46590        5.18950
H         -0.77040        0.25620        0.45670
H          2.08960        1.54470       -1.68120
H          1.07050        3.64420       -2.08390
H          0.22380        5.79410       -1.16330
H          1.75710        2.19010        1.91620
H          0.93590        3.53240        3.83010
H          1.61960        5.13480        3.56780
H          0.59380        7.02810        2.07610
H         -0.67160        7.02380        0.81870
H         -1.69300        3.39410        2.60390
H         -3.80970        3.58640        0.50920
H         -3.82680        2.29740        1.75270
H         -2.55410        2.31500        0.48640
H         -2.24980        6.56600        5.18850
H         -2.58810        5.12800        6.19410
H         -3.08790        5.17340        4.47010
