39
rmsd250.gzmat
O          0.00000        0.00000        0.00000
S          1.64800        0.00000        0.00000
O          2.12480        0.00000        1.34790
O          2.01920       -0.99480       -0.96400
N          1.92140        1.59490       -0.59220
C          1.46120        2.04560       -1.84700
C          1.49310        1.21770       -2.97950
C          1.03640        1.70370       -4.19960
C          0.56140        3.00880       -4.30430
C          0.56600        3.84440       -3.18200
C          1.00610        3.37230       -1.95280
C          0.08540        5.25650       -3.34230
N         -1.09150        5.35660       -4.22330
C         -1.28070        4.36890       -5.27830
H         -1.58980        4.90790       -6.22280
C          0.00280        3.56420       -5.57060
C         -2.42800        3.37840       -4.94750
O         -3.28480        3.15990       -5.78400
N         -2.45620        2.79550       -3.71170
C         -3.52230        1.85700       -3.35940
C         -2.04350        6.33020       -3.92570
O         -1.84870        7.05650       -2.97190
C         -3.23890        6.46030       -4.81820
H         -0.44230       -0.74800       -0.42720
H          2.05030        2.32350        0.11340
H          1.88750        0.19900       -2.92490
H          1.05140        1.05550       -5.07620
H          0.99270        4.02200       -1.08060
H         -0.16050        5.72160       -2.35150
H          0.90740        5.88180       -3.77820
H          0.75470        4.22540       -6.05770
H         -0.22020        2.77130       -6.31480
H         -1.72170        2.92440       -3.03420
H         -4.24540        1.74550       -4.19340
H         -4.07480        2.22350       -2.47600
H         -3.10680        0.86020       -3.13450
H         -2.96200        6.77420       -5.83400
H         -3.92520        7.22540       -4.41620
H         -3.81670        5.52590       -4.90430
