
     RDKit          3D

 47 49  0  0  0  0  0  0  0  0999 V2000
   -0.1296   -0.2955    0.0914 Cl  0  0  0  0  0  0  0  0  0  0  0  0
    1.5771    0.0995    0.0872 C   0  0  0  0  0  0  0  0  0  0  0  0
    2.1681    0.5878    1.2557 C   0  0  0  0  0  0  0  0  0  0  0  0
    3.5263    0.8985    1.2104 C   0  0  0  0  0  0  0  0  0  0  0  0
    4.2778    0.7256    0.0467 C   0  0  0  0  0  0  0  0  0  0  0  0
    3.6764    0.2418   -1.1354 C   0  0  0  0  0  0  0  0  0  0  0  0
    4.3924    0.0993   -2.3300 N   0  0  0  0  0  0  0  0  0  0  0  0
    4.1455   -1.0776   -3.1628 C   0  0  0  0  0  0  0  0  0  0  0  0
    4.6264   -0.8376   -4.5934 C   0  0  0  0  0  0  0  0  0  0  0  0
    6.0261   -0.4314   -4.6655 N   0  0  0  0  0  0  0  0  0  0  0  0
    7.0014   -1.5048   -4.4677 C   0  0  0  0  0  0  0  0  0  0  0  0
    8.2736   -1.1908   -5.2668 C   0  0  2  0  0  0  0  0  0  0  0  0
    8.8418   -0.3908   -4.7428 H   0  0  0  0  0  0  0  0  0  0  0  0
    7.9087   -0.7656   -6.5599 O   0  0  0  0  0  0  0  0  0  0  0  0
    9.2107   -2.3946   -5.3634 C   0  0  0  0  0  0  0  0  0  0  0  0
    8.6087   -3.5509   -5.9845 N   0  0  0  0  0  0  0  0  0  0  0  0
    8.1706   -4.6266   -5.2570 C   0  0  0  0  0  0  0  0  0  0  0  0
    8.1603   -4.6968   -4.0414 O   0  0  0  0  0  0  0  0  0  0  0  0
    7.7300   -5.6948   -6.2570 C   0  0  0  0  0  0  0  0  0  0  0  0
    7.5658   -4.9228   -7.5721 C   0  0  0  0  0  0  0  0  0  0  0  0
    8.5414   -3.7409   -7.4269 C   0  0  0  0  0  0  0  0  0  0  0  0
    6.2330    0.7473   -3.8269 C   0  0  0  0  0  0  0  0  0  0  0  0
    5.7731    0.5569   -2.3772 C   0  0  0  0  0  0  0  0  0  0  0  0
    2.2997   -0.0729   -1.0890 C   0  0  0  0  0  0  0  0  0  0  0  0
    1.5782    0.7132    2.1634 H   0  0  0  0  0  0  0  0  0  0  0  0
    4.0207    1.2726    2.1105 H   0  0  0  0  0  0  0  0  0  0  0  0
    5.3410    0.9562    0.0726 H   0  0  0  0  0  0  0  0  0  0  0  0
    3.0736   -1.3057   -3.1829 H   0  0  0  0  0  0  0  0  0  0  0  0
    4.6562   -1.9672   -2.7364 H   0  0  0  0  0  0  0  0  0  0  0  0
    4.4816   -1.7481   -5.1945 H   0  0  0  0  0  0  0  0  0  0  0  0
    4.0130   -0.0369   -5.0415 H   0  0  0  0  0  0  0  0  0  0  0  0
    6.5650   -2.4298   -4.8703 H   0  0  0  0  0  0  0  0  0  0  0  0
    7.2528   -1.7081   -3.4104 H   0  0  0  0  0  0  0  0  0  0  0  0
    7.0430   -0.3326   -6.4191 H   0  0  0  0  0  0  0  0  0  0  0  0
   10.1052   -2.0999   -5.9368 H   0  0  0  0  0  0  0  0  0  0  0  0
    9.5246   -2.6896   -4.3505 H   0  0  0  0  0  0  0  0  0  0  0  0
    8.5326   -6.4509   -6.3139 H   0  0  0  0  0  0  0  0  0  0  0  0
    6.8250   -6.2065   -5.9023 H   0  0  0  0  0  0  0  0  0  0  0  0
    7.7668   -5.5250   -8.4692 H   0  0  0  0  0  0  0  0  0  0  0  0
    6.5366   -4.5378   -7.6520 H   0  0  0  0  0  0  0  0  0  0  0  0
    9.5432   -3.9846   -7.8339 H   0  0  0  0  0  0  0  0  0  0  0  0
    8.1910   -2.8215   -7.9140 H   0  0  0  0  0  0  0  0  0  0  0  0
    7.2966    1.0283   -3.8404 H   0  0  0  0  0  0  0  0  0  0  0  0
    5.6658    1.5846   -4.2669 H   0  0  0  0  0  0  0  0  0  0  0  0
    6.4520   -0.1441   -1.8457 H   0  0  0  0  0  0  0  0  0  0  0  0
    5.8483    1.5266   -1.8658 H   0  0  0  0  0  0  0  0  0  0  0  0
    1.7743   -0.4279   -1.9735 H   0  0  0  0  0  0  0  0  0  0  0  0
  1  2  1  0
  2  3  2  0
  2 24  1  0
  3  4  1  0
  3 25  1  0
  4  5  2  0
  4 26  1  0
  5  6  1  0
  5 27  1  0
  6  7  1  0
  6 24  2  0
  7  8  1  0
  7 23  1  0
  8  9  1  0
  8 28  1  0
  8 29  1  0
  9 10  1  0
  9 30  1  0
  9 31  1  0
 10 11  1  0
 10 22  1  0
 11 12  1  0
 11 32  1  0
 11 33  1  0
 12 13  1  1
 12 14  1  0
 12 15  1  0
 14 34  1  0
 15 16  1  0
 15 35  1  0
 15 36  1  0
 16 17  1  0
 16 21  1  0
 17 18  2  0
 17 19  1  0
 19 20  1  0
 19 37  1  0
 19 38  1  0
 20 21  1  0
 20 39  1  0
 20 40  1  0
 21 41  1  0
 21 42  1  0
 22 23  1  0
 22 43  1  0
 22 44  1  0
 23 45  1  0
 23 46  1  0
 24 47  1  0
M  END

