47
rmsd130.gzmat
Cl         0.00000        0.00000        0.00000
C          1.71550        0.00000        0.00000
C          2.37540        0.00000        1.21740
C          3.77260        0.00190        1.19490
C          4.46370        0.00030       -0.00790
C          3.76840       -0.00280       -1.23820
N          4.51380       -0.13010       -2.42660
C          5.60860        0.84870       -2.60900
C          6.57420        0.30460       -3.69060
N          5.91530        0.02720       -4.98090
C          5.56650        1.25520       -5.72970
C          5.84750        0.96250       -7.21950
H          5.33890        0.02600       -7.54630
O          7.23680        0.77440       -7.41660
C          5.45160        2.12950       -8.15350
N          5.87760        3.44540       -7.70660
C          5.18380        4.15970       -6.74080
O          4.05350        3.89630       -6.39770
C          6.04460        5.30490       -6.24510
C          7.43650        5.06720       -6.85520
C          7.30640        3.80620       -7.75020
C          4.75090       -0.85310       -4.76350
C          3.76390       -0.33970       -3.68180
C          2.36220        0.00750       -1.22610
H          1.83560       -0.00210        2.16060
H          4.32430       -0.00150        2.13600
H          5.55090       -0.03120       -0.00370
H          6.15970        0.98780       -1.65570
H          5.21540        1.84620       -2.90550
H          7.41370        1.01270       -3.84420
H          7.02270       -0.65510       -3.33940
H          6.19840        2.10640       -5.39900
H          4.51390        1.58630       -5.59390
H          7.57200        0.15470       -6.72920
H          5.89150        1.93880       -9.16270
H          4.33950        2.14380       -8.26960
H          5.60750        6.27090       -6.55680
H          6.06260        5.32270       -5.14170
H          7.76560        5.93610       -7.44750
H          8.19850        4.91740       -6.07430
H          7.59920        4.01180       -8.79980
H          7.94320        2.97000       -7.38560
H          4.21220       -0.99880       -5.72260
H          5.14650       -1.85020       -4.45910
H          3.25220        0.58480       -4.02770
H          2.98290       -1.11510       -3.51640
H          1.78900        0.03390       -2.14880
