47

Cl         0.03860       -1.04000        0.15460
C          1.73420       -0.60050        0.13890
C          2.38640       -0.34830        1.34400
C          3.73710        0.00990        1.28730
C          4.41300        0.10560        0.07510
C          3.75040       -0.15170       -1.14700
N          4.44170       -0.08820       -2.36350
C          5.37220        1.01960       -2.58080
C          6.35250        0.68620       -3.70490
N          5.68890        0.31220       -4.94950
C          5.11780        1.42320       -5.71310
C          5.15050        1.08110       -7.20860
H          4.35940        0.32830       -7.42210
O          6.42010        0.56350       -7.53370
C          4.84500        2.28650       -8.09730
N          5.74170        3.40340       -7.91310
C          5.42300        4.46630       -7.10860
O          4.37700        4.60190       -6.49970
C          6.63300        5.39950       -7.09310
C          7.47980        4.93330       -8.28380
C          7.09820        3.45010       -8.44270
C          4.76850       -0.79420       -4.69580
C          3.75900       -0.50800       -3.57840
C          2.38490       -0.49940       -1.09220
H          1.85340       -0.43240        2.29080
H          4.27850        0.20630        2.21600
H          5.47390        0.35490        0.07860
H          5.93650        1.22080       -1.66280
H          4.81610        1.94900       -2.82770
H          7.01510        1.54520       -3.89120
H          6.98200       -0.16140       -3.38310
H          5.75620        2.30220       -5.54550
H          4.09630        1.71500       -5.40750
H          6.69750        0.11150       -6.71230
H          4.88710        1.96160       -9.15000
H          3.82820        2.64710       -7.88080
H          6.31090        6.44910       -7.13220
H          7.15270        5.25330       -6.13000
H          7.18820        5.48930       -9.18890
H          8.56060        5.07270       -8.14050
H          7.11620        3.10880       -9.49020
H          7.76130        2.77590       -7.87480
H          4.22970       -1.04650       -5.62110
H          5.36460       -1.67730       -4.41100
H          3.01900        0.25090       -3.91190
H          3.20110       -1.43300       -3.37600
H          1.80770       -0.68020       -1.99540
