47
rmsd172.gzmat
Cl         0.00000        0.00000        0.00000
C          1.71550        0.00000        0.00000
C          2.37720        0.00000        1.21660
C          3.77440        0.00560        1.19220
C          4.46390        0.00600       -0.01160
C          3.76630        0.00000       -1.23960
N          4.51760       -0.12560       -2.42740
C          5.54810        0.91590       -2.64080
C          6.52700        0.42160       -3.73500
N          5.86420        0.08400       -5.01060
C          5.40790        1.28380       -5.74840
C          5.38430        0.92740       -7.24910
H          4.80410       -0.00680       -7.43410
O          6.70050        0.69310       -7.71230
C          4.82100        2.06880       -8.12830
N          5.44950        3.36280       -7.92940
C          5.13720        4.19350       -6.86630
O          4.16260        4.04310       -6.16380
C          6.16760        5.30220       -6.77510
C          7.26100        4.93490       -7.79310
C          6.79660        3.61840       -8.46940
C          4.77140       -0.87510       -4.75100
C          3.76580       -0.40600       -3.66740
C          2.36120        0.00790       -1.22720
H          1.83990       -0.00550        2.16160
H          4.32810        0.00230        2.13180
H          5.55130       -0.02210       -0.01120
H          6.10500        1.09460       -1.69730
H          5.09220        1.88630       -2.93800
H          7.31490        1.18150       -3.91280
H          7.04410       -0.50160       -3.38130
H          6.12640        2.11680       -5.58420
H          4.41750        1.67100       -5.42450
H          7.17570        0.14150       -7.04840
H          4.93670        1.77970       -9.20040
H          3.72640        2.17770       -7.92490
H          5.69830        6.27770       -6.99650
H          6.55690        5.37830       -5.74520
H          7.39370        5.73320       -8.54080
H          8.23840        4.80090       -7.30430
H          6.73630        3.71970       -9.57190
H          7.48380        2.77210       -8.24770
H          4.23040       -1.09010       -5.69490
H          5.24600       -1.83080       -4.42590
H          3.19150        0.47600       -4.02450
H          3.03930       -1.22620       -3.47270
H          1.78800        0.03470       -2.15030
