rmsd138.gzmat
 OpenBabel08211713413D

 47 49  0  0  1  0  0  0  0  0999 V2000
    0.0000    0.0000    0.0000 Cl  0  0  0  0  0  0  0  0  0  0  0  0
    1.7174    0.0000    0.0000 C   0  0  0  0  0  0  0  0  0  0  0  0
    2.3761    0.0000    1.2173 C   0  0  0  0  0  0  0  0  0  0  0  0
    3.7735   -0.0004    1.1922 C   0  0  0  0  0  0  0  0  0  0  0  0
    4.4637   -0.0035   -0.0101 C   0  0  0  0  0  0  0  0  0  0  0  0
    3.7695   -0.0030   -1.2421 C   0  0  0  0  0  0  0  0  0  0  0  0
    4.5099   -0.1261   -2.4316 N   0  0  0  0  0  0  0  0  0  0  0  0
    5.6497    0.8090   -2.5784 C   0  0  0  0  0  0  0  0  0  0  0  0
    6.5711    0.3256   -3.7230 C   0  0  0  0  0  0  0  0  0  0  0  0
    5.8732    0.1370   -5.0104 N   0  0  0  0  0  0  0  0  0  0  0  0
    5.5070    1.4127   -5.6687 C   0  0  0  0  0  0  0  0  0  0  0  0
    6.4541    1.6285   -6.8752 C   0  0  2  0  0  0  0  0  0  0  0  0
    6.0281    2.3824   -7.5737 H   0  0  0  0  0  0  0  0  0  0  0  0
    6.5403    0.4663   -7.6614 O   0  0  0  0  0  0  0  0  0  0  0  0
    7.9003    2.0146   -6.4603 C   0  0  0  0  0  0  0  0  0  0  0  0
    8.0261    3.4302   -6.1621 N   0  0  0  0  0  0  0  0  0  0  0  0
    7.6697    4.0085   -4.9605 C   0  0  0  0  0  0  0  0  0  0  0  0
    7.4048    3.3794   -3.9596 O   0  0  0  0  0  0  0  0  0  0  0  0
    7.6980    5.5185   -5.0987 C   0  0  0  0  0  0  0  0  0  0  0  0
    8.0063    5.7964   -6.5795 C   0  0  0  0  0  0  0  0  0  0  0  0
    8.1925    4.4090   -7.2483 C   0  0  0  0  0  0  0  0  0  0  0  0
    4.7129   -0.7508   -4.8024 C   0  0  0  0  0  0  0  0  0  0  0  0
    3.7484   -0.2664   -3.6892 C   0  0  0  0  0  0  0  0  0  0  0  0
    2.3625    0.0079   -1.2266 C   0  0  0  0  0  0  0  0  0  0  0  0
    1.8373   -0.0011    2.1602 H   0  0  0  0  0  0  0  0  0  0  0  0
    4.3259   -0.0043    2.1325 H   0  0  0  0  0  0  0  0  0  0  0  0
    5.5514   -0.0350   -0.0036 H   0  0  0  0  0  0  0  0  0  0  0  0
    6.2348    0.8457   -1.6344 H   0  0  0  0  0  0  0  0  0  0  0  0
    5.3033    1.8484   -2.7749 H   0  0  0  0  0  0  0  0  0  0  0  0
    7.4021    1.0583   -3.8487 H   0  0  0  0  0  0  0  0  0  0  0  0
    7.0313   -0.6517   -3.4521 H   0  0  0  0  0  0  0  0  0  0  0  0
    5.5690    2.2853   -4.9836 H   0  0  0  0  0  0  0  0  0  0  0  0
    4.4626    1.3860   -6.0442 H   0  0  0  0  0  0  0  0  0  0  0  0
    6.5925   -0.3253   -7.0719 H   0  0  0  0  0  0  0  0  0  0  0  0
    8.2195    1.4233   -5.5698 H   0  0  0  0  0  0  0  0  0  0  0  0
    8.5971    1.7394   -7.2856 H   0  0  0  0  0  0  0  0  0  0  0  0
    6.7299    5.9463   -4.7818 H   0  0  0  0  0  0  0  0  0  0  0  0
    8.4567    5.9490   -4.4206 H   0  0  0  0  0  0  0  0  0  0  0  0
    7.1903    6.3592   -7.0608 H   0  0  0  0  0  0  0  0  0  0  0  0
    8.9139    6.4113   -6.6910 H   0  0  0  0  0  0  0  0  0  0  0  0
    7.4544    4.2404   -8.0582 H   0  0  0  0  0  0  0  0  0  0  0  0
    9.2047    4.3023   -7.6914 H   0  0  0  0  0  0  0  0  0  0  0  0
    4.1597   -0.8727   -5.7563 H   0  0  0  0  0  0  0  0  0  0  0  0
    5.1138   -1.7559   -4.5307 H   0  0  0  0  0  0  0  0  0  0  0  0
    3.2558    0.6825   -3.9902 H   0  0  0  0  0  0  0  0  0  0  0  0
    2.9529   -1.0328   -3.5504 H   0  0  0  0  0  0  0  0  0  0  0  0
    1.7866    0.0325   -2.1468 H   0  0  0  0  0  0  0  0  0  0  0  0
  1  2  1  0  0  0  0
  2  3  2  0  0  0  0
  3 25  1  0  0  0  0
  4  3  1  0  0  0  0
  4 26  1  0  0  0  0
  5 27  1  0  0  0  0
  5  4  2  0  0  0  0
  6 24  2  0  0  0  0
  6  5  1  0  0  0  0
  7  6  1  0  0  0  0
  8  7  1  0  0  0  0
  8 28  1  0  0  0  0
  9 31  1  0  0  0  0
  9  8  1  0  0  0  0
 10 22  1  0  0  0  0
 10  9  1  0  0  0  0
 11 10  1  0  0  0  0
 11 32  1  0  0  0  0
 12 13  1  6  0  0  0
 12 15  1  0  0  0  0
 12 11  1  0  0  0  0
 14 34  1  0  0  0  0
 14 12  1  0  0  0  0
 15 16  1  0  0  0  0
 15 35  1  0  0  0  0
 16 17  1  0  0  0  0
 17 18  2  0  0  0  0
 19 17  1  0  0  0  0
 19 37  1  0  0  0  0
 19 38  1  0  0  0  0
 20 19  1  0  0  0  0
 21 20  1  0  0  0  0
 21 16  1  0  0  0  0
 22 44  1  0  0  0  0
 22 23  1  0  0  0  0
 23 46  1  0  0  0  0
 23  7  1  0  0  0  0
 24  2  1  0  0  0  0
 29  8  1  0  0  0  0
 30  9  1  0  0  0  0
 33 11  1  0  0  0  0
 36 15  1  0  0  0  0
 39 20  1  0  0  0  0
 40 20  1  0  0  0  0
 41 21  1  0  0  0  0
 42 21  1  0  0  0  0
 43 22  1  0  0  0  0
 45 23  1  0  0  0  0
 47 24  1  0  0  0  0
M  END
$$$$
