47

Cl         0.29150        0.63740        0.27930
C          2.02150        0.39780        0.12730
C          2.80260        0.31420        1.28250
C          4.17360        0.11930        1.11760
C          4.75230        0.01490       -0.14780
C          3.95890        0.08690       -1.31550
N          4.50790       -0.05940       -2.59250
C          5.93870       -0.31520       -2.71230
C          6.30500       -0.84480       -4.09940
N          5.80940       -0.00090       -5.18840
C          6.56090        1.23460       -5.43360
C          7.46940        1.05960       -6.67200
H          7.68790        2.06260       -7.08180
O          6.77860        0.32780       -7.64950
C          8.81590        0.37820       -6.36280
N          9.68870        1.17330       -5.52470
C          9.89620        0.92160       -4.19580
O          9.32260        0.07220       -3.53440
C         10.98990        1.87190       -3.71500
C         11.06290        2.93970       -4.81250
C         10.56660        2.20010       -6.06770
C          4.36650        0.16570       -5.04450
C          3.96120        0.73870       -3.68700
C          2.56950        0.28930       -1.14680
H          2.34640        0.40340        2.26820
H          4.81600        0.05980        1.99980
H          5.83040       -0.11110       -0.21890
H          6.23280       -1.07520       -1.97600
H          6.53670        0.59290       -2.48790
H          7.39690       -0.92690       -4.14820
H          5.86890       -1.85000       -4.22670
H          7.15150        1.55700       -4.56010
H          5.84790        2.04390       -5.65160
H          6.23840       -0.28860       -7.11150
H          8.64380       -0.58650       -5.86460
H          9.31680        0.17240       -7.32260
H         10.75650        2.25330       -2.71170
H         11.92410        1.28940       -3.63440
H         10.37350        3.76580       -4.57730
H         12.06470        3.36970       -4.94960
H         10.02510        2.85950       -6.76400
H         11.39980        1.73880       -6.63340
H          3.98910        0.81090       -5.85210
H          3.89500       -0.82490       -5.16360
H          4.30440        1.79320       -3.60590
H          2.86650        0.75760       -3.63150
H          1.89810        0.33880       -2.00120
