rmsd172.gzmat
 OpenBabel08211713413D

 47 49  0  0  1  0  0  0  0  0999 V2000
    0.0000    0.0000    0.0000 Cl  0  0  0  0  0  0  0  0  0  0  0  0
    1.7155    0.0000    0.0000 C   0  0  0  0  0  0  0  0  0  0  0  0
    2.3772    0.0000    1.2166 C   0  0  0  0  0  0  0  0  0  0  0  0
    3.7744    0.0056    1.1922 C   0  0  0  0  0  0  0  0  0  0  0  0
    4.4639    0.0060   -0.0116 C   0  0  0  0  0  0  0  0  0  0  0  0
    3.7663    0.0000   -1.2396 C   0  0  0  0  0  0  0  0  0  0  0  0
    4.5176   -0.1256   -2.4274 N   0  0  0  0  0  0  0  0  0  0  0  0
    5.5481    0.9159   -2.6408 C   0  0  0  0  0  0  0  0  0  0  0  0
    6.5270    0.4216   -3.7350 C   0  0  0  0  0  0  0  0  0  0  0  0
    5.8642    0.0840   -5.0106 N   0  0  0  0  0  0  0  0  0  0  0  0
    5.4079    1.2838   -5.7484 C   0  0  0  0  0  0  0  0  0  0  0  0
    5.3843    0.9274   -7.2491 C   0  0  2  0  0  0  0  0  0  0  0  0
    4.8041   -0.0068   -7.4341 H   0  0  0  0  0  0  0  0  0  0  0  0
    6.7005    0.6931   -7.7123 O   0  0  0  0  0  0  0  0  0  0  0  0
    4.8210    2.0688   -8.1283 C   0  0  0  0  0  0  0  0  0  0  0  0
    5.4495    3.3628   -7.9294 N   0  0  0  0  0  0  0  0  0  0  0  0
    5.1372    4.1935   -6.8663 C   0  0  0  0  0  0  0  0  0  0  0  0
    4.1626    4.0431   -6.1638 O   0  0  0  0  0  0  0  0  0  0  0  0
    6.1676    5.3022   -6.7751 C   0  0  0  0  0  0  0  0  0  0  0  0
    7.2610    4.9349   -7.7931 C   0  0  0  0  0  0  0  0  0  0  0  0
    6.7966    3.6184   -8.4694 C   0  0  0  0  0  0  0  0  0  0  0  0
    4.7714   -0.8751   -4.7510 C   0  0  0  0  0  0  0  0  0  0  0  0
    3.7658   -0.4060   -3.6674 C   0  0  0  0  0  0  0  0  0  0  0  0
    2.3612    0.0079   -1.2272 C   0  0  0  0  0  0  0  0  0  0  0  0
    1.8399   -0.0055    2.1616 H   0  0  0  0  0  0  0  0  0  0  0  0
    4.3281    0.0023    2.1318 H   0  0  0  0  0  0  0  0  0  0  0  0
    5.5513   -0.0221   -0.0112 H   0  0  0  0  0  0  0  0  0  0  0  0
    6.1050    1.0946   -1.6973 H   0  0  0  0  0  0  0  0  0  0  0  0
    5.0922    1.8863   -2.9380 H   0  0  0  0  0  0  0  0  0  0  0  0
    7.3149    1.1815   -3.9128 H   0  0  0  0  0  0  0  0  0  0  0  0
    7.0441   -0.5016   -3.3813 H   0  0  0  0  0  0  0  0  0  0  0  0
    6.1264    2.1168   -5.5842 H   0  0  0  0  0  0  0  0  0  0  0  0
    4.4175    1.6710   -5.4245 H   0  0  0  0  0  0  0  0  0  0  0  0
    7.1757    0.1415   -7.0484 H   0  0  0  0  0  0  0  0  0  0  0  0
    4.9367    1.7797   -9.2004 H   0  0  0  0  0  0  0  0  0  0  0  0
    3.7264    2.1777   -7.9249 H   0  0  0  0  0  0  0  0  0  0  0  0
    5.6983    6.2777   -6.9965 H   0  0  0  0  0  0  0  0  0  0  0  0
    6.5569    5.3783   -5.7452 H   0  0  0  0  0  0  0  0  0  0  0  0
    7.3937    5.7332   -8.5408 H   0  0  0  0  0  0  0  0  0  0  0  0
    8.2384    4.8009   -7.3043 H   0  0  0  0  0  0  0  0  0  0  0  0
    6.7363    3.7197   -9.5719 H   0  0  0  0  0  0  0  0  0  0  0  0
    7.4838    2.7721   -8.2477 H   0  0  0  0  0  0  0  0  0  0  0  0
    4.2304   -1.0901   -5.6949 H   0  0  0  0  0  0  0  0  0  0  0  0
    5.2460   -1.8308   -4.4259 H   0  0  0  0  0  0  0  0  0  0  0  0
    3.1915    0.4760   -4.0245 H   0  0  0  0  0  0  0  0  0  0  0  0
    3.0393   -1.2262   -3.4727 H   0  0  0  0  0  0  0  0  0  0  0  0
    1.7880    0.0347   -2.1503 H   0  0  0  0  0  0  0  0  0  0  0  0
  1  2  1  0  0  0  0
  2  3  2  0  0  0  0
  3 25  1  0  0  0  0
  4  3  1  0  0  0  0
  4 26  1  0  0  0  0
  5 27  1  0  0  0  0
  5  4  2  0  0  0  0
  6 24  2  0  0  0  0
  6  5  1  0  0  0  0
  7  6  1  0  0  0  0
  8  7  1  0  0  0  0
  8 28  1  0  0  0  0
  9 31  1  0  0  0  0
  9  8  1  0  0  0  0
 10 22  1  0  0  0  0
 10  9  1  0  0  0  0
 11 32  1  0  0  0  0
 11 33  1  0  0  0  0
 11 10  1  0  0  0  0
 12 13  1  6  0  0  0
 12 11  1  0  0  0  0
 14 12  1  0  0  0  0
 14 34  1  0  0  0  0
 15 16  1  0  0  0  0
 15 36  1  0  0  0  0
 15 12  1  0  0  0  0
 16 17  1  0  0  0  0
 17 19  1  0  0  0  0
 17 18  2  0  0  0  0
 19 38  1  0  0  0  0
 20 40  1  0  0  0  0
 20 19  1  0  0  0  0
 21 42  1  0  0  0  0
 21 16  1  0  0  0  0
 21 20  1  0  0  0  0
 22 44  1  0  0  0  0
 22 23  1  0  0  0  0
 23 46  1  0  0  0  0
 23  7  1  0  0  0  0
 24  2  1  0  0  0  0
 29  8  1  0  0  0  0
 30  9  1  0  0  0  0
 35 15  1  0  0  0  0
 37 19  1  0  0  0  0
 39 20  1  0  0  0  0
 41 21  1  0  0  0  0
 43 22  1  0  0  0  0
 45 23  1  0  0  0  0
 47 24  1  0  0  0  0
M  END
$$$$
