47

Cl        -0.18910       -0.39320       -0.84140
C          1.54130       -0.32890       -0.57070
C          2.03660       -0.50210        0.72010
C          3.42370       -0.45550        0.89140
C          4.28230       -0.23850       -0.18160
C          3.77850       -0.05940       -1.49150
N          4.63780        0.19320       -2.56550
C          4.05800        0.47780       -3.87280
C          5.08060        1.11870       -4.81250
N          6.32100        0.34820       -4.92430
C          6.25800       -0.84490       -5.77540
C          6.94290       -0.55800       -7.13120
H          7.25630       -1.52290       -7.56970
O          8.09220        0.21640       -6.91100
C          6.02650        0.14440       -8.15080
N          4.92130       -0.67640       -8.59890
C          3.63150       -0.50400       -8.17470
O          3.26390        0.28230       -7.31790
C          2.75110       -1.44710       -8.99030
C          3.74290       -2.43890       -9.60900
C          5.05400       -1.63660       -9.68530
C          6.87700        0.13370       -3.59170
C          5.89580       -0.54650       -2.63790
C          2.37930       -0.12010       -1.66710
H          1.35850       -0.66500        1.55750
H          3.84420       -0.58030        1.89240
H          5.35410       -0.17900        0.00490
H          3.22220        1.18040       -3.75180
H          3.63970       -0.43730       -4.34290
H          4.61150        1.22760       -5.79710
H          5.33870        2.12090       -4.43080
H          5.22770       -1.20560       -5.92910
H          6.81020       -1.66060       -5.28480
H          7.82450        0.78390       -6.15780
H          5.61620        1.06620       -7.71430
H          6.64470        0.43210       -9.01650
H          1.97770       -1.89970       -8.35500
H          2.23360       -0.84070       -9.75390
H          3.87890       -3.30070       -8.93680
H          3.43230       -2.82610      -10.58930
H          5.94720       -2.26710       -9.55270
H          5.16330       -1.11260      -10.65510
H          7.79970       -0.46080       -3.67100
H          7.15050        1.11730       -3.17260
H          5.71070       -1.59090       -2.97240
H          6.35490       -0.60950       -1.64410
H          1.92620       -0.02020       -2.65000
