
     RDKit          3D

 47 49  0  0  0  0  0  0  0  0999 V2000
    0.0386   -1.0400    0.1546 Cl  0  0  0  0  0  0  0  0  0  0  0  0
    1.7342   -0.6005    0.1389 C   0  0  0  0  0  0  0  0  0  0  0  0
    2.3864   -0.3483    1.3440 C   0  0  0  0  0  0  0  0  0  0  0  0
    3.7371    0.0099    1.2873 C   0  0  0  0  0  0  0  0  0  0  0  0
    4.4130    0.1056    0.0751 C   0  0  0  0  0  0  0  0  0  0  0  0
    3.7504   -0.1517   -1.1470 C   0  0  0  0  0  0  0  0  0  0  0  0
    4.4417   -0.0882   -2.3635 N   0  0  0  0  0  0  0  0  0  0  0  0
    5.3722    1.0196   -2.5808 C   0  0  0  0  0  0  0  0  0  0  0  0
    6.3525    0.6862   -3.7049 C   0  0  0  0  0  0  0  0  0  0  0  0
    5.6889    0.3122   -4.9495 N   0  0  0  0  0  0  0  0  0  0  0  0
    5.1178    1.4232   -5.7131 C   0  0  0  0  0  0  0  0  0  0  0  0
    5.1505    1.0811   -7.2086 C   0  0  2  0  0  0  0  0  0  0  0  0
    4.3594    0.3283   -7.4221 H   0  0  0  0  0  0  0  0  0  0  0  0
    6.4201    0.5635   -7.5337 O   0  0  0  0  0  0  0  0  0  0  0  0
    4.8450    2.2865   -8.0973 C   0  0  0  0  0  0  0  0  0  0  0  0
    5.7417    3.4034   -7.9131 N   0  0  0  0  0  0  0  0  0  0  0  0
    5.4230    4.4663   -7.1086 C   0  0  0  0  0  0  0  0  0  0  0  0
    4.3770    4.6019   -6.4997 O   0  0  0  0  0  0  0  0  0  0  0  0
    6.6330    5.3995   -7.0931 C   0  0  0  0  0  0  0  0  0  0  0  0
    7.4798    4.9333   -8.2838 C   0  0  0  0  0  0  0  0  0  0  0  0
    7.0982    3.4501   -8.4427 C   0  0  0  0  0  0  0  0  0  0  0  0
    4.7685   -0.7942   -4.6958 C   0  0  0  0  0  0  0  0  0  0  0  0
    3.7590   -0.5080   -3.5784 C   0  0  0  0  0  0  0  0  0  0  0  0
    2.3849   -0.4994   -1.0922 C   0  0  0  0  0  0  0  0  0  0  0  0
    1.8534   -0.4324    2.2908 H   0  0  0  0  0  0  0  0  0  0  0  0
    4.2785    0.2063    2.2160 H   0  0  0  0  0  0  0  0  0  0  0  0
    5.4739    0.3549    0.0786 H   0  0  0  0  0  0  0  0  0  0  0  0
    5.9365    1.2208   -1.6628 H   0  0  0  0  0  0  0  0  0  0  0  0
    4.8161    1.9490   -2.8277 H   0  0  0  0  0  0  0  0  0  0  0  0
    7.0151    1.5452   -3.8912 H   0  0  0  0  0  0  0  0  0  0  0  0
    6.9820   -0.1614   -3.3831 H   0  0  0  0  0  0  0  0  0  0  0  0
    5.7562    2.3022   -5.5455 H   0  0  0  0  0  0  0  0  0  0  0  0
    4.0963    1.7150   -5.4075 H   0  0  0  0  0  0  0  0  0  0  0  0
    6.6975    0.1115   -6.7123 H   0  0  0  0  0  0  0  0  0  0  0  0
    4.8871    1.9616   -9.1500 H   0  0  0  0  0  0  0  0  0  0  0  0
    3.8282    2.6471   -7.8808 H   0  0  0  0  0  0  0  0  0  0  0  0
    6.3109    6.4491   -7.1322 H   0  0  0  0  0  0  0  0  0  0  0  0
    7.1527    5.2533   -6.1300 H   0  0  0  0  0  0  0  0  0  0  0  0
    7.1882    5.4893   -9.1889 H   0  0  0  0  0  0  0  0  0  0  0  0
    8.5606    5.0727   -8.1405 H   0  0  0  0  0  0  0  0  0  0  0  0
    7.1162    3.1088   -9.4902 H   0  0  0  0  0  0  0  0  0  0  0  0
    7.7613    2.7759   -7.8748 H   0  0  0  0  0  0  0  0  0  0  0  0
    4.2297   -1.0465   -5.6211 H   0  0  0  0  0  0  0  0  0  0  0  0
    5.3646   -1.6773   -4.4110 H   0  0  0  0  0  0  0  0  0  0  0  0
    3.0190    0.2509   -3.9119 H   0  0  0  0  0  0  0  0  0  0  0  0
    3.2011   -1.4330   -3.3760 H   0  0  0  0  0  0  0  0  0  0  0  0
    1.8077   -0.6802   -1.9954 H   0  0  0  0  0  0  0  0  0  0  0  0
  1  2  1  0
  2  3  2  0
  2 24  1  0
  3  4  1  0
  3 25  1  0
  4  5  2  0
  4 26  1  0
  5  6  1  0
  5 27  1  0
  6  7  1  0
  6 24  2  0
  7  8  1  0
  7 23  1  0
  8  9  1  0
  8 28  1  0
  8 29  1  0
  9 10  1  0
  9 30  1  0
  9 31  1  0
 10 11  1  0
 10 22  1  0
 11 12  1  0
 11 32  1  0
 11 33  1  0
 12 13  1  1
 12 14  1  0
 12 15  1  0
 14 34  1  0
 15 16  1  0
 15 35  1  0
 15 36  1  0
 16 17  1  0
 16 21  1  0
 17 18  2  0
 17 19  1  0
 19 20  1  0
 19 37  1  0
 19 38  1  0
 20 21  1  0
 20 39  1  0
 20 40  1  0
 21 41  1  0
 21 42  1  0
 22 23  1  0
 22 43  1  0
 22 44  1  0
 23 45  1  0
 23 46  1  0
 24 47  1  0
M  END

