rmsd215.gzmat
 OpenBabel08211713413D

 47 49  0  0  1  0  0  0  0  0999 V2000
    0.0000    0.0000    0.0000 Cl  0  0  0  0  0  0  0  0  0  0  0  0
    1.7171    0.0000    0.0000 C   0  0  0  0  0  0  0  0  0  0  0  0
    2.3769    0.0000    1.2168 C   0  0  0  0  0  0  0  0  0  0  0  0
    3.7745    0.0059    1.1917 C   0  0  0  0  0  0  0  0  0  0  0  0
    4.4649    0.0064   -0.0104 C   0  0  0  0  0  0  0  0  0  0  0  0
    3.7698   -0.0025   -1.2416 C   0  0  0  0  0  0  0  0  0  0  0  0
    4.5128   -0.1407   -2.4274 N   0  0  0  0  0  0  0  0  0  0  0  0
    5.6338    0.8100   -2.6058 C   0  0  0  0  0  0  0  0  0  0  0  0
    6.5786    0.2852   -3.7134 C   0  0  0  0  0  0  0  0  0  0  0  0
    5.9010    0.0121   -4.9958 N   0  0  0  0  0  0  0  0  0  0  0  0
    5.5487    1.2404   -5.7445 C   0  0  0  0  0  0  0  0  0  0  0  0
    6.4628    1.3193   -6.9925 C   0  0  2  0  0  0  0  0  0  0  0  0
    6.0491    2.0331   -7.7380 H   0  0  0  0  0  0  0  0  0  0  0  0
    6.4733    0.0962   -7.6852 O   0  0  0  0  0  0  0  0  0  0  0  0
    7.9352    1.6695   -6.6438 C   0  0  0  0  0  0  0  0  0  0  0  0
    8.1344    3.1001   -6.5012 N   0  0  0  0  0  0  0  0  0  0  0  0
    7.8576    3.8183   -5.3569 C   0  0  0  0  0  0  0  0  0  0  0  0
    7.5738    3.3120   -4.2934 O   0  0  0  0  0  0  0  0  0  0  0  0
    7.9969    5.3010   -5.6468 C   0  0  0  0  0  0  0  0  0  0  0  0
    8.2834    5.4068   -7.1540 C   0  0  0  0  0  0  0  0  0  0  0  0
    8.3587    3.9491   -7.6813 C   0  0  0  0  0  0  0  0  0  0  0  0
    4.7415   -0.8685   -4.7602 C   0  0  0  0  0  0  0  0  0  0  0  0
    3.7603   -0.3383   -3.6820 C   0  0  0  0  0  0  0  0  0  0  0  0
    2.3623    0.0073   -1.2268 C   0  0  0  0  0  0  0  0  0  0  0  0
    1.8397   -0.0056    2.1607 H   0  0  0  0  0  0  0  0  0  0  0  0
    4.3272    0.0024    2.1318 H   0  0  0  0  0  0  0  0  0  0  0  0
    5.5527   -0.0185   -0.0063 H   0  0  0  0  0  0  0  0  0  0  0  0
    6.2046    0.9083   -1.6578 H   0  0  0  0  0  0  0  0  0  0  0  0
    5.2673    1.8286   -2.8623 H   0  0  0  0  0  0  0  0  0  0  0  0
    7.3971    1.0263   -3.8713 H   0  0  0  0  0  0  0  0  0  0  0  0
    7.0537   -0.6667   -3.3842 H   0  0  0  0  0  0  0  0  0  0  0  0
    5.6685    2.1636   -5.1368 H   0  0  0  0  0  0  0  0  0  0  0  0
    4.4916    1.2238   -6.0815 H   0  0  0  0  0  0  0  0  0  0  0  0
    6.5518   -0.6473   -7.0390 H   0  0  0  0  0  0  0  0  0  0  0  0
    8.2409    1.1601   -5.6993 H   0  0  0  0  0  0  0  0  0  0  0  0
    8.6003    1.2721   -7.4447 H   0  0  0  0  0  0  0  0  0  0  0  0
    7.0765    5.8357   -5.3514 H   0  0  0  0  0  0  0  0  0  0  0  0
    8.8085    5.7321   -5.0327 H   0  0  0  0  0  0  0  0  0  0  0  0
    7.4943    5.9723   -7.6750 H   0  0  0  0  0  0  0  0  0  0  0  0
    9.2264    5.9439   -7.3451 H   0  0  0  0  0  0  0  0  0  0  0  0
    7.5977    3.7555   -8.4644 H   0  0  0  0  0  0  0  0  0  0  0  0
    9.3537    3.7242   -8.1192 H   0  0  0  0  0  0  0  0  0  0  0  0
    4.2017   -1.0377   -5.7147 H   0  0  0  0  0  0  0  0  0  0  0  0
    5.1428   -1.8578   -4.4359 H   0  0  0  0  0  0  0  0  0  0  0  0
    3.2682    0.5945   -4.0291 H   0  0  0  0  0  0  0  0  0  0  0  0
    2.9661   -1.1004   -3.5166 H   0  0  0  0  0  0  0  0  0  0  0  0
    1.7869    0.0307   -2.1473 H   0  0  0  0  0  0  0  0  0  0  0  0
  1  2  1  0  0  0  0
  2  3  2  0  0  0  0
  3 25  1  0  0  0  0
  4  3  1  0  0  0  0
  4 26  1  0  0  0  0
  5 27  1  0  0  0  0
  5  4  2  0  0  0  0
  6 24  2  0  0  0  0
  6  5  1  0  0  0  0
  7  6  1  0  0  0  0
  8  7  1  0  0  0  0
  8 28  1  0  0  0  0
  9 31  1  0  0  0  0
  9  8  1  0  0  0  0
 10 22  1  0  0  0  0
 10  9  1  0  0  0  0
 11 32  1  0  0  0  0
 11 10  1  0  0  0  0
 12 13  1  6  0  0  0
 12 15  1  0  0  0  0
 12 11  1  0  0  0  0
 14 34  1  0  0  0  0
 14 12  1  0  0  0  0
 15 16  1  0  0  0  0
 15 35  1  0  0  0  0
 16 17  1  0  0  0  0
 17 18  2  0  0  0  0
 19 17  1  0  0  0  0
 19 37  1  0  0  0  0
 19 38  1  0  0  0  0
 20 19  1  0  0  0  0
 21 20  1  0  0  0  0
 21 16  1  0  0  0  0
 22 44  1  0  0  0  0
 22 23  1  0  0  0  0
 23 46  1  0  0  0  0
 23  7  1  0  0  0  0
 24  2  1  0  0  0  0
 29  8  1  0  0  0  0
 30  9  1  0  0  0  0
 33 11  1  0  0  0  0
 36 15  1  0  0  0  0
 39 20  1  0  0  0  0
 40 20  1  0  0  0  0
 41 21  1  0  0  0  0
 42 21  1  0  0  0  0
 43 22  1  0  0  0  0
 45 23  1  0  0  0  0
 47 24  1  0  0  0  0
M  END
$$$$
