rmsd134.gzmat
 OpenBabel08211713413D

 47 49  0  0  1  0  0  0  0  0999 V2000
    0.0000    0.0000    0.0000 Cl  0  0  0  0  0  0  0  0  0  0  0  0
    1.7155    0.0000    0.0000 C   0  0  0  0  0  0  0  0  0  0  0  0
    2.3762    0.0000    1.2209 C   0  0  0  0  0  0  0  0  0  0  0  0
    3.7693    0.0019    1.1980 C   0  0  0  0  0  0  0  0  0  0  0  0
    4.4658   -0.0066   -0.0068 C   0  0  0  0  0  0  0  0  0  0  0  0
    3.7745   -0.0035   -1.2328 C   0  0  0  0  0  0  0  0  0  0  0  0
    4.4253    0.1020   -2.4803 N   0  0  0  0  0  0  0  0  0  0  0  0
    4.0128   -0.8978   -3.4922 C   0  0  0  0  0  0  0  0  0  0  0  0
    4.5086   -0.4300   -4.8817 C   0  0  0  0  0  0  0  0  0  0  0  0
    5.9685   -0.2272   -4.9430 N   0  0  0  0  0  0  0  0  0  0  0  0
    6.7267   -1.4980   -4.9164 C   0  0  0  0  0  0  0  0  0  0  0  0
    7.9286   -1.3279   -5.8694 C   0  0  2  0  0  0  0  0  0  0  0  0
    8.5066   -0.4062   -5.6285 H   0  0  0  0  0  0  0  0  0  0  0  0
    7.4684   -1.1961   -7.2019 O   0  0  0  0  0  0  0  0  0  0  0  0
    8.8715   -2.5541   -5.8780 C   0  0  0  0  0  0  0  0  0  0  0  0
    8.2003   -3.8410   -5.9512 N   0  0  0  0  0  0  0  0  0  0  0  0
    7.6372   -4.4506   -4.8402 C   0  0  0  0  0  0  0  0  0  0  0  0
    7.8792   -4.1200   -3.7011 O   0  0  0  0  0  0  0  0  0  0  0  0
    6.7319   -5.5808   -5.2896 C   0  0  0  0  0  0  0  0  0  0  0  0
    6.6434   -5.4545   -6.8203 C   0  0  0  0  0  0  0  0  0  0  0  0
    7.5575   -4.2624   -7.2090 C   0  0  0  0  0  0  0  0  0  0  0  0
    6.3775    0.6979   -3.8681 C   0  0  0  0  0  0  0  0  0  0  0  0
    5.8920    0.2797   -2.4548 C   0  0  0  0  0  0  0  0  0  0  0  0
    2.3635    0.0017   -1.2207 C   0  0  0  0  0  0  0  0  0  0  0  0
    1.8338   -0.0019    2.1626 H   0  0  0  0  0  0  0  0  0  0  0  0
    4.3230    0.0010    2.1381 H   0  0  0  0  0  0  0  0  0  0  0  0
    5.5517   -0.0300    0.0175 H   0  0  0  0  0  0  0  0  0  0  0  0
    2.9056   -0.9863   -3.5071 H   0  0  0  0  0  0  0  0  0  0  0  0
    4.4165   -1.9064   -3.2545 H   0  0  0  0  0  0  0  0  0  0  0  0
    4.1985   -1.1544   -5.6623 H   0  0  0  0  0  0  0  0  0  0  0  0
    4.0307    0.5447   -5.1405 H   0  0  0  0  0  0  0  0  0  0  0  0
    6.0918   -2.3350   -5.2784 H   0  0  0  0  0  0  0  0  0  0  0  0
    7.0769   -1.7957   -3.9041 H   0  0  0  0  0  0  0  0  0  0  0  0
    6.7333   -0.5412   -7.2190 H   0  0  0  0  0  0  0  0  0  0  0  0
    9.5610   -2.4626   -6.7521 H   0  0  0  0  0  0  0  0  0  0  0  0
    9.5000   -2.5408   -4.9534 H   0  0  0  0  0  0  0  0  0  0  0  0
    7.1508   -6.5528   -4.9714 H   0  0  0  0  0  0  0  0  0  0  0  0
    5.7454   -5.4996   -4.8007 H   0  0  0  0  0  0  0  0  0  0  0  0
    6.9757   -6.3809   -7.3163 H   0  0  0  0  0  0  0  0  0  0  0  0
    5.6077   -5.2793   -7.1521 H   0  0  0  0  0  0  0  0  0  0  0  0
    8.3392   -4.5633   -7.9355 H   0  0  0  0  0  0  0  0  0  0  0  0
    6.9826   -3.4269   -7.6654 H   0  0  0  0  0  0  0  0  0  0  0  0
    7.4824    0.7997   -3.8681 H   0  0  0  0  0  0  0  0  0  0  0  0
    5.9620    1.7007   -4.1226 H   0  0  0  0  0  0  0  0  0  0  0  0
    6.4212   -0.6385   -2.1190 H   0  0  0  0  0  0  0  0  0  0  0  0
    6.1411    1.0948   -1.7388 H   0  0  0  0  0  0  0  0  0  0  0  0
    1.8040    0.0381   -2.1535 H   0  0  0  0  0  0  0  0  0  0  0  0
  1  2  1  0  0  0  0
  2  3  2  0  0  0  0
  3 25  1  0  0  0  0
  4  3  1  0  0  0  0
  4 26  1  0  0  0  0
  5 27  1  0  0  0  0
  5  4  2  0  0  0  0
  6 24  2  0  0  0  0
  6  5  1  0  0  0  0
  7 23  1  0  0  0  0
  7  6  1  0  0  0  0
  8 29  1  0  0  0  0
  8  7  1  0  0  0  0
  9  8  1  0  0  0  0
 10 11  1  0  0  0  0
 10  9  1  0  0  0  0
 10 22  1  0  0  0  0
 11 33  1  0  0  0  0
 12 13  1  1  0  0  0
 12 11  1  0  0  0  0
 14 12  1  0  0  0  0
 15 12  1  0  0  0  0
 15 36  1  0  0  0  0
 16 15  1  0  0  0  0
 16 17  1  0  0  0  0
 17 18  2  0  0  0  0
 19 37  1  0  0  0  0
 19 17  1  0  0  0  0
 19 38  1  0  0  0  0
 20 19  1  0  0  0  0
 21 20  1  0  0  0  0
 21 16  1  0  0  0  0
 22 23  1  0  0  0  0
 23 45  1  0  0  0  0
 23 46  1  0  0  0  0
 24  2  1  0  0  0  0
 28  8  1  0  0  0  0
 30  9  1  0  0  0  0
 31  9  1  0  0  0  0
 32 11  1  0  0  0  0
 34 14  1  0  0  0  0
 35 15  1  0  0  0  0
 39 20  1  0  0  0  0
 40 20  1  0  0  0  0
 41 21  1  0  0  0  0
 42 21  1  0  0  0  0
 43 22  1  0  0  0  0
 44 22  1  0  0  0  0
 47 24  1  0  0  0  0
M  END
$$$$
