47

Cl        -0.12960       -0.29550        0.09140
C          1.57710        0.09950        0.08720
C          2.16810        0.58780        1.25570
C          3.52630        0.89850        1.21040
C          4.27780        0.72560        0.04670
C          3.67640        0.24180       -1.13540
N          4.39240        0.09930       -2.33000
C          4.14550       -1.07760       -3.16280
C          4.62640       -0.83760       -4.59340
N          6.02610       -0.43140       -4.66550
C          7.00140       -1.50480       -4.46770
C          8.27360       -1.19080       -5.26680
H          8.84180       -0.39080       -4.74280
O          7.90870       -0.76560       -6.55990
C          9.21070       -2.39460       -5.36340
N          8.60870       -3.55090       -5.98450
C          8.17060       -4.62660       -5.25700
O          8.16030       -4.69680       -4.04140
C          7.73000       -5.69480       -6.25700
C          7.56580       -4.92280       -7.57210
C          8.54140       -3.74090       -7.42690
C          6.23300        0.74730       -3.82690
C          5.77310        0.55690       -2.37720
C          2.29970       -0.07290       -1.08900
H          1.57820        0.71320        2.16340
H          4.02070        1.27260        2.11050
H          5.34100        0.95620        0.07260
H          3.07360       -1.30570       -3.18290
H          4.65620       -1.96720       -2.73640
H          4.48160       -1.74810       -5.19450
H          4.01300       -0.03690       -5.04150
H          6.56500       -2.42980       -4.87030
H          7.25280       -1.70810       -3.41040
H          7.04300       -0.33260       -6.41910
H         10.10520       -2.09990       -5.93680
H          9.52460       -2.68960       -4.35050
H          8.53260       -6.45090       -6.31390
H          6.82500       -6.20650       -5.90230
H          7.76680       -5.52500       -8.46920
H          6.53660       -4.53780       -7.65200
H          9.54320       -3.98460       -7.83390
H          8.19100       -2.82150       -7.91400
H          7.29660        1.02830       -3.84040
H          5.66580        1.58460       -4.26690
H          6.45200       -0.14410       -1.84570
H          5.84830        1.52660       -1.86580
H          1.77430       -0.42790       -1.97350
