rmsd246.gzmat
 OpenBabel08211713413D

 47 49  0  0  1  0  0  0  0  0999 V2000
    0.0000    0.0000    0.0000 Cl  0  0  0  0  0  0  0  0  0  0  0  0
    1.7173    0.0000    0.0000 C   0  0  0  0  0  0  0  0  0  0  0  0
    2.3745    0.0000    1.2189 C   0  0  0  0  0  0  0  0  0  0  0  0
    3.7713   -0.0054    1.1933 C   0  0  0  0  0  0  0  0  0  0  0  0
    4.4630   -0.0025   -0.0084 C   0  0  0  0  0  0  0  0  0  0  0  0
    3.7715    0.0055   -1.2432 C   0  0  0  0  0  0  0  0  0  0  0  0
    4.4932    0.1404   -2.4327 N   0  0  0  0  0  0  0  0  0  0  0  0
    3.7573    0.2125   -3.7100 C   0  0  0  0  0  0  0  0  0  0  0  0
    4.6688    0.8676   -4.7797 C   0  0  0  0  0  0  0  0  0  0  0  0
    5.9769    0.2079   -4.9463 N   0  0  0  0  0  0  0  0  0  0  0  0
    5.8983   -1.0639   -5.7003 C   0  0  0  0  0  0  0  0  0  0  0  0
    6.6710   -0.8710   -7.0282 C   0  0  2  0  0  0  0  0  0  0  0  0
    6.8540   -1.8487   -7.5248 H   0  0  0  0  0  0  0  0  0  0  0  0
    7.9689   -0.3876   -6.7813 O   0  0  0  0  0  0  0  0  0  0  0  0
    5.9690    0.1271   -7.9889 C   0  0  0  0  0  0  0  0  0  0  0  0
    4.9901   -0.5280   -8.8373 N   0  0  0  0  0  0  0  0  0  0  0  0
    3.7121   -0.8635   -8.4398 C   0  0  0  0  0  0  0  0  0  0  0  0
    3.2077   -0.4920   -7.4033 O   0  0  0  0  0  0  0  0  0  0  0  0
    3.0627   -1.7222   -9.5091 C   0  0  0  0  0  0  0  0  0  0  0  0
    4.1651   -2.0029  -10.5446 C   0  0  0  0  0  0  0  0  0  0  0  0
    5.4020   -1.1863  -10.0864 C   0  0  0  0  0  0  0  0  0  0  0  0
    6.6345    0.0622   -3.6347 C   0  0  0  0  0  0  0  0  0  0  0  0
    5.7469   -0.6268   -2.5679 C   0  0  0  0  0  0  0  0  0  0  0  0
    2.3616   -0.0077   -1.2255 C   0  0  0  0  0  0  0  0  0  0  0  0
    1.8349    0.0069    2.1611 H   0  0  0  0  0  0  0  0  0  0  0  0
    4.3251   -0.0069    2.1331 H   0  0  0  0  0  0  0  0  0  0  0  0
    5.5496    0.0234    0.0047 H   0  0  0  0  0  0  0  0  0  0  0  0
    2.8521    0.8491   -3.5880 H   0  0  0  0  0  0  0  0  0  0  0  0
    3.4162   -0.7888   -4.0503 H   0  0  0  0  0  0  0  0  0  0  0  0
    4.1286    0.8820   -5.7562 H   0  0  0  0  0  0  0  0  0  0  0  0
    4.8698    1.9273   -4.5009 H   0  0  0  0  0  0  0  0  0  0  0  0
    4.8500   -1.3622   -5.9239 H   0  0  0  0  0  0  0  0  0  0  0  0
    6.3511   -1.9083   -5.1415 H   0  0  0  0  0  0  0  0  0  0  0  0
    7.9253    0.3626   -6.1424 H   0  0  0  0  0  0  0  0  0  0  0  0
    5.4649    0.9356   -7.4071 H   0  0  0  0  0  0  0  0  0  0  0  0
    6.7405    0.6276   -8.6179 H   0  0  0  0  0  0  0  0  0  0  0  0
    2.6567   -2.6468   -9.0617 H   0  0  0  0  0  0  0  0  0  0  0  0
    2.1982   -1.1920   -9.9483 H   0  0  0  0  0  0  0  0  0  0  0  0
    4.4023   -3.0777  -10.5975 H   0  0  0  0  0  0  0  0  0  0  0  0
    3.8506   -1.7066  -11.5582 H   0  0  0  0  0  0  0  0  0  0  0  0
    6.2876   -1.8339   -9.9269 H   0  0  0  0  0  0  0  0  0  0  0  0
    5.6824   -0.4165  -10.8360 H   0  0  0  0  0  0  0  0  0  0  0  0
    7.5866   -0.4950   -3.7549 H   0  0  0  0  0  0  0  0  0  0  0  0
    6.9006    1.0884   -3.2875 H   0  0  0  0  0  0  0  0  0  0  0  0
    5.5411   -1.6817   -2.8539 H   0  0  0  0  0  0  0  0  0  0  0  0
    6.2928   -0.6560   -1.6014 H   0  0  0  0  0  0  0  0  0  0  0  0
    1.7858   -0.0310   -2.1470 H   0  0  0  0  0  0  0  0  0  0  0  0
  1  2  1  0  0  0  0
  2  3  2  0  0  0  0
  3 25  1  0  0  0  0
  4  3  1  0  0  0  0
  4 26  1  0  0  0  0
  5 27  1  0  0  0  0
  5  4  2  0  0  0  0
  6 24  2  0  0  0  0
  6  5  1  0  0  0  0
  7  6  1  0  0  0  0
  8 28  1  0  0  0  0
  8  7  1  0  0  0  0
  9 31  1  0  0  0  0
  9  8  1  0  0  0  0
 10  9  1  0  0  0  0
 10 22  1  0  0  0  0
 11 33  1  0  0  0  0
 11 10  1  0  0  0  0
 12 13  1  6  0  0  0
 12 14  1  0  0  0  0
 12 11  1  0  0  0  0
 14 34  1  0  0  0  0
 15 35  1  0  0  0  0
 15 12  1  0  0  0  0
 16 17  1  0  0  0  0
 16 15  1  0  0  0  0
 17 18  2  0  0  0  0
 19 37  1  0  0  0  0
 19 17  1  0  0  0  0
 20 21  1  0  0  0  0
 20 19  1  0  0  0  0
 21 41  1  0  0  0  0
 21 16  1  0  0  0  0
 22 44  1  0  0  0  0
 22 23  1  0  0  0  0
 23  7  1  0  0  0  0
 23 46  1  0  0  0  0
 24  2  1  0  0  0  0
 29  8  1  0  0  0  0
 30  9  1  0  0  0  0
 32 11  1  0  0  0  0
 36 15  1  0  0  0  0
 38 19  1  0  0  0  0
 39 20  1  0  0  0  0
 40 20  1  0  0  0  0
 42 21  1  0  0  0  0
 43 22  1  0  0  0  0
 45 23  1  0  0  0  0
 47 24  1  0  0  0  0
M  END
$$$$
