47
rmsd170.gzmat
Cl         0.00000        0.00000        0.00000
C          1.71610        0.00000        0.00000
C          2.37490        0.00000        1.22200
C          3.76830        0.00240        1.20180
C          4.46610        0.00340       -0.00200
C          3.77670        0.01620       -1.22910
N          4.43010        0.15400       -2.47040
C          4.05740       -0.83560       -3.50620
C          4.52950       -0.31010       -4.88470
N          5.97680       -0.02360       -4.94380
C          6.79970       -1.25390       -4.95950
C          8.11040       -0.92970       -5.70550
H          8.60990       -0.03110       -5.27410
O          7.83710       -0.63650       -7.06250
C          9.10350       -2.11600       -5.72430
N          8.53830       -3.38190       -6.15850
C          7.75970       -4.17600       -5.33190
O          7.70130       -4.03670       -4.13030
C          7.05710       -5.23210       -6.16230
C          7.34870       -4.86610       -7.62820
C          8.25090       -3.60480       -7.58710
C          6.33510        0.88760       -3.83890
C          5.88820        0.38750       -2.44040
C          2.36560        0.00660       -1.22010
H          1.83150       -0.00270        2.16320
H          4.32120       -0.00330        2.14230
H          5.55160       -0.02020        0.02340
H          2.95510       -0.97170       -3.52000
H          4.50560       -1.83190       -3.29640
H          4.25960       -1.03360       -5.68070
H          3.99860        0.64240       -5.12110
H          6.25770       -2.05530       -5.50740
H          7.01870       -1.66930       -3.95220
H          7.04970       -0.04610       -7.10670
H          9.95140       -1.85540       -6.40300
H          9.52470       -2.25570       -4.69790
H          7.43170       -6.23730       -5.89550
H          5.97630       -5.24050       -5.93550
H          7.85490       -5.69270       -8.15270
H          6.42120       -4.66610       -8.18750
H          9.20460       -3.76260       -8.13070
H          7.74950       -2.71970       -8.03810
H          7.42960        1.06510       -3.84010
H          5.84970        1.86860       -4.05450
H          6.45660       -0.52320       -2.15210
H          6.11420        1.17870       -1.69120
H          1.80810        0.03770       -2.15410
