47

Cl        -0.03470        0.20250       -0.14130
C          1.71780        0.23080       -0.11010
C          2.37650        0.40750        1.10460
C          3.77460        0.43660        1.08220
C          4.48750        0.28850       -0.10310
C          3.81810        0.10350       -1.33590
N          4.53420       -0.08190       -2.52230
C          5.74360        0.71470       -2.74270
C          6.62270        0.11860       -3.83960
N          5.89040       -0.10710       -5.08810
C          5.63830        1.08410       -5.90580
C          6.60080        1.10240       -7.11470
H          6.15010        1.72950       -7.90520
O          6.73540       -0.20150       -7.61580
C          7.99020        1.68220       -6.78920
N          7.96910        3.09270       -6.46420
C          8.11300        3.57720       -5.19220
O          8.18500        2.90320       -4.17820
C          8.19780        5.09820       -5.28810
C          7.67620        5.41130       -6.69520
C          7.98540        4.12850       -7.48730
C          4.72200       -0.93810       -4.81860
C          3.79620       -0.36220       -3.74410
C          2.40670        0.08990       -1.31580
H          1.81310        0.51690        2.03110
H          4.32240        0.56820        2.01870
H          5.57610        0.29050       -0.06720
H          6.33300        0.77180       -1.82090
H          5.47510        1.75870       -3.00820
H          7.46370        0.80090       -4.01090
H          7.01860       -0.85290       -3.49780
H          5.72000        2.02100       -5.33030
H          4.60950        1.03900       -6.29390
H          6.69380       -0.74710       -6.80270
H          8.43300        1.14090       -5.94090
H          8.63790        1.51620       -7.66540
H          7.63620        5.56870       -4.46980
H          9.25770        5.38010       -5.16200
H          6.58660        5.56900       -6.66380
H          8.12960        6.30280       -7.15010
H          7.24160        3.92400       -8.27330
H          8.97750        4.17360       -7.97810
H          4.16030       -1.09480       -5.75170
H          5.07780       -1.92530       -4.47740
H          3.28660        0.54870       -4.12970
H          3.01280       -1.10330       -3.53080
H          1.82590       -0.01610       -2.22830
