rmsd10.gzmat
 OpenBabel08211713413D

 31 33  0  0  0  0  0  0  0  0999 V2000
    0.0000    0.0000    0.0000 O   0  0  0  0  0  0  0  0  0  0  0  0
    1.4028    0.0000    0.0000 N   0  0  0  0  0  0  0  0  0  0  0  0
    1.7095    0.0000    0.9581 H   0  0  0  0  0  0  0  0  0  0  0  0
    1.8552   -0.8980   -0.9705 C   0  0  0  0  0  0  0  0  0  0  0  0
    0.7837   -1.3170   -1.7379 C   0  0  0  0  0  0  0  0  0  0  0  0
   -0.4213   -0.7586   -1.1492 C   0  0  0  0  0  0  0  0  0  0  0  0
   -1.5927   -0.7692   -1.3697 O   0  0  0  0  0  0  0  0  0  0  0  0
    0.8243   -2.1563   -2.9249 C   0  0  0  0  0  0  0  0  0  0  0  0
    1.8629   -2.6508   -3.3084 O   0  0  0  0  0  0  0  0  0  0  0  0
   -0.4479   -2.4441   -3.6341 C   0  0  0  0  0  0  0  0  0  0  0  0
   -0.7973   -3.7809   -3.8313 C   0  0  0  0  0  0  0  0  0  0  0  0
   -1.9842   -4.0921   -4.4898 C   0  0  0  0  0  0  0  0  0  0  0  0
   -2.8089   -3.0700   -4.9589 C   0  0  0  0  0  0  0  0  0  0  0  0
   -2.4453   -1.7365   -4.7784 C   0  0  0  0  0  0  0  0  0  0  0  0
   -1.2624   -1.4196   -4.1124 C   0  0  0  0  0  0  0  0  0  0  0  0
    3.2812   -1.1683   -1.0794 C   0  0  0  0  0  0  0  0  0  0  0  0
    3.7202   -2.4740   -1.3192 C   0  0  0  0  0  0  0  0  0  0  0  0
    5.0835   -2.7337   -1.4403 C   0  0  0  0  0  0  0  0  0  0  0  0
    6.0052   -1.6958   -1.3255 C   0  0  0  0  0  0  0  0  0  0  0  0
    5.5669   -0.3927   -1.0846 C   0  0  0  0  0  0  0  0  0  0  0  0
    4.2077   -0.1256   -0.9604 C   0  0  0  0  0  0  0  0  0  0  0  0
   -0.1424   -4.5738   -3.4713 H   0  0  0  0  0  0  0  0  0  0  0  0
   -2.2673   -5.1316   -4.6363 H   0  0  0  0  0  0  0  0  0  0  0  0
   -3.7409   -3.3145   -5.4645 H   0  0  0  0  0  0  0  0  0  0  0  0
   -3.0899   -0.9406   -5.1462 H   0  0  0  0  0  0  0  0  0  0  0  0
   -0.9850   -0.3772   -3.9592 H   0  0  0  0  0  0  0  0  0  0  0  0
    2.9985   -3.2887   -1.4254 H   0  0  0  0  0  0  0  0  0  0  0  0
    5.4232   -3.7497   -1.6382 H   0  0  0  0  0  0  0  0  0  0  0  0
    7.0708   -1.9002   -1.4277 H   0  0  0  0  0  0  0  0  0  0  0  0
    6.2900    0.4167   -1.0006 H   0  0  0  0  0  0  0  0  0  0  0  0
    3.8663    0.8961   -0.7884 H   0  0  0  0  0  0  0  0  0  0  0  0
  2  1  1  0  0  0  0
  2  3  1  0  0  0  0
  4  2  1  0  0  0  0
  5  6  1  0  0  0  0
  5  4  2  0  0  0  0
  6  1  1  0  0  0  0
  7  6  2  0  0  0  0
  8  5  1  0  0  0  0
  9  8  2  0  0  0  0
 10  8  1  0  0  0  0
 11 10  1  0  0  0  0
 11 22  1  0  0  0  0
 12 11  2  0  0  0  0
 13 14  2  0  0  0  0
 13 12  1  0  0  0  0
 14 15  1  0  0  0  0
 15 26  1  0  0  0  0
 15 10  2  0  0  0  0
 16  4  1  0  0  0  0
 16 21  1  0  0  0  0
 17 16  2  0  0  0  0
 18 19  2  0  0  0  0
 18 17  1  0  0  0  0
 19 20  1  0  0  0  0
 20 30  1  0  0  0  0
 20 21  2  0  0  0  0
 21 31  1  0  0  0  0
 23 12  1  0  0  0  0
 24 13  1  0  0  0  0
 25 14  1  0  0  0  0
 27 17  1  0  0  0  0
 28 18  1  0  0  0  0
 29 19  1  0  0  0  0
M  END
$$$$
