31

O          0.07500        0.06670        0.26520
N          1.43870       -0.15520        0.26450
H          1.75830       -0.52670        1.15720
C          1.82450       -0.70960       -0.92330
C          0.73730       -0.75820       -1.77490
C         -0.41530       -0.25890       -1.02270
O         -1.57040       -0.07000       -1.27970
C          0.80950       -1.01640       -3.23680
O          1.84460       -0.77340       -3.84030
C         -0.37000       -1.58580       -3.95730
C         -1.41100       -2.26790       -3.30920
C         -2.44700       -2.83600       -4.05240
C         -2.45970       -2.71620       -5.44440
C         -1.42430       -2.03760       -6.09840
C         -0.38190       -1.48460       -5.35960
C          3.22100       -1.13770       -1.06550
C          4.23650       -0.42480       -0.40420
C          5.56430       -0.84420       -0.49550
C          5.88870       -1.97800       -1.24400
C          4.88120       -2.69170       -1.90290
C          3.55500       -2.27580       -1.81850
H         -1.41700       -2.36170       -2.22470
H         -3.25140       -3.36910       -3.54060
H         -3.27770       -3.15330       -6.02250
H         -1.43250       -1.94440       -7.18690
H          0.44590       -0.96560       -5.84540
H          3.98350        0.47710        0.15690
H          6.34820       -0.27740        0.01160
H          6.92830       -2.30520       -1.31870
H          5.13240       -3.57810       -2.48920
H          2.77270       -2.83440       -2.33190
