rmsd25.gzmat
 OpenBabel08211713413D

 31 33  0  0  0  0  0  0  0  0999 V2000
    0.0000    0.0000    0.0000 O   0  0  0  0  0  0  0  0  0  0  0  0
    1.4037    0.0000    0.0000 N   0  0  0  0  0  0  0  0  0  0  0  0
    1.7102    0.0000    0.9587 H   0  0  0  0  0  0  0  0  0  0  0  0
    1.8526   -0.9040   -0.9684 C   0  0  0  0  0  0  0  0  0  0  0  0
    0.7835   -1.3080   -1.7447 C   0  0  0  0  0  0  0  0  0  0  0  0
   -0.4211   -0.7498   -1.1545 C   0  0  0  0  0  0  0  0  0  0  0  0
   -1.5930   -0.7637   -1.3742 O   0  0  0  0  0  0  0  0  0  0  0  0
    0.8289   -2.1470   -2.9343 C   0  0  0  0  0  0  0  0  0  0  0  0
    1.7902   -2.8533   -3.1561 O   0  0  0  0  0  0  0  0  0  0  0  0
   -0.3254   -2.1502   -3.8653 C   0  0  0  0  0  0  0  0  0  0  0  0
   -0.7109   -3.3705   -4.4253 C   0  0  0  0  0  0  0  0  0  0  0  0
   -1.7867   -3.4167   -5.3085 C   0  0  0  0  0  0  0  0  0  0  0  0
   -2.4646   -2.2443   -5.6410 C   0  0  0  0  0  0  0  0  0  0  0  0
   -2.0649   -1.0246   -5.0968 C   0  0  0  0  0  0  0  0  0  0  0  0
   -0.9933   -0.9750   -4.2074 C   0  0  0  0  0  0  0  0  0  0  0  0
    3.2775   -1.1790   -1.0778 C   0  0  0  0  0  0  0  0  0  0  0  0
    3.7166   -2.4956   -1.2434 C   0  0  0  0  0  0  0  0  0  0  0  0
    5.0804   -2.7579   -1.3590 C   0  0  0  0  0  0  0  0  0  0  0  0
    5.9996   -1.7125   -1.3182 C   0  0  0  0  0  0  0  0  0  0  0  0
    5.5596   -0.3976   -1.1573 C   0  0  0  0  0  0  0  0  0  0  0  0
    4.2009   -0.1277   -1.0350 C   0  0  0  0  0  0  0  0  0  0  0  0
   -0.1641   -4.2801   -4.1707 H   0  0  0  0  0  0  0  0  0  0  0  0
   -2.0958   -4.3667   -5.7386 H   0  0  0  0  0  0  0  0  0  0  0  0
   -3.3088   -2.2815   -6.3276 H   0  0  0  0  0  0  0  0  0  0  0  0
   -2.5937   -0.1102   -5.3578 H   0  0  0  0  0  0  0  0  0  0  0  0
   -0.6854   -0.0209   -3.7805 H   0  0  0  0  0  0  0  0  0  0  0  0
    2.9955   -3.3173   -1.2985 H   0  0  0  0  0  0  0  0  0  0  0  0
    5.4221   -3.7832   -1.4952 H   0  0  0  0  0  0  0  0  0  0  0  0
    7.0648   -1.9202   -1.4179 H   0  0  0  0  0  0  0  0  0  0  0  0
    6.2811    0.4172   -1.1355 H   0  0  0  0  0  0  0  0  0  0  0  0
    3.8554    0.9008   -0.9244 H   0  0  0  0  0  0  0  0  0  0  0  0
  2  1  1  0  0  0  0
  2  3  1  0  0  0  0
  4  2  1  0  0  0  0
  5  6  1  0  0  0  0
  5  4  2  0  0  0  0
  6  1  1  0  0  0  0
  7  6  2  0  0  0  0
  8  5  1  0  0  0  0
  9  8  2  0  0  0  0
 10  8  1  0  0  0  0
 11 22  1  0  0  0  0
 11 10  2  0  0  0  0
 12 11  1  0  0  0  0
 13 12  2  0  0  0  0
 13 14  1  0  0  0  0
 14 15  2  0  0  0  0
 15 10  1  0  0  0  0
 15 26  1  0  0  0  0
 16 21  1  0  0  0  0
 16  4  1  0  0  0  0
 17 16  2  0  0  0  0
 18 19  2  0  0  0  0
 18 17  1  0  0  0  0
 19 20  1  0  0  0  0
 20 30  1  0  0  0  0
 20 21  2  0  0  0  0
 21 31  1  0  0  0  0
 23 12  1  0  0  0  0
 24 13  1  0  0  0  0
 25 14  1  0  0  0  0
 27 17  1  0  0  0  0
 28 18  1  0  0  0  0
 29 19  1  0  0  0  0
M  END
$$$$
