31
rmsd25.gzmat
O          0.00000        0.00000        0.00000
N          1.40370        0.00000        0.00000
H          1.71020        0.00000        0.95870
C          1.85260       -0.90400       -0.96840
C          0.78350       -1.30800       -1.74470
C         -0.42110       -0.74980       -1.15450
O         -1.59300       -0.76370       -1.37420
C          0.82890       -2.14700       -2.93430
O          1.79020       -2.85330       -3.15610
C         -0.32540       -2.15020       -3.86530
C         -0.71090       -3.37050       -4.42530
C         -1.78670       -3.41670       -5.30850
C         -2.46460       -2.24430       -5.64100
C         -2.06490       -1.02460       -5.09680
C         -0.99330       -0.97500       -4.20740
C          3.27750       -1.17900       -1.07780
C          3.71660       -2.49560       -1.24340
C          5.08040       -2.75790       -1.35900
C          5.99960       -1.71250       -1.31820
C          5.55960       -0.39760       -1.15730
C          4.20090       -0.12770       -1.03500
H         -0.16410       -4.28010       -4.17070
H         -2.09580       -4.36670       -5.73860
H         -3.30880       -2.28150       -6.32760
H         -2.59370       -0.11020       -5.35780
H         -0.68540       -0.02090       -3.78050
H          2.99550       -3.31730       -1.29850
H          5.42210       -3.78320       -1.49520
H          7.06480       -1.92020       -1.41790
H          6.28110        0.41720       -1.13550
H          3.85540        0.90080       -0.92440
