31
rmsd10.gzmat
O          0.00000        0.00000        0.00000
N          1.40280        0.00000        0.00000
H          1.70950        0.00000        0.95810
C          1.85520       -0.89800       -0.97050
C          0.78370       -1.31700       -1.73790
C         -0.42130       -0.75860       -1.14920
O         -1.59270       -0.76920       -1.36970
C          0.82430       -2.15630       -2.92490
O          1.86290       -2.65080       -3.30840
C         -0.44790       -2.44410       -3.63410
C         -0.79730       -3.78090       -3.83130
C         -1.98420       -4.09210       -4.48980
C         -2.80890       -3.07000       -4.95890
C         -2.44530       -1.73650       -4.77840
C         -1.26240       -1.41960       -4.11240
C          3.28120       -1.16830       -1.07940
C          3.72020       -2.47400       -1.31920
C          5.08350       -2.73370       -1.44030
C          6.00520       -1.69580       -1.32550
C          5.56690       -0.39270       -1.08460
C          4.20770       -0.12560       -0.96040
H         -0.14240       -4.57380       -3.47130
H         -2.26730       -5.13160       -4.63630
H         -3.74090       -3.31450       -5.46450
H         -3.08990       -0.94060       -5.14620
H         -0.98500       -0.37720       -3.95920
H          2.99850       -3.28870       -1.42540
H          5.42320       -3.74970       -1.63820
H          7.07080       -1.90020       -1.42770
H          6.29000        0.41670       -1.00060
H          3.86630        0.89610       -0.78840
