rmsd17.gzmat
 OpenBabel08211713413D

 31 33  0  0  0  0  0  0  0  0999 V2000
    0.0000    0.0000    0.0000 O   0  0  0  0  0  0  0  0  0  0  0  0
    1.4027    0.0000    0.0000 N   0  0  0  0  0  0  0  0  0  0  0  0
    1.7097    0.0000    0.9580 H   0  0  0  0  0  0  0  0  0  0  0  0
    1.8558   -0.8949   -0.9739 C   0  0  0  0  0  0  0  0  0  0  0  0
    0.7853   -1.3066   -1.7457 C   0  0  0  0  0  0  0  0  0  0  0  0
   -0.4204   -0.7515   -1.1537 C   0  0  0  0  0  0  0  0  0  0  0  0
   -1.5935   -0.7785   -1.3642 O   0  0  0  0  0  0  0  0  0  0  0  0
    0.8208   -2.0903   -2.9701 C   0  0  0  0  0  0  0  0  0  0  0  0
    1.8314   -2.6466   -3.3389 O   0  0  0  0  0  0  0  0  0  0  0  0
   -0.4270   -2.1667   -3.7733 C   0  0  0  0  0  0  0  0  0  0  0  0
   -0.4570   -1.5541   -5.0250 C   0  0  0  0  0  0  0  0  0  0  0  0
   -1.6195   -1.6145   -5.7904 C   0  0  0  0  0  0  0  0  0  0  0  0
   -2.7359   -2.2982   -5.3109 C   0  0  0  0  0  0  0  0  0  0  0  0
   -2.6944   -2.9214   -4.0647 C   0  0  0  0  0  0  0  0  0  0  0  0
   -1.5381   -2.8545   -3.2893 C   0  0  0  0  0  0  0  0  0  0  0  0
    3.2829   -1.1561   -1.0828 C   0  0  0  0  0  0  0  0  0  0  0  0
    4.2008   -0.1111   -0.9160 C   0  0  0  0  0  0  0  0  0  0  0  0
    5.5638   -0.3639   -1.0223 C   0  0  0  0  0  0  0  0  0  0  0  0
    6.0155   -1.6565   -1.2949 C   0  0  0  0  0  0  0  0  0  0  0  0
    5.1031   -2.6953   -1.4635 C   0  0  0  0  0  0  0  0  0  0  0  0
    3.7351   -2.4493   -1.3613 C   0  0  0  0  0  0  0  0  0  0  0  0
    0.4232   -1.0332   -5.4001 H   0  0  0  0  0  0  0  0  0  0  0  0
   -1.6551   -1.1274   -6.7619 H   0  0  0  0  0  0  0  0  0  0  0  0
   -3.6435   -2.3438   -5.9103 H   0  0  0  0  0  0  0  0  0  0  0  0
   -3.5673   -3.4516   -3.6896 H   0  0  0  0  0  0  0  0  0  0  0  0
   -1.5092   -3.3270   -2.3085 H   0  0  0  0  0  0  0  0  0  0  0  0
    3.8485    0.9026   -0.7196 H   0  0  0  0  0  0  0  0  0  0  0  0
    6.2787    0.4477   -0.8994 H   0  0  0  0  0  0  0  0  0  0  0  0
    7.0843   -1.8506   -1.3822 H   0  0  0  0  0  0  0  0  0  0  0  0
    5.4549   -3.7017   -1.6890 H   0  0  0  0  0  0  0  0  0  0  0  0
    3.0205   -3.2644   -1.5116 H   0  0  0  0  0  0  0  0  0  0  0  0
  1  2  1  0  0  0  0
  2  3  1  0  0  0  0
  4  2  1  0  0  0  0
  5  6  1  0  0  0  0
  5  4  2  0  0  0  0
  6  1  1  0  0  0  0
  7  6  2  0  0  0  0
  8  5  1  0  0  0  0
  9  8  2  0  0  0  0
 10 15  1  0  0  0  0
 10  8  1  0  0  0  0
 11 10  2  0  0  0  0
 12 13  2  0  0  0  0
 12 11  1  0  0  0  0
 13 14  1  0  0  0  0
 14 25  1  0  0  0  0
 14 15  2  0  0  0  0
 15 26  1  0  0  0  0
 16  4  1  0  0  0  0
 16 17  2  0  0  0  0
 17 27  1  0  0  0  0
 18 17  1  0  0  0  0
 18 28  1  0  0  0  0
 19 18  2  0  0  0  0
 20 21  2  0  0  0  0
 20 19  1  0  0  0  0
 21 16  1  0  0  0  0
 22 11  1  0  0  0  0
 23 12  1  0  0  0  0
 24 13  1  0  0  0  0
 29 19  1  0  0  0  0
 30 20  1  0  0  0  0
 31 21  1  0  0  0  0
M  END
$$$$
