rmsd108.gzmat
 OpenBabel08211713423D

 28 29  0  0  0  0  0  0  0  0999 V2000
    0.0000    0.0000    0.0000 C   0  0  0  0  0  0  0  0  0  0  0  0
    1.4896    0.0000    0.0000 C   0  0  0  0  0  0  0  0  0  0  0  0
    2.2357    0.0000    1.1141 C   0  0  0  0  0  0  0  0  0  0  0  0
    1.6741   -0.0322    2.5028 C   0  0  0  0  0  0  0  0  0  0  0  0
    1.7981   -1.3888    3.0650 N   0  0  0  0  0  0  0  0  0  0  0  0
    0.7481   -2.2469    3.1237 C   0  0  0  0  0  0  0  0  0  0  0  0
    0.9375   -3.6188    3.4655 C   0  0  0  0  0  0  0  0  0  0  0  0
    2.0595   -4.4059    3.7079 N   0  0  0  0  0  0  0  0  0  0  0  0
    1.6082   -5.6301    3.9729 C   0  0  0  0  0  0  0  0  0  0  0  0
    0.1923   -5.6975    3.9129 N   0  0  0  0  0  0  0  0  0  0  0  0
   -0.3920   -6.4891    4.0714 H   0  0  0  0  0  0  0  0  0  0  0  0
   -0.2442   -4.4222    3.5902 C   0  0  0  0  0  0  0  0  0  0  0  0
   -1.5099   -3.9660    3.4047 N   0  0  0  0  0  0  0  0  0  0  0  0
   -1.5713   -2.6590    3.0800 C   0  0  0  0  0  0  0  0  0  0  0  0
   -0.5307   -1.8027    2.9240 N   0  0  0  0  0  0  0  0  0  0  0  0
    2.1254    0.0059   -1.3518 C   0  0  0  0  0  0  0  0  0  0  0  0
   -0.4314   -0.2311   -0.9806 H   0  0  0  0  0  0  0  0  0  0  0  0
   -0.3984    0.9765    0.3094 H   0  0  0  0  0  0  0  0  0  0  0  0
   -0.4083   -0.7429    0.7090 H   0  0  0  0  0  0  0  0  0  0  0  0
    3.3208    0.0070    1.0660 H   0  0  0  0  0  0  0  0  0  0  0  0
    0.6072    0.3004    2.5366 H   0  0  0  0  0  0  0  0  0  0  0  0
    2.2346    0.6616    3.1752 H   0  0  0  0  0  0  0  0  0  0  0  0
    2.7331   -1.7882    3.0905 H   0  0  0  0  0  0  0  0  0  0  0  0
    2.2106   -6.4933    4.2076 H   0  0  0  0  0  0  0  0  0  0  0  0
   -2.5766   -2.2320    2.9162 H   0  0  0  0  0  0  0  0  0  0  0  0
    1.7937    0.8702   -1.9436 H   0  0  0  0  0  0  0  0  0  0  0  0
    1.8530   -0.8984   -1.9170 H   0  0  0  0  0  0  0  0  0  0  0  0
    3.2217    0.0401   -1.3117 H   0  0  0  0  0  0  0  0  0  0  0  0
  1  2  1  0  0  0  0
  1 18  1  0  0  0  0
  1 19  1  0  0  0  0
  2  3  2  0  0  0  0
  3  4  1  0  0  0  0
  4 21  1  0  0  0  0
  4  5  1  0  0  0  0
  4 22  1  0  0  0  0
  5 23  1  0  0  0  0
  5  6  1  0  0  0  0
  6  7  1  0  0  0  0
  7 12  1  0  0  0  0
  7  8  2  0  0  0  0
  8  9  2  0  0  0  0
  9 24  1  0  0  0  0
 10  9  1  0  0  0  0
 10 11  1  0  0  0  0
 12 10  1  0  0  0  0
 13 12  2  0  0  0  0
 14 13  2  0  0  0  0
 15 14  2  0  0  0  0
 15  6  2  0  0  0  0
 16 28  1  0  0  0  0
 16  2  1  0  0  0  0
 17  1  1  0  0  0  0
 20  3  1  0  0  0  0
 25 14  1  0  0  0  0
 26 16  1  0  0  0  0
 27 16  1  0  0  0  0
M  END
$$$$
