rmsd126.gzmat
 OpenBabel08211713423D

 28 29  0  0  0  0  0  0  0  0999 V2000
    0.0000    0.0000    0.0000 C   0  0  0  0  0  0  0  0  0  0  0  0
    1.4892    0.0000    0.0000 C   0  0  0  0  0  0  0  0  0  0  0  0
    2.2400    0.0000    1.1115 C   0  0  0  0  0  0  0  0  0  0  0  0
    1.6845    0.0285    2.5022 C   0  0  0  0  0  0  0  0  0  0  0  0
    1.1387   -1.2906    2.8661 N   0  0  0  0  0  0  0  0  0  0  0  0
   -0.1716   -1.4802    3.1511 C   0  0  0  0  0  0  0  0  0  0  0  0
   -0.7081   -2.7881    3.3393 C   0  0  0  0  0  0  0  0  0  0  0  0
   -0.1828   -4.0721    3.2267 N   0  0  0  0  0  0  0  0  0  0  0  0
   -1.1733   -4.9096    3.5263 C   0  0  0  0  0  0  0  0  0  0  0  0
   -2.3733   -4.2209    3.8412 N   0  0  0  0  0  0  0  0  0  0  0  0
   -3.2543   -4.6086    4.0996 H   0  0  0  0  0  0  0  0  0  0  0  0
   -2.0879   -2.8692    3.7240 C   0  0  0  0  0  0  0  0  0  0  0  0
   -2.9018   -1.7982    3.9090 N   0  0  0  0  0  0  0  0  0  0  0  0
   -2.2949   -0.6133    3.6922 C   0  0  0  0  0  0  0  0  0  0  0  0
   -1.0070   -0.4078    3.3223 N   0  0  0  0  0  0  0  0  0  0  0  0
    2.1203   -0.0201   -1.3545 C   0  0  0  0  0  0  0  0  0  0  0  0
   -0.3900   -1.0304   -0.0101 H   0  0  0  0  0  0  0  0  0  0  0  0
   -0.4227    0.5161   -0.8716 H   0  0  0  0  0  0  0  0  0  0  0  0
   -0.4259    0.4836    0.8966 H   0  0  0  0  0  0  0  0  0  0  0  0
    3.3246   -0.0141    1.0579 H   0  0  0  0  0  0  0  0  0  0  0  0
    0.9003    0.8217    2.6097 H   0  0  0  0  0  0  0  0  0  0  0  0
    2.4749    0.2803    3.2503 H   0  0  0  0  0  0  0  0  0  0  0  0
    1.7021   -2.1025    2.6295 H   0  0  0  0  0  0  0  0  0  0  0  0
   -1.1138   -5.9865    3.5393 H   0  0  0  0  0  0  0  0  0  0  0  0
   -2.9091    0.2949    3.8248 H   0  0  0  0  0  0  0  0  0  0  0  0
    1.8955    0.9035   -1.9080 H   0  0  0  0  0  0  0  0  0  0  0  0
    1.7440   -0.8589   -1.9581 H   0  0  0  0  0  0  0  0  0  0  0  0
    3.2136   -0.1139   -1.3183 H   0  0  0  0  0  0  0  0  0  0  0  0
  1  2  1  0  0  0  0
  1 19  1  0  0  0  0
  2  3  2  0  0  0  0
  3  4  1  0  0  0  0
  4 21  1  0  0  0  0
  4  5  1  0  0  0  0
  4 22  1  0  0  0  0
  5  6  1  0  0  0  0
  6 15  2  0  0  0  0
  6  7  1  0  0  0  0
  7 12  1  0  0  0  0
  8  7  2  0  0  0  0
  8  9  2  0  0  0  0
  9 24  1  0  0  0  0
  9 10  1  0  0  0  0
 10 11  1  0  0  0  0
 12 10  1  0  0  0  0
 12 13  2  0  0  0  0
 14 25  1  0  0  0  0
 14 13  2  0  0  0  0
 15 14  2  0  0  0  0
 16 28  1  0  0  0  0
 16  2  1  0  0  0  0
 17  1  1  0  0  0  0
 18  1  1  0  0  0  0
 20  3  1  0  0  0  0
 23  5  1  0  0  0  0
 26 16  1  0  0  0  0
 27 16  1  0  0  0  0
M  END
$$$$
