28
rmsd126.gzmat
C          0.00000        0.00000        0.00000
C          1.48920        0.00000        0.00000
C          2.24000        0.00000        1.11150
C          1.68450        0.02850        2.50220
N          1.13870       -1.29060        2.86610
C         -0.17160       -1.48020        3.15110
C         -0.70810       -2.78810        3.33930
N         -0.18280       -4.07210        3.22670
C         -1.17330       -4.90960        3.52630
N         -2.37330       -4.22090        3.84120
H         -3.25430       -4.60860        4.09960
C         -2.08790       -2.86920        3.72400
N         -2.90180       -1.79820        3.90900
C         -2.29490       -0.61330        3.69220
N         -1.00700       -0.40780        3.32230
C          2.12030       -0.02010       -1.35450
H         -0.39000       -1.03040       -0.01010
H         -0.42270        0.51610       -0.87160
H         -0.42590        0.48360        0.89660
H          3.32460       -0.01410        1.05790
H          0.90030        0.82170        2.60970
H          2.47490        0.28030        3.25030
H          1.70210       -2.10250        2.62950
H         -1.11380       -5.98650        3.53930
H         -2.90910        0.29490        3.82480
H          1.89550        0.90350       -1.90800
H          1.74400       -0.85890       -1.95810
H          3.21360       -0.11390       -1.31830
