28
rmsd136.gzmat
C          0.00000        0.00000        0.00000
C          1.48990        0.00000        0.00000
C          2.23690        0.00000        1.11370
C          1.67570       -0.01020        2.50270
N          1.89490       -1.31920        3.14140
C          0.93220       -2.27500        3.17720
C          1.21310       -3.58530        3.66590
N          2.37110       -4.22650        4.09600
C          2.00900       -5.45860        4.44700
N          0.61900       -5.67530        4.26360
H          0.09660       -6.50400        4.44770
C          0.10350       -4.48960        3.76330
N         -1.17230       -4.18620        3.41070
C         -1.32080       -2.92800        2.94980
N         -0.35540       -1.98460        2.81410
C          2.12810        0.00990       -1.35130
H         -0.40370       -0.74910        0.70790
H         -0.43160       -0.23010       -0.98090
H         -0.40130        0.97460        0.31090
H          3.32260       -0.00100        1.06500
H          0.58570        0.23970        2.51950
H          2.17960        0.75950        3.13720
H          2.85840       -1.61350        3.27180
H          2.66140       -6.22790        4.82920
H         -2.33730       -2.62510        2.64270
H          1.83360        0.90200       -1.92210
H          1.82080       -0.86810       -1.93910
H          3.22460       -0.00170       -1.30810
