rmsd127.gzmat
 OpenBabel08211713423D

 28 29  0  0  0  0  0  0  0  0999 V2000
    0.0000    0.0000    0.0000 C   0  0  0  0  0  0  0  0  0  0  0  0
    1.4898    0.0000    0.0000 C   0  0  0  0  0  0  0  0  0  0  0  0
    2.2363    0.0000    1.1138 C   0  0  0  0  0  0  0  0  0  0  0  0
    1.6739   -0.0167    2.5023 C   0  0  0  0  0  0  0  0  0  0  0  0
    1.8024   -1.3632    3.0858 N   0  0  0  0  0  0  0  0  0  0  0  0
    0.7499   -2.2143    3.1799 C   0  0  0  0  0  0  0  0  0  0  0  0
    0.9375   -3.5754    3.5627 C   0  0  0  0  0  0  0  0  0  0  0  0
    2.0586   -4.3592    3.8194 N   0  0  0  0  0  0  0  0  0  0  0  0
    1.6043   -5.5700    4.1356 C   0  0  0  0  0  0  0  0  0  0  0  0
    0.1873   -5.6314    4.0985 N   0  0  0  0  0  0  0  0  0  0  0  0
   -0.3990   -6.4137    4.2921 H   0  0  0  0  0  0  0  0  0  0  0  0
   -0.2469   -4.3664    3.7338 C   0  0  0  0  0  0  0  0  0  0  0  0
   -1.5125   -3.9094    3.5527 N   0  0  0  0  0  0  0  0  0  0  0  0
   -1.5721   -2.6145    3.1812 C   0  0  0  0  0  0  0  0  0  0  0  0
   -0.5296   -1.7700    2.9808 N   0  0  0  0  0  0  0  0  0  0  0  0
    2.1252    0.0099   -1.3522 C   0  0  0  0  0  0  0  0  0  0  0  0
   -0.4106   -0.7126    0.7389 H   0  0  0  0  0  0  0  0  0  0  0  0
   -0.4284   -0.2717   -0.9719 H   0  0  0  0  0  0  0  0  0  0  0  0
   -0.3988    0.9897    0.2667 H   0  0  0  0  0  0  0  0  0  0  0  0
    3.3214    0.0003    1.0658 H   0  0  0  0  0  0  0  0  0  0  0  0
    0.6056    0.3123    2.5303 H   0  0  0  0  0  0  0  0  0  0  0  0
    2.2298    0.6905    3.1648 H   0  0  0  0  0  0  0  0  0  0  0  0
    2.7368   -1.7640    3.1114 H   0  0  0  0  0  0  0  0  0  0  0  0
    2.2064   -6.4269    4.3938 H   0  0  0  0  0  0  0  0  0  0  0  0
   -2.5775   -2.1880    3.0163 H   0  0  0  0  0  0  0  0  0  0  0  0
    1.7789    0.8659   -1.9487 H   0  0  0  0  0  0  0  0  0  0  0  0
    1.8687   -0.9019   -1.9131 H   0  0  0  0  0  0  0  0  0  0  0  0
    3.2208    0.0649   -1.3124 H   0  0  0  0  0  0  0  0  0  0  0  0
  1  2  1  0  0  0  0
  1 19  1  0  0  0  0
  1 17  1  0  0  0  0
  2  3  2  0  0  0  0
  3  4  1  0  0  0  0
  4 21  1  0  0  0  0
  4  5  1  0  0  0  0
  4 22  1  0  0  0  0
  5 23  1  0  0  0  0
  5  6  1  0  0  0  0
  6  7  1  0  0  0  0
  7 12  1  0  0  0  0
  7  8  2  0  0  0  0
  8  9  2  0  0  0  0
  9 24  1  0  0  0  0
 10  9  1  0  0  0  0
 10 11  1  0  0  0  0
 12 10  1  0  0  0  0
 13 12  2  0  0  0  0
 14 13  2  0  0  0  0
 15  6  2  0  0  0  0
 15 14  2  0  0  0  0
 16 28  1  0  0  0  0
 16  2  1  0  0  0  0
 18  1  1  0  0  0  0
 20  3  1  0  0  0  0
 25 14  1  0  0  0  0
 26 16  1  0  0  0  0
 27 16  1  0  0  0  0
M  END
$$$$
