rmsd136.gzmat
 OpenBabel08211713423D

 28 29  0  0  0  0  0  0  0  0999 V2000
    0.0000    0.0000    0.0000 C   0  0  0  0  0  0  0  0  0  0  0  0
    1.4899    0.0000    0.0000 C   0  0  0  0  0  0  0  0  0  0  0  0
    2.2369    0.0000    1.1137 C   0  0  0  0  0  0  0  0  0  0  0  0
    1.6757   -0.0102    2.5027 C   0  0  0  0  0  0  0  0  0  0  0  0
    1.8949   -1.3192    3.1414 N   0  0  0  0  0  0  0  0  0  0  0  0
    0.9322   -2.2750    3.1772 C   0  0  0  0  0  0  0  0  0  0  0  0
    1.2131   -3.5853    3.6659 C   0  0  0  0  0  0  0  0  0  0  0  0
    2.3711   -4.2265    4.0960 N   0  0  0  0  0  0  0  0  0  0  0  0
    2.0090   -5.4586    4.4470 C   0  0  0  0  0  0  0  0  0  0  0  0
    0.6190   -5.6753    4.2636 N   0  0  0  0  0  0  0  0  0  0  0  0
    0.0966   -6.5040    4.4477 H   0  0  0  0  0  0  0  0  0  0  0  0
    0.1035   -4.4896    3.7633 C   0  0  0  0  0  0  0  0  0  0  0  0
   -1.1723   -4.1862    3.4107 N   0  0  0  0  0  0  0  0  0  0  0  0
   -1.3208   -2.9280    2.9498 C   0  0  0  0  0  0  0  0  0  0  0  0
   -0.3554   -1.9846    2.8141 N   0  0  0  0  0  0  0  0  0  0  0  0
    2.1281    0.0099   -1.3513 C   0  0  0  0  0  0  0  0  0  0  0  0
   -0.4037   -0.7491    0.7079 H   0  0  0  0  0  0  0  0  0  0  0  0
   -0.4316   -0.2301   -0.9809 H   0  0  0  0  0  0  0  0  0  0  0  0
   -0.4013    0.9746    0.3109 H   0  0  0  0  0  0  0  0  0  0  0  0
    3.3226   -0.0010    1.0650 H   0  0  0  0  0  0  0  0  0  0  0  0
    0.5857    0.2397    2.5195 H   0  0  0  0  0  0  0  0  0  0  0  0
    2.1796    0.7595    3.1372 H   0  0  0  0  0  0  0  0  0  0  0  0
    2.8584   -1.6135    3.2718 H   0  0  0  0  0  0  0  0  0  0  0  0
    2.6614   -6.2279    4.8292 H   0  0  0  0  0  0  0  0  0  0  0  0
   -2.3373   -2.6251    2.6427 H   0  0  0  0  0  0  0  0  0  0  0  0
    1.8336    0.9020   -1.9221 H   0  0  0  0  0  0  0  0  0  0  0  0
    1.8208   -0.8681   -1.9391 H   0  0  0  0  0  0  0  0  0  0  0  0
    3.2246   -0.0017   -1.3081 H   0  0  0  0  0  0  0  0  0  0  0  0
  1  2  1  0  0  0  0
  1 19  1  0  0  0  0
  1 17  1  0  0  0  0
  2  3  2  0  0  0  0
  3  4  1  0  0  0  0
  4 21  1  0  0  0  0
  4 22  1  0  0  0  0
  4  5  1  0  0  0  0
  5  6  1  0  0  0  0
  5 23  1  0  0  0  0
  6  7  1  0  0  0  0
  7 12  1  0  0  0  0
  7  8  2  0  0  0  0
  8  9  2  0  0  0  0
  9 24  1  0  0  0  0
 10  9  1  0  0  0  0
 10 11  1  0  0  0  0
 12 10  1  0  0  0  0
 13 12  2  0  0  0  0
 14 13  2  0  0  0  0
 15 14  2  0  0  0  0
 15  6  2  0  0  0  0
 16 28  1  0  0  0  0
 16  2  1  0  0  0  0
 18  1  1  0  0  0  0
 20  3  1  0  0  0  0
 25 14  1  0  0  0  0
 26 16  1  0  0  0  0
 27 16  1  0  0  0  0
M  END
$$$$
