rmsd157.gzmat
 OpenBabel08211713423D

 28 29  0  0  0  0  0  0  0  0999 V2000
    0.0000    0.0000    0.0000 C   0  0  0  0  0  0  0  0  0  0  0  0
    1.4900    0.0000    0.0000 C   0  0  0  0  0  0  0  0  0  0  0  0
    2.2368    0.0000    1.1135 C   0  0  0  0  0  0  0  0  0  0  0  0
    1.6784    0.0143    2.5040 C   0  0  0  0  0  0  0  0  0  0  0  0
    1.9328    1.3143    3.1473 N   0  0  0  0  0  0  0  0  0  0  0  0
    1.0095    2.3095    3.1545 C   0  0  0  0  0  0  0  0  0  0  0  0
    1.3481    3.6175    3.6120 C   0  0  0  0  0  0  0  0  0  0  0  0
    2.5330    4.2157    4.0309 N   0  0  0  0  0  0  0  0  0  0  0  0
    2.2280    5.4736    4.3420 C   0  0  0  0  0  0  0  0  0  0  0  0
    0.8511    5.7509    4.1394 N   0  0  0  0  0  0  0  0  0  0  0  0
    0.3686    6.6092    4.2932 H   0  0  0  0  0  0  0  0  0  0  0  0
    0.2823    4.5753    3.6740 C   0  0  0  0  0  0  0  0  0  0  0  0
   -1.0049    4.3201    3.3241 N   0  0  0  0  0  0  0  0  0  0  0  0
   -1.2099    3.0572    2.8989 C   0  0  0  0  0  0  0  0  0  0  0  0
   -0.2881    2.0669    2.7933 N   0  0  0  0  0  0  0  0  0  0  0  0
    2.1274   -0.0144   -1.3519 C   0  0  0  0  0  0  0  0  0  0  0  0
   -0.3975   -1.0028    0.2093 H   0  0  0  0  0  0  0  0  0  0  0  0
   -0.4275    0.3284   -0.9547 H   0  0  0  0  0  0  0  0  0  0  0  0
   -0.4100    0.6757    0.7751 H   0  0  0  0  0  0  0  0  0  0  0  0
    3.3224    0.0037    1.0645 H   0  0  0  0  0  0  0  0  0  0  0  0
    2.1656   -0.7705    3.1327 H   0  0  0  0  0  0  0  0  0  0  0  0
    0.5827   -0.2081    2.5249 H   0  0  0  0  0  0  0  0  0  0  0  0
    2.9054    1.5752    3.2889 H   0  0  0  0  0  0  0  0  0  0  0  0
    2.9134    6.2226    4.7066 H   0  0  0  0  0  0  0  0  0  0  0  0
   -2.2396    2.7942    2.5975 H   0  0  0  0  0  0  0  0  0  0  0  0
    1.7981    0.8458   -1.9539 H   0  0  0  0  0  0  0  0  0  0  0  0
    1.8573   -0.9234   -1.9074 H   0  0  0  0  0  0  0  0  0  0  0  0
    3.2237    0.0243   -1.3103 H   0  0  0  0  0  0  0  0  0  0  0  0
  1  2  1  0  0  0  0
  1 17  1  0  0  0  0
  1 19  1  0  0  0  0
  2  3  2  0  0  0  0
  3  4  1  0  0  0  0
  4 22  1  0  0  0  0
  4 21  1  0  0  0  0
  4  5  1  0  0  0  0
  5  6  1  0  0  0  0
  5 23  1  0  0  0  0
  6  7  1  0  0  0  0
  7 12  1  0  0  0  0
  7  8  2  0  0  0  0
  8  9  2  0  0  0  0
  9 24  1  0  0  0  0
 10 11  1  0  0  0  0
 10  9  1  0  0  0  0
 12 10  1  0  0  0  0
 13 12  2  0  0  0  0
 14 13  2  0  0  0  0
 15 14  2  0  0  0  0
 15  6  2  0  0  0  0
 16 28  1  0  0  0  0
 16  2  1  0  0  0  0
 18  1  1  0  0  0  0
 20  3  1  0  0  0  0
 25 14  1  0  0  0  0
 26 16  1  0  0  0  0
 27 16  1  0  0  0  0
M  END
$$$$
