28
rmsd142.gzmat
C          0.00000        0.00000        0.00000
C          1.49000        0.00000        0.00000
C          2.23290        0.00000        1.11600
C          1.66710        0.01190        2.50340
N          1.91950        1.31200        3.14780
C          0.98710        2.29890        3.16370
C          1.31630        3.61280        3.61010
N          2.50050        4.22920        4.00500
C          2.18310        5.48320        4.31970
N          0.79870        5.73960        4.14550
H          0.30530        6.58930        4.31240
C          0.23830        4.55520        3.69290
N         -1.05190        4.28090        3.37050
C         -1.24670        3.01530        2.94860
N         -0.31270        2.03910        2.82400
C          2.12980       -0.00470       -1.35040
H         -0.40210       -0.94280        0.39690
H         -0.43120        0.14140       -0.99750
H         -0.40140        0.80870        0.64050
H          3.31810        0.00270        1.07230
H          2.14890       -0.77490        3.13350
H          0.57080       -0.20880        2.51780
H          2.89180        1.58130        3.27460
H          2.86530        6.24340        4.66600
H         -2.27770        2.73620        2.66750
H          1.80870        0.86590       -1.94190
H          1.85210       -0.90440       -1.91770
H          3.22620        0.02430       -1.30680
