rmsd151.gzmat
 OpenBabel08211713393D

 46 48  0  0  1  0  0  0  0  0999 V2000
    0.0000    0.0000    0.0000 N   0  0  0  0  0  0  0  0  0  0  0  0
    1.4112    0.0000    0.0000 C   0  0  0  0  0  0  0  0  0  0  0  0
    2.1037    0.0000    0.9842 O   0  0  0  0  0  0  0  0  0  0  0  0
    1.8424   -0.0132   -1.4290 C   0  0  0  0  0  0  0  0  0  0  0  0
    0.7651   -0.0033   -2.2389 C   0  0  0  0  0  0  0  0  0  0  0  0
   -0.5141    0.0239   -1.3971 C   0  0  2  0  0  0  0  0  0  0  0  0
   -1.1076   -0.9139   -1.5771 H   0  0  0  0  0  0  0  0  0  0  0  0
   -1.3202    1.2573   -1.7111 C   0  0  0  0  0  0  0  0  0  0  0  0
   -0.9544    2.5022   -1.1985 C   0  0  0  0  0  0  0  0  0  0  0  0
   -1.7197    3.6273   -1.4949 C   0  0  0  0  0  0  0  0  0  0  0  0
   -2.8434    3.5123   -2.3113 C   0  0  0  0  0  0  0  0  0  0  0  0
   -3.2014    2.2700   -2.8327 C   0  0  0  0  0  0  0  0  0  0  0  0
   -2.4423    1.1412   -2.5338 C   0  0  0  0  0  0  0  0  0  0  0  0
    0.7007   -0.0360   -3.7036 C   0  0  0  0  0  0  0  0  0  0  0  0
    3.2776   -0.0404   -1.7581 C   0  0  0  0  0  0  0  0  0  0  0  0
    3.6461   -1.3095   -2.4797 C   0  0  0  0  0  0  0  0  0  0  0  0
    2.9385   -2.0290   -3.1352 O   0  0  0  0  0  0  0  0  0  0  0  0
    4.9729   -1.5318   -2.3173 O   0  0  0  0  0  0  0  0  0  0  0  0
    5.5186   -2.7292   -2.8756 C   0  0  0  0  0  0  0  0  0  0  0  0
    5.1599   -3.9137   -1.9953 C   0  0  0  0  0  0  0  0  0  0  0  0
   -0.8581    0.0635    1.1112 C   0  0  0  0  0  0  0  0  0  0  0  0
   -2.2471   -0.0643    0.9335 C   0  0  0  0  0  0  0  0  0  0  0  0
   -3.0945    0.0041    2.0340 C   0  0  0  0  0  0  0  0  0  0  0  0
   -2.5804    0.1913    3.3150 C   0  0  0  0  0  0  0  0  0  0  0  0
   -1.2030    0.3122    3.4908 C   0  0  0  0  0  0  0  0  0  0  0  0
   -0.3392    0.2508    2.4036 C   0  0  0  0  0  0  0  0  0  0  0  0
   -0.0768    2.5937   -0.5575 H   0  0  0  0  0  0  0  0  0  0  0  0
   -1.4409    4.5963   -1.0834 H   0  0  0  0  0  0  0  0  0  0  0  0
   -3.4419    4.3918   -2.5400 H   0  0  0  0  0  0  0  0  0  0  0  0
   -4.0786    2.1808   -3.4704 H   0  0  0  0  0  0  0  0  0  0  0  0
   -2.7302    0.1736   -2.9408 H   0  0  0  0  0  0  0  0  0  0  0  0
   -0.3034    0.1684   -4.1017 H   0  0  0  0  0  0  0  0  0  0  0  0
    1.0133   -1.0317   -4.0855 H   0  0  0  0  0  0  0  0  0  0  0  0
    1.3880    0.6915   -4.1653 H   0  0  0  0  0  0  0  0  0  0  0  0
    3.8997    0.0629   -0.8290 H   0  0  0  0  0  0  0  0  0  0  0  0
    3.5657    0.8336   -2.3894 H   0  0  0  0  0  0  0  0  0  0  0  0
    6.6010   -2.5000   -2.8685 H   0  0  0  0  0  0  0  0  0  0  0  0
    5.1639   -2.8501   -3.9145 H   0  0  0  0  0  0  0  0  0  0  0  0
    5.4102   -3.7202   -0.9438 H   0  0  0  0  0  0  0  0  0  0  0  0
    5.6886   -4.8211   -2.3058 H   0  0  0  0  0  0  0  0  0  0  0  0
    4.0815   -4.1270   -2.0375 H   0  0  0  0  0  0  0  0  0  0  0  0
   -2.6738   -0.2075   -0.0546 H   0  0  0  0  0  0  0  0  0  0  0  0
   -4.1694   -0.0909    1.8885 H   0  0  0  0  0  0  0  0  0  0  0  0
   -3.2478    0.2423    4.1701 H   0  0  0  0  0  0  0  0  0  0  0  0
   -0.7942    0.4560    4.4908 H   0  0  0  0  0  0  0  0  0  0  0  0
    0.7357    0.3461    2.5672 H   0  0  0  0  0  0  0  0  0  0  0  0
  1  2  1  0  0  0  0
  1 21  1  0  0  0  0
  2  3  2  0  0  0  0
  4  2  1  0  0  0  0
  5  4  2  0  0  0  0
  5  6  1  0  0  0  0
  6  7  1  6  0  0  0
  6  1  1  0  0  0  0
  8  6  1  0  0  0  0
  8  9  2  0  0  0  0
  9 27  1  0  0  0  0
 10  9  1  0  0  0  0
 10 28  1  0  0  0  0
 11 10  2  0  0  0  0
 12 13  2  0  0  0  0
 12 11  1  0  0  0  0
 13  8  1  0  0  0  0
 14  5  1  0  0  0  0
 15  4  1  0  0  0  0
 15 35  1  0  0  0  0
 16 18  1  0  0  0  0
 16 15  1  0  0  0  0
 17 16  2  0  0  0  0
 19 37  1  0  0  0  0
 19 18  1  0  0  0  0
 19 20  1  0  0  0  0
 20 39  1  0  0  0  0
 21 26  1  0  0  0  0
 22 21  2  0  0  0  0
 22 23  1  0  0  0  0
 23 24  2  0  0  0  0
 24 25  1  0  0  0  0
 24 44  1  0  0  0  0
 25 45  1  0  0  0  0
 26 46  1  0  0  0  0
 26 25  2  0  0  0  0
 29 11  1  0  0  0  0
 30 12  1  0  0  0  0
 31 13  1  0  0  0  0
 32 14  1  0  0  0  0
 33 14  1  0  0  0  0
 34 14  1  0  0  0  0
 36 15  1  0  0  0  0
 38 19  1  0  0  0  0
 40 20  1  0  0  0  0
 41 20  1  0  0  0  0
 42 22  1  0  0  0  0
 43 23  1  0  0  0  0
M  END
$$$$
