46
rmsd64.gzmat
N          0.00000        0.00000        0.00000
C          1.41220        0.00000        0.00000
O          2.10230        0.00000        0.98520
C          1.83940       -0.00900       -1.43030
C          0.76070        0.01910       -2.23860
C         -0.51650        0.04210       -1.39500
H         -1.11530       -0.89010       -1.58660
C         -1.31530        1.28370       -1.69400
C         -0.91890        2.52610       -1.19870
C         -1.66540        3.66290       -1.49870
C         -2.80260        3.56080       -2.29820
C         -3.19660        2.31900       -2.79390
C         -2.45650        1.17880       -2.49060
C          0.69740        0.01070       -3.70310
C          3.27190       -0.06480       -1.77370
C          3.58840       -1.42350       -2.34710
O          3.11510       -1.92680       -3.33400
O          4.51410       -2.03230       -1.57520
C          4.90570       -3.36080       -1.93030
C          5.88010       -3.32130       -3.09470
C         -0.85920        0.03220        1.11160
C         -0.34600        0.23060        2.40410
C         -1.21170        0.25880        3.49090
C         -2.58450        0.09490        3.31400
C         -3.09220       -0.10390        2.03250
C         -2.24290       -0.13870        0.93200
H         -0.03230        2.60620       -0.56900
H         -1.36050        4.63090       -1.10430
H         -3.38520        4.44960       -2.53220
H         -4.08570        2.23920       -3.41600
H         -2.77440        0.21130       -2.87440
H         -0.32680        0.06180       -4.09760
H          1.16720       -0.90810       -4.11600
H          1.25650        0.85380       -4.14340
H          3.90650        0.14250       -0.87290
H          3.54420        0.71700       -2.52010
H          4.00630       -3.96380       -2.15040
H          5.37290       -3.70730       -0.98860
H          5.38970       -2.95120       -4.00680
H          6.27910       -4.31710       -3.31720
H          6.72830       -2.65750       -2.88660
H          0.72530        0.36140        2.56650
H         -0.80790        0.41270        4.49110
H         -3.25350        0.12190        4.16900
H         -4.16370       -0.23290        1.88640
H         -2.66370       -0.28990       -0.05700
