46
rmsd203.gzmat
N          0.00000        0.00000        0.00000
C          1.41210        0.00000        0.00000
O          2.10270        0.00000        0.98480
C          1.84040       -0.01570       -1.42930
C          0.76220        0.00830       -2.23840
C         -0.51550        0.03580       -1.39620
H         -1.11230       -0.89890       -1.58270
C         -1.31780        1.27400       -1.69990
C         -0.91640        2.52140       -1.22160
C         -1.67590        3.65280       -1.50970
C         -2.82980        3.54080       -2.28350
C         -3.22540        2.29500       -2.76800
C         -2.47260        1.16010       -2.47610
C          0.70260       -0.01170       -3.70300
C          3.27280       -0.07400       -1.77210
C          3.59550       -1.43610       -2.33310
O          3.03960       -2.00810       -3.23560
O          4.65770       -1.95110       -1.67520
C          5.02440       -3.30260       -1.96740
C          4.07650       -4.24610       -1.24610
C         -0.85790        0.06390        1.11140
C         -2.24570       -0.07960        0.93520
C         -3.09380       -0.00650        2.03470
C         -2.58140        0.19930        3.31310
C         -1.20440        0.32740        3.48820
C         -0.33990        0.26460        2.40160
H         -0.01550        2.60990       -0.61360
H         -1.36920        4.62420       -1.12530
H         -3.42320        4.42520       -2.50690
H         -4.12680        2.20790       -3.37140
H         -2.79250        0.18980       -2.85160
H         -0.31520        0.09570       -4.10230
H          1.11840       -0.96260       -4.10080
H          1.31350        0.79020       -4.15100
H          3.90640        0.14030       -0.87220
H          3.54610        0.70350       -2.52220
H          6.05590       -3.34070       -1.56910
H          5.03180       -3.46180       -3.06040
H          4.00140       -3.99560       -0.17880
H          4.40580       -5.28720       -1.32630
H          3.06160       -4.18530       -1.66450
H         -2.67100       -0.24050       -0.05040
H         -4.16810       -0.11160        1.89000
H         -3.24940        0.25780        4.16720
H         -0.79660        0.47950        4.48740
H          0.73440        0.37050        2.56330
