46
rmsd39.gzmat
N          0.00000        0.00000        0.00000
C          1.41120        0.00000        0.00000
O          2.10220        0.00000        0.98500
C          1.83960       -0.01050       -1.42990
C          0.76120        0.00350       -2.23860
C         -0.51650        0.01950       -1.39610
H         -1.10070       -0.92390       -1.57840
C         -1.33300        1.24770       -1.70190
C         -0.92330        2.50430       -1.25490
C         -1.69150        3.62890       -1.54520
C         -2.86490        3.50030       -2.28620
C         -3.27000        2.24530       -2.73740
C         -2.50610        1.11770       -2.44590
C          0.69560       -0.00880       -3.70360
C          3.27270       -0.04900       -1.76830
C          3.63270       -1.38880       -2.35760
O          2.97220       -2.07280       -3.09580
O          4.87410       -1.73180       -1.94280
C          5.39380       -2.99360       -2.36680
C          5.80770       -2.93290       -3.82700
C         -0.85840        0.05160        1.11150
C         -0.34770        0.31380        2.39360
C         -1.21180        0.36090        3.48140
C         -2.58040        0.15570        3.31460
C         -3.08590       -0.10440        2.04290
C         -2.23790       -0.16110        0.94230
H         -0.00910        2.60460       -0.66920
H         -1.37560        4.60810       -1.18920
H         -3.46630        4.37920       -2.50980
H         -4.18750        2.14500       -3.31400
H         -2.83230        0.14030       -2.79610
H         -0.33140        0.02020       -4.09500
H          1.17950       -0.92110       -4.11230
H          1.23270        0.84750       -4.14380
H          3.90210        0.15910       -0.86290
H          3.54110        0.74990       -2.49850
H          4.64220       -3.78000       -2.17230
H          6.25530       -3.11150       -1.68170
H          4.92960       -2.84620       -4.48380
H          6.35370       -3.83470       -4.12550
H          6.45300       -2.06900       -4.02680
H          0.72020        0.47840        2.54700
H         -0.81000        0.56170        4.47420
H         -3.24810        0.19760        4.17000
H         -4.15410       -0.26510        1.90500
H         -2.65530       -0.36290       -0.03910
