rmsd158.gzmat
 OpenBabel08211713393D

 46 48  0  0  1  0  0  0  0  0999 V2000
    0.0000    0.0000    0.0000 N   0  0  0  0  0  0  0  0  0  0  0  0
    1.4106    0.0000    0.0000 C   0  0  0  0  0  0  0  0  0  0  0  0
    2.1010    0.0000    0.9856 O   0  0  0  0  0  0  0  0  0  0  0  0
    1.8390   -0.0107   -1.4298 C   0  0  0  0  0  0  0  0  0  0  0  0
    0.7607    0.0079   -2.2385 C   0  0  0  0  0  0  0  0  0  0  0  0
   -0.5178    0.0158   -1.3953 C   0  0  2  0  0  0  0  0  0  0  0  0
   -1.0940   -0.9321   -1.5796 H   0  0  0  0  0  0  0  0  0  0  0  0
   -1.3471    1.2367   -1.6933 C   0  0  0  0  0  0  0  0  0  0  0  0
   -0.9009    2.5064   -1.3252 C   0  0  0  0  0  0  0  0  0  0  0  0
   -1.6780    3.6255   -1.6128 C   0  0  0  0  0  0  0  0  0  0  0  0
   -2.8998    3.4779   -2.2671 C   0  0  0  0  0  0  0  0  0  0  0  0
   -3.3442    2.2091   -2.6353 C   0  0  0  0  0  0  0  0  0  0  0  0
   -2.5694    1.0873   -2.3499 C   0  0  0  0  0  0  0  0  0  0  0  0
    0.6923   -0.0038   -3.7032 C   0  0  0  0  0  0  0  0  0  0  0  0
    3.2727   -0.0565   -1.7642 C   0  0  0  0  0  0  0  0  0  0  0  0
    3.6087   -1.3436   -2.4705 C   0  0  0  0  0  0  0  0  0  0  0  0
    2.9000   -2.0087   -3.1803 O   0  0  0  0  0  0  0  0  0  0  0  0
    4.8954   -1.6682   -2.2016 O   0  0  0  0  0  0  0  0  0  0  0  0
    5.4081   -2.8753   -2.7687 C   0  0  0  0  0  0  0  0  0  0  0  0
    5.7187   -2.6724   -4.2418 C   0  0  0  0  0  0  0  0  0  0  0  0
   -0.8551    0.0521    1.1140 C   0  0  0  0  0  0  0  0  0  0  0  0
   -2.2241   -0.2278    0.9605 C   0  0  0  0  0  0  0  0  0  0  0  0
   -3.0670   -0.1738    2.0654 C   0  0  0  0  0  0  0  0  0  0  0  0
   -2.5666    0.1509    3.3240 C   0  0  0  0  0  0  0  0  0  0  0  0
   -1.2083    0.4263    3.4739 C   0  0  0  0  0  0  0  0  0  0  0  0
   -0.3493    0.3824    2.3821 C   0  0  0  0  0  0  0  0  0  0  0  0
    0.0516    2.6208   -0.8070 H   0  0  0  0  0  0  0  0  0  0  0  0
   -1.3296    4.6159   -1.3252 H   0  0  0  0  0  0  0  0  0  0  0  0
   -3.5080    4.3526   -2.4891 H   0  0  0  0  0  0  0  0  0  0  0  0
   -4.2996    2.0933   -3.1432 H   0  0  0  0  0  0  0  0  0  0  0  0
   -2.9249    0.0996   -2.6370 H   0  0  0  0  0  0  0  0  0  0  0  0
   -0.2991    0.2645   -4.0959 H   0  0  0  0  0  0  0  0  0  0  0  0
    0.9448   -1.0117   -4.0964 H   0  0  0  0  0  0  0  0  0  0  0  0
    1.4224    0.6845   -4.1586 H   0  0  0  0  0  0  0  0  0  0  0  0
    3.9014    0.0513   -0.8407 H   0  0  0  0  0  0  0  0  0  0  0  0
    3.5680    0.8014   -2.4125 H   0  0  0  0  0  0  0  0  0  0  0  0
    4.6877   -3.6959   -2.5990 H   0  0  0  0  0  0  0  0  0  0  0  0
    6.3170   -3.0316   -2.1564 H   0  0  0  0  0  0  0  0  0  0  0  0
    4.7980   -2.5155   -4.8223 H   0  0  0  0  0  0  0  0  0  0  0  0
    6.2304   -3.5443   -4.6649 H   0  0  0  0  0  0  0  0  0  0  0  0
    6.3591   -1.7966   -4.4007 H   0  0  0  0  0  0  0  0  0  0  0  0
   -2.6364   -0.4813   -0.0108 H   0  0  0  0  0  0  0  0  0  0  0  0
   -4.1275   -0.3883    1.9415 H   0  0  0  0  0  0  0  0  0  0  0  0
   -3.2299    0.1893    4.1832 H   0  0  0  0  0  0  0  0  0  0  0  0
   -0.8112    0.6810    4.4562 H   0  0  0  0  0  0  0  0  0  0  0  0
    0.7110    0.6009    2.5204 H   0  0  0  0  0  0  0  0  0  0  0  0
  1 21  1  0  0  0  0
  2  1  1  0  0  0  0
  2  3  2  0  0  0  0
  4  2  1  0  0  0  0
  5  4  2  0  0  0  0
  5  6  1  0  0  0  0
  6  7  1  6  0  0  0
  6  1  1  0  0  0  0
  8  6  1  0  0  0  0
  8  9  2  0  0  0  0
  9 27  1  0  0  0  0
 10  9  1  0  0  0  0
 10 28  1  0  0  0  0
 11 10  2  0  0  0  0
 12 13  2  0  0  0  0
 12 11  1  0  0  0  0
 13  8  1  0  0  0  0
 14  5  1  0  0  0  0
 15  4  1  0  0  0  0
 15 35  1  0  0  0  0
 16 18  1  0  0  0  0
 16 15  1  0  0  0  0
 17 16  2  0  0  0  0
 19 37  1  0  0  0  0
 19 18  1  0  0  0  0
 19 38  1  0  0  0  0
 20 19  1  0  0  0  0
 21 26  1  0  0  0  0
 22 21  2  0  0  0  0
 22 23  1  0  0  0  0
 23 24  2  0  0  0  0
 24 25  1  0  0  0  0
 24 44  1  0  0  0  0
 25 45  1  0  0  0  0
 26 46  1  0  0  0  0
 26 25  2  0  0  0  0
 29 11  1  0  0  0  0
 30 12  1  0  0  0  0
 31 13  1  0  0  0  0
 32 14  1  0  0  0  0
 33 14  1  0  0  0  0
 34 14  1  0  0  0  0
 36 15  1  0  0  0  0
 39 20  1  0  0  0  0
 40 20  1  0  0  0  0
 41 20  1  0  0  0  0
 42 22  1  0  0  0  0
 43 23  1  0  0  0  0
M  END
$$$$
