rmsd192.gzmat
 OpenBabel08211713393D

 46 48  0  0  1  0  0  0  0  0999 V2000
    0.0000    0.0000    0.0000 N   0  0  0  0  0  0  0  0  0  0  0  0
    1.4112    0.0000    0.0000 C   0  0  0  0  0  0  0  0  0  0  0  0
    2.1009    0.0000    0.9854 O   0  0  0  0  0  0  0  0  0  0  0  0
    1.8400   -0.0092   -1.4309 C   0  0  0  0  0  0  0  0  0  0  0  0
    0.7611    0.0226   -2.2388 C   0  0  0  0  0  0  0  0  0  0  0  0
   -0.5161    0.0548   -1.3950 C   0  0  2  0  0  0  0  0  0  0  0  0
   -1.1277   -0.8660   -1.5941 H   0  0  0  0  0  0  0  0  0  0  0  0
   -1.2932    1.3147   -1.6743 C   0  0  0  0  0  0  0  0  0  0  0  0
   -0.7850    2.5570   -1.2922 C   0  0  0  0  0  0  0  0  0  0  0  0
   -1.5093    3.7156   -1.5598 C   0  0  0  0  0  0  0  0  0  0  0  0
   -2.7381    3.6348   -2.2131 C   0  0  0  0  0  0  0  0  0  0  0  0
   -3.2445    2.3935   -2.5942 C   0  0  0  0  0  0  0  0  0  0  0  0
   -2.5234    1.2317   -2.3271 C   0  0  0  0  0  0  0  0  0  0  0  0
    0.6911    0.0232   -3.7027 C   0  0  0  0  0  0  0  0  0  0  0  0
    3.2754   -0.0447   -1.7634 C   0  0  0  0  0  0  0  0  0  0  0  0
    3.6185   -1.3498   -2.4356 C   0  0  0  0  0  0  0  0  0  0  0  0
    3.1735   -1.7818   -3.4681 O   0  0  0  0  0  0  0  0  0  0  0  0
    4.5453   -2.0001   -1.6993 O   0  0  0  0  0  0  0  0  0  0  0  0
    5.0031   -3.2690   -2.1716 C   0  0  0  0  0  0  0  0  0  0  0  0
    6.0176   -3.0711   -3.2848 C   0  0  0  0  0  0  0  0  0  0  0  0
   -0.8562    0.0615    1.1133 C   0  0  0  0  0  0  0  0  0  0  0  0
   -0.3466    0.3518    2.3897 C   0  0  0  0  0  0  0  0  0  0  0  0
   -1.2078    0.3963    3.4800 C   0  0  0  0  0  0  0  0  0  0  0  0
   -2.5720    0.1576    3.3217 C   0  0  0  0  0  0  0  0  0  0  0  0
   -3.0767   -0.1285    2.0554 C   0  0  0  0  0  0  0  0  0  0  0  0
   -2.2323   -0.1785    0.9515 C   0  0  0  0  0  0  0  0  0  0  0  0
    0.1743    2.6193   -0.7771 H   0  0  0  0  0  0  0  0  0  0  0  0
   -1.1159    4.6838   -1.2552 H   0  0  0  0  0  0  0  0  0  0  0  0
   -3.3021    4.5411   -2.4245 H   0  0  0  0  0  0  0  0  0  0  0  0
   -4.2073    2.3303   -3.0973 H   0  0  0  0  0  0  0  0  0  0  0  0
   -2.9269    0.2660   -2.6258 H   0  0  0  0  0  0  0  0  0  0  0  0
   -0.3343    0.0769   -4.0939 H   0  0  0  0  0  0  0  0  0  0  0  0
    1.1608   -0.8907   -4.1260 H   0  0  0  0  0  0  0  0  0  0  0  0
    1.2489    0.8692   -4.1387 H   0  0  0  0  0  0  0  0  0  0  0  0
    3.8976    0.0960   -0.8404 H   0  0  0  0  0  0  0  0  0  0  0  0
    3.5548    0.7945   -2.4421 H   0  0  0  0  0  0  0  0  0  0  0  0
    4.1399   -3.8806   -2.4894 H   0  0  0  0  0  0  0  0  0  0  0  0
    5.4522   -3.6923   -1.2526 H   0  0  0  0  0  0  0  0  0  0  0  0
    5.5364   -2.6915   -4.1977 H   0  0  0  0  0  0  0  0  0  0  0  0
    6.5180   -4.0111   -3.5417 H   0  0  0  0  0  0  0  0  0  0  0  0
    6.7907   -2.3481   -2.9968 H   0  0  0  0  0  0  0  0  0  0  0  0
    0.7184    0.5405    2.5363 H   0  0  0  0  0  0  0  0  0  0  0  0
   -0.8079    0.6214    4.4686 H   0  0  0  0  0  0  0  0  0  0  0  0
   -3.2373    0.1946    4.1794 H   0  0  0  0  0  0  0  0  0  0  0  0
   -4.1416   -0.3170    1.9256 H   0  0  0  0  0  0  0  0  0  0  0  0
   -2.6485   -0.3980   -0.0262 H   0  0  0  0  0  0  0  0  0  0  0  0
  1  2  1  0  0  0  0
  1 21  1  0  0  0  0
  2  3  2  0  0  0  0
  4  2  1  0  0  0  0
  5  4  2  0  0  0  0
  5  6  1  0  0  0  0
  6  7  1  6  0  0  0
  6  1  1  0  0  0  0
  8  6  1  0  0  0  0
  8  9  2  0  0  0  0
  9 27  1  0  0  0  0
 10  9  1  0  0  0  0
 10 28  1  0  0  0  0
 11 10  2  0  0  0  0
 12 13  2  0  0  0  0
 12 11  1  0  0  0  0
 13  8  1  0  0  0  0
 14  5  1  0  0  0  0
 15  4  1  0  0  0  0
 15 35  1  0  0  0  0
 16 15  1  0  0  0  0
 16 18  1  0  0  0  0
 17 16  2  0  0  0  0
 19 18  1  0  0  0  0
 19 38  1  0  0  0  0
 20 41  1  0  0  0  0
 20 19  1  0  0  0  0
 21 22  1  0  0  0  0
 22 42  1  0  0  0  0
 22 23  2  0  0  0  0
 23 43  1  0  0  0  0
 24 23  1  0  0  0  0
 24 44  1  0  0  0  0
 25 24  2  0  0  0  0
 26 21  2  0  0  0  0
 26 25  1  0  0  0  0
 29 11  1  0  0  0  0
 30 12  1  0  0  0  0
 31 13  1  0  0  0  0
 32 14  1  0  0  0  0
 33 14  1  0  0  0  0
 34 14  1  0  0  0  0
 36 15  1  0  0  0  0
 37 19  1  0  0  0  0
 39 20  1  0  0  0  0
 40 20  1  0  0  0  0
 45 25  1  0  0  0  0
 46 26  1  0  0  0  0
M  END
$$$$
