rmsd245.gzmat
 OpenBabel08211713393D

 46 48  0  0  1  0  0  0  0  0999 V2000
    0.0000    0.0000    0.0000 N   0  0  0  0  0  0  0  0  0  0  0  0
    1.4117    0.0000    0.0000 C   0  0  0  0  0  0  0  0  0  0  0  0
    2.1022    0.0000    0.9850 O   0  0  0  0  0  0  0  0  0  0  0  0
    1.8404   -0.0145   -1.4298 C   0  0  0  0  0  0  0  0  0  0  0  0
    0.7621    0.0041   -2.2389 C   0  0  0  0  0  0  0  0  0  0  0  0
   -0.5160    0.0270   -1.3954 C   0  0  2  0  0  0  0  0  0  0  0  0
   -1.1088   -0.9105   -1.5785 H   0  0  0  0  0  0  0  0  0  0  0  0
   -1.3207    1.2613   -1.7079 C   0  0  0  0  0  0  0  0  0  0  0  0
   -0.9313    2.5109   -1.2254 C   0  0  0  0  0  0  0  0  0  0  0  0
   -1.6840    3.6405   -1.5367 C   0  0  0  0  0  0  0  0  0  0  0  0
   -2.8188    3.5248   -2.3375 C   0  0  0  0  0  0  0  0  0  0  0  0
   -3.2040    2.2766   -2.8234 C   0  0  0  0  0  0  0  0  0  0  0  0
   -2.4591    1.1431   -2.5070 C   0  0  0  0  0  0  0  0  0  0  0  0
    0.6964   -0.0067   -3.7032 C   0  0  0  0  0  0  0  0  0  0  0  0
    3.2750   -0.0556   -1.7670 C   0  0  0  0  0  0  0  0  0  0  0  0
    3.6119   -1.3959   -2.3693 C   0  0  0  0  0  0  0  0  0  0  0  0
    3.0972   -1.9192   -3.3246 O   0  0  0  0  0  0  0  0  0  0  0  0
    4.6332   -1.9549   -1.6836 O   0  0  0  0  0  0  0  0  0  0  0  0
    5.0111   -3.2889   -2.0358 C   0  0  0  0  0  0  0  0  0  0  0  0
    4.0201   -4.2679   -1.4303 C   0  0  0  0  0  0  0  0  0  0  0  0
   -0.8584    0.0594    1.1115 C   0  0  0  0  0  0  0  0  0  0  0  0
   -2.2406   -0.1318    0.9392 C   0  0  0  0  0  0  0  0  0  0  0  0
   -3.0888   -0.0702    2.0394 C   0  0  0  0  0  0  0  0  0  0  0  0
   -2.5816    0.1790    3.3122 C   0  0  0  0  0  0  0  0  0  0  0  0
   -1.2104    0.3629    3.4821 C   0  0  0  0  0  0  0  0  0  0  0  0
   -0.3454    0.3066    2.3957 C   0  0  0  0  0  0  0  0  0  0  0  0
   -0.0438    2.6027   -0.5985 H   0  0  0  0  0  0  0  0  0  0  0  0
   -1.3852    4.6142   -1.1520 H   0  0  0  0  0  0  0  0  0  0  0  0
   -3.4051    4.4084   -2.5820 H   0  0  0  0  0  0  0  0  0  0  0  0
   -4.0904    2.1866   -3.4482 H   0  0  0  0  0  0  0  0  0  0  0  0
   -2.7705    0.1707   -2.8834 H   0  0  0  0  0  0  0  0  0  0  0  0
   -0.3291   -0.0165   -4.0966 H   0  0  0  0  0  0  0  0  0  0  0  0
    1.2185   -0.8948   -4.1197 H   0  0  0  0  0  0  0  0  0  0  0  0
    1.2032    0.8697   -4.1420 H   0  0  0  0  0  0  0  0  0  0  0  0
    3.9019    0.1354   -0.8572 H   0  0  0  0  0  0  0  0  0  0  0  0
    3.5464    0.7474   -2.4908 H   0  0  0  0  0  0  0  0  0  0  0  0
    6.0172   -3.3595   -1.5820 H   0  0  0  0  0  0  0  0  0  0  0  0
    5.0820   -3.3797   -3.1340 H   0  0  0  0  0  0  0  0  0  0  0  0
    3.8948   -4.0916   -0.3532 H   0  0  0  0  0  0  0  0  0  0  0  0
    4.3435   -5.3052   -1.5673 H   0  0  0  0  0  0  0  0  0  0  0  0
    3.0283   -4.1648   -1.8927 H   0  0  0  0  0  0  0  0  0  0  0  0
   -2.6596   -0.3193   -0.0444 H   0  0  0  0  0  0  0  0  0  0  0  0
   -4.1589   -0.2170    1.9002 H   0  0  0  0  0  0  0  0  0  0  0  0
   -3.2496    0.2285    4.1669 H   0  0  0  0  0  0  0  0  0  0  0  0
   -0.8081    0.5541    4.4767 H   0  0  0  0  0  0  0  0  0  0  0  0
    0.7250    0.4530    2.5513 H   0  0  0  0  0  0  0  0  0  0  0  0
  1  2  1  0  0  0  0
  1 21  1  0  0  0  0
  2  3  2  0  0  0  0
  4  2  1  0  0  0  0
  5  4  2  0  0  0  0
  5  6  1  0  0  0  0
  6  7  1  6  0  0  0
  6  1  1  0  0  0  0
  8  6  1  0  0  0  0
  8  9  2  0  0  0  0
  9 27  1  0  0  0  0
 10  9  1  0  0  0  0
 10 28  1  0  0  0  0
 11 10  2  0  0  0  0
 12 13  2  0  0  0  0
 12 11  1  0  0  0  0
 13  8  1  0  0  0  0
 14  5  1  0  0  0  0
 15  4  1  0  0  0  0
 15 35  1  0  0  0  0
 16 15  1  0  0  0  0
 16 18  1  0  0  0  0
 17 16  2  0  0  0  0
 19 18  1  0  0  0  0
 19 37  1  0  0  0  0
 19 20  1  0  0  0  0
 20 39  1  0  0  0  0
 21 26  1  0  0  0  0
 22 21  2  0  0  0  0
 22 23  1  0  0  0  0
 23 24  2  0  0  0  0
 24 25  1  0  0  0  0
 24 44  1  0  0  0  0
 25 45  1  0  0  0  0
 26 46  1  0  0  0  0
 26 25  2  0  0  0  0
 29 11  1  0  0  0  0
 30 12  1  0  0  0  0
 31 13  1  0  0  0  0
 32 14  1  0  0  0  0
 33 14  1  0  0  0  0
 34 14  1  0  0  0  0
 36 15  1  0  0  0  0
 38 19  1  0  0  0  0
 40 20  1  0  0  0  0
 41 20  1  0  0  0  0
 42 22  1  0  0  0  0
 43 23  1  0  0  0  0
M  END
$$$$
