rmsd195.gzmat
 OpenBabel08211713403D

 40 42  0  0  0  0  0  0  0  0999 V2000
    0.0000    0.0000    0.0000 C   0  0  0  0  0  0  0  0  0  0  0  0
    1.3973    0.0000    0.0000 N   0  0  0  0  0  0  0  0  0  0  0  0
    1.7603    0.0000    1.2941 C   0  0  0  0  0  0  0  0  0  0  0  0
    0.6073    0.0210    2.0749 N   0  0  0  0  0  0  0  0  0  0  0  0
   -0.4874    0.0027    1.2631 N   0  0  0  0  0  0  0  0  0  0  0  0
    0.4410   -0.1594    3.5356 C   0  0  0  0  0  0  0  0  0  0  0  0
    0.4849   -1.5369    4.0022 N   0  0  0  0  0  0  0  0  0  0  0  0
   -0.5725   -2.4164    3.4430 C   0  0  0  0  0  0  0  0  0  0  0  0
    0.0788   -3.3201    2.3720 C   0  0  0  0  0  0  0  0  0  0  0  0
    1.5971   -3.2110    2.5979 C   0  0  0  0  0  0  0  0  0  0  0  0
    1.7733   -2.2402    3.7872 C   0  0  0  0  0  0  0  0  0  0  0  0
   -0.7806   -0.0137   -1.2909 C   0  0  0  0  0  0  0  0  0  0  0  0
   -2.2429   -0.4510   -1.1142 C   0  0  0  0  0  0  0  0  0  0  0  0
   -3.0927    0.6546   -0.4831 C   0  0  0  0  0  0  0  0  0  0  0  0
   -2.9621    1.9684   -1.2629 C   0  0  0  0  0  0  0  0  0  0  0  0
   -1.4941    2.4108   -1.3147 C   0  0  0  0  0  0  0  0  0  0  0  0
   -0.6434    1.3438   -2.0062 C   0  0  0  0  0  0  0  0  0  0  0  0
   -0.2275   -1.0200   -2.1194 O   0  0  0  0  0  0  0  0  0  0  0  0
    2.7652    0.0124    1.6763 H   0  0  0  0  0  0  0  0  0  0  0  0
   -0.5524    0.2823    3.8249 H   0  0  0  0  0  0  0  0  0  0  0  0
    1.2514    0.4274    4.0389 H   0  0  0  0  0  0  0  0  0  0  0  0
   -1.4203   -1.8351    3.0308 H   0  0  0  0  0  0  0  0  0  0  0  0
   -0.9648   -3.0197    4.2901 H   0  0  0  0  0  0  0  0  0  0  0  0
   -0.2731   -4.3588    2.4588 H   0  0  0  0  0  0  0  0  0  0  0  0
   -0.1943   -2.9842    1.3558 H   0  0  0  0  0  0  0  0  0  0  0  0
    2.0460   -4.1923    2.8156 H   0  0  0  0  0  0  0  0  0  0  0  0
    2.1031   -2.8333    1.6937 H   0  0  0  0  0  0  0  0  0  0  0  0
    1.9831   -2.8024    4.7250 H   0  0  0  0  0  0  0  0  0  0  0  0
    2.6138   -1.5423    3.6375 H   0  0  0  0  0  0  0  0  0  0  0  0
   -2.2849   -1.3709   -0.5003 H   0  0  0  0  0  0  0  0  0  0  0  0
   -2.6445   -0.7336   -2.1088 H   0  0  0  0  0  0  0  0  0  0  0  0
   -4.1506    0.3360   -0.4457 H   0  0  0  0  0  0  0  0  0  0  0  0
   -2.7853    0.8105    0.5710 H   0  0  0  0  0  0  0  0  0  0  0  0
   -3.3563    1.8418   -2.2882 H   0  0  0  0  0  0  0  0  0  0  0  0
   -3.5794    2.7526   -0.7894 H   0  0  0  0  0  0  0  0  0  0  0  0
   -1.3998    3.3751   -1.8461 H   0  0  0  0  0  0  0  0  0  0  0  0
   -1.1175    2.5907   -0.2888 H   0  0  0  0  0  0  0  0  0  0  0  0
   -0.9596    1.2179   -3.0607 H   0  0  0  0  0  0  0  0  0  0  0  0
    0.4189    1.6508   -2.0397 H   0  0  0  0  0  0  0  0  0  0  0  0
    0.7501   -0.9371   -2.1797 H   0  0  0  0  0  0  0  0  0  0  0  0
  1  2  2  0  0  0  0
  1  5  2  0  0  0  0
  2  3  2  0  0  0  0
  3 19  1  0  0  0  0
  3  4  1  0  0  0  0
  4  6  1  0  0  0  0
  5  4  1  0  0  0  0
  6 20  1  0  0  0  0
  6  7  1  0  0  0  0
  6 21  1  0  0  0  0
  8  7  1  0  0  0  0
  8 23  1  0  0  0  0
  9 24  1  0  0  0  0
  9 10  1  0  0  0  0
  9  8  1  0  0  0  0
 10 26  1  0  0  0  0
 10 11  1  0  0  0  0
 11  7  1  0  0  0  0
 11 28  1  0  0  0  0
 12 13  1  0  0  0  0
 12  1  1  0  0  0  0
 13 30  1  0  0  0  0
 13 14  1  0  0  0  0
 14 32  1  0  0  0  0
 14 33  1  0  0  0  0
 15 35  1  0  0  0  0
 15 14  1  0  0  0  0
 16 15  1  0  0  0  0
 16 37  1  0  0  0  0
 17 16  1  0  0  0  0
 17 12  1  0  0  0  0
 18 12  1  0  0  0  0
 22  8  1  0  0  0  0
 25  9  1  0  0  0  0
 27 10  1  0  0  0  0
 29 11  1  0  0  0  0
 31 13  1  0  0  0  0
 34 15  1  0  0  0  0
 36 16  1  0  0  0  0
 38 17  1  0  0  0  0
 39 17  1  0  0  0  0
 40 18  1  0  0  0  0
M  END
$$$$
