
     RDKit          3D

 40 42  0  0  0  0  0  0  0  0999 V2000
    0.4755    0.0812   -0.1020 C   0  0  0  0  0  0  0  0  0  0  0  0
    1.8391    0.0001   -0.1398 N   0  0  0  0  0  0  0  0  0  0  0  0
    2.1877    0.0166    1.1345 C   0  0  0  0  0  0  0  0  0  0  0  0
    1.0860    0.1176    1.9111 N   0  0  0  0  0  0  0  0  0  0  0  0
   -0.0153    0.1588    1.1273 N   0  0  0  0  0  0  0  0  0  0  0  0
    0.9632   -0.0052    3.3779 C   0  0  0  0  0  0  0  0  0  0  0  0
    0.5320   -1.2720    3.8691 N   0  0  0  0  0  0  0  0  0  0  0  0
   -0.8561   -1.6724    3.6007 C   0  0  0  0  0  0  0  0  0  0  0  0
   -0.8170   -2.7201    2.4521 C   0  0  0  0  0  0  0  0  0  0  0  0
    0.6831   -3.0597    2.2757 C   0  0  0  0  0  0  0  0  0  0  0  0
    1.3517   -2.4318    3.5171 C   0  0  0  0  0  0  0  0  0  0  0  0
   -0.3164    0.1211   -1.3937 C   0  0  0  0  0  0  0  0  0  0  0  0
   -1.5636   -0.7806   -1.3504 C   0  0  0  0  0  0  0  0  0  0  0  0
   -2.7072   -0.2395   -0.4869 C   0  0  0  0  0  0  0  0  0  0  0  0
   -3.0727    1.1982   -0.8703 C   0  0  0  0  0  0  0  0  0  0  0  0
   -1.8447    2.1128   -0.8212 C   0  0  0  0  0  0  0  0  0  0  0  0
   -0.7276    1.5773   -1.7194 C   0  0  0  0  0  0  0  0  0  0  0  0
    0.5222   -0.3743   -2.4233 O   0  0  0  0  0  0  0  0  0  0  0  0
    3.1983   -0.0397    1.5372 H   0  0  0  0  0  0  0  0  0  0  0  0
    0.2593    0.7748    3.6977 H   0  0  0  0  0  0  0  0  0  0  0  0
    1.9597    0.2361    3.7778 H   0  0  0  0  0  0  0  0  0  0  0  0
   -1.4677   -0.7949    3.3532 H   0  0  0  0  0  0  0  0  0  0  0  0
   -1.2742   -2.1294    4.5141 H   0  0  0  0  0  0  0  0  0  0  0  0
   -1.4069   -3.6099    2.7187 H   0  0  0  0  0  0  0  0  0  0  0  0
   -1.2375   -2.3078    1.5259 H   0  0  0  0  0  0  0  0  0  0  0  0
    0.8722   -4.1412    2.2055 H   0  0  0  0  0  0  0  0  0  0  0  0
    1.0760   -2.6012    1.3557 H   0  0  0  0  0  0  0  0  0  0  0  0
    1.3366   -3.1477    4.3584 H   0  0  0  0  0  0  0  0  0  0  0  0
    2.4011   -2.1412    3.3570 H   0  0  0  0  0  0  0  0  0  0  0  0
   -1.2568   -1.7882   -1.0272 H   0  0  0  0  0  0  0  0  0  0  0  0
   -1.8962   -0.8746   -2.3979 H   0  0  0  0  0  0  0  0  0  0  0  0
   -3.5852   -0.8985   -0.5913 H   0  0  0  0  0  0  0  0  0  0  0  0
   -2.4109   -0.2666    0.5732 H   0  0  0  0  0  0  0  0  0  0  0  0
   -3.4911    1.2095   -1.8937 H   0  0  0  0  0  0  0  0  0  0  0  0
   -3.8636    1.5806   -0.2039 H   0  0  0  0  0  0  0  0  0  0  0  0
   -2.1127    3.1362   -1.1321 H   0  0  0  0  0  0  0  0  0  0  0  0
   -1.4831    2.1817    0.2187 H   0  0  0  0  0  0  0  0  0  0  0  0
   -1.0582    1.5681   -2.7716 H   0  0  0  0  0  0  0  0  0  0  0  0
    0.1703    2.2153   -1.6733 H   0  0  0  0  0  0  0  0  0  0  0  0
    1.4362   -0.2693   -2.1109 H   0  0  0  0  0  0  0  0  0  0  0  0
  1  2  1  0
  1  5  2  0
  1 12  1  0
  2  3  2  0
  3  4  1  0
  3 19  1  0
  4  5  1  0
  4  6  1  0
  6  7  1  0
  6 20  1  0
  6 21  1  0
  7  8  1  0
  7 11  1  0
  8  9  1  0
  8 22  1  0
  8 23  1  0
  9 10  1  0
  9 24  1  0
  9 25  1  0
 10 11  1  0
 10 26  1  0
 10 27  1  0
 11 28  1  0
 11 29  1  0
 12 13  1  0
 12 17  1  0
 12 18  1  0
 13 14  1  0
 13 30  1  0
 13 31  1  0
 14 15  1  0
 14 32  1  0
 14 33  1  0
 15 16  1  0
 15 34  1  0
 15 35  1  0
 16 17  1  0
 16 36  1  0
 16 37  1  0
 17 38  1  0
 17 39  1  0
 18 40  1  0
M  END

