40
rmsd195.gzmat
C          0.00000        0.00000        0.00000
N          1.39730        0.00000        0.00000
C          1.76030        0.00000        1.29410
N          0.60730        0.02100        2.07490
N         -0.48740        0.00270        1.26310
C          0.44100       -0.15940        3.53560
N          0.48490       -1.53690        4.00220
C         -0.57250       -2.41640        3.44300
C          0.07880       -3.32010        2.37200
C          1.59710       -3.21100        2.59790
C          1.77330       -2.24020        3.78720
C         -0.78060       -0.01370       -1.29090
C         -2.24290       -0.45100       -1.11420
C         -3.09270        0.65460       -0.48310
C         -2.96210        1.96840       -1.26290
C         -1.49410        2.41080       -1.31470
C         -0.64340        1.34380       -2.00620
O         -0.22750       -1.02000       -2.11940
H          2.76520        0.01240        1.67630
H         -0.55240        0.28230        3.82490
H          1.25140        0.42740        4.03890
H         -1.42030       -1.83510        3.03080
H         -0.96480       -3.01970        4.29010
H         -0.27310       -4.35880        2.45880
H         -0.19430       -2.98420        1.35580
H          2.04600       -4.19230        2.81560
H          2.10310       -2.83330        1.69370
H          1.98310       -2.80240        4.72500
H          2.61380       -1.54230        3.63750
H         -2.28490       -1.37090       -0.50030
H         -2.64450       -0.73360       -2.10880
H         -4.15060        0.33600       -0.44570
H         -2.78530        0.81050        0.57100
H         -3.35630        1.84180       -2.28820
H         -3.57940        2.75260       -0.78940
H         -1.39980        3.37510       -1.84610
H         -1.11750        2.59070       -0.28880
H         -0.95960        1.21790       -3.06070
H          0.41890        1.65080       -2.03970
H          0.75010       -0.93710       -2.17970
