40

C          0.47550        0.08120       -0.10200
N          1.83910        0.00010       -0.13980
C          2.18770        0.01660        1.13450
N          1.08600        0.11760        1.91110
N         -0.01530        0.15880        1.12730
C          0.96320       -0.00520        3.37790
N          0.53200       -1.27200        3.86910
C         -0.85610       -1.67240        3.60070
C         -0.81700       -2.72010        2.45210
C          0.68310       -3.05970        2.27570
C          1.35170       -2.43180        3.51710
C         -0.31640        0.12110       -1.39370
C         -1.56360       -0.78060       -1.35040
C         -2.70720       -0.23950       -0.48690
C         -3.07270        1.19820       -0.87030
C         -1.84470        2.11280       -0.82120
C         -0.72760        1.57730       -1.71940
O          0.52220       -0.37430       -2.42330
H          3.19830       -0.03970        1.53720
H          0.25930        0.77480        3.69770
H          1.95970        0.23610        3.77780
H         -1.46770       -0.79490        3.35320
H         -1.27420       -2.12940        4.51410
H         -1.40690       -3.60990        2.71870
H         -1.23750       -2.30780        1.52590
H          0.87220       -4.14120        2.20550
H          1.07600       -2.60120        1.35570
H          1.33660       -3.14770        4.35840
H          2.40110       -2.14120        3.35700
H         -1.25680       -1.78820       -1.02720
H         -1.89620       -0.87460       -2.39790
H         -3.58520       -0.89850       -0.59130
H         -2.41090       -0.26660        0.57320
H         -3.49110        1.20950       -1.89370
H         -3.86360        1.58060       -0.20390
H         -2.11270        3.13620       -1.13210
H         -1.48310        2.18170        0.21870
H         -1.05820        1.56810       -2.77160
H          0.17030        2.21530       -1.67330
H          1.43620       -0.26930       -2.11090
