40
rmsd178.gzmat
C          0.00000        0.00000        0.00000
N          1.39780        0.00000        0.00000
C          1.76000        0.00000        1.29460
N          0.60700        0.02030        2.07530
N         -0.48740       -0.00040        1.26300
C          0.43720       -0.16930        3.53470
N          0.55710       -1.54270        4.00060
C         -0.41830       -2.48850        3.40170
C          0.32680       -3.31590        2.33140
C          1.82310       -3.16000        2.65530
C          1.89680       -2.15760        3.83040
C         -0.78520       -0.00940       -1.28830
C         -2.27520       -0.32910       -1.09430
C         -3.03010        0.85770       -0.49070
C         -2.81270        2.12960       -1.31920
C         -1.31720        2.45920       -1.40630
C         -0.55310        1.30490       -2.05770
O         -0.30780       -1.08750       -2.07310
H          2.76450        0.01240        1.67740
H         -0.58520        0.21100        3.81250
H          1.20390        0.46590        4.04750
H         -1.29840       -1.96520        2.97960
H         -0.78120       -3.13690        4.22820
H          0.01150       -4.36940        2.34330
H          0.10160       -2.93760        1.31760
H          2.27950       -4.12450        2.92920
H          2.38040       -2.79320        1.77750
H          2.12270       -2.68580        4.78450
H          2.69000       -1.40450        3.68860
H         -2.38500       -1.22640       -0.45570
H         -2.70390       -0.60600       -2.07890
H         -4.10780        0.62160       -0.42690
H         -2.69530        1.02550        0.55310
H         -3.23060        1.99680       -2.33410
H         -3.36250        2.97470       -0.86760
H         -1.16150        3.38950       -1.98210
H         -0.91450        2.65580       -0.39360
H         -0.88350        1.16130       -3.10500
H          0.52910        1.53180       -2.10440
H          0.66940       -1.05390       -2.16340
