40
rmsd194.gzmat
C          0.00000        0.00000        0.00000
N          1.39720        0.00000        0.00000
C          1.76000        0.00000        1.29490
N          0.60730       -0.01980        2.07510
N         -0.48710       -0.00020        1.26360
C          0.43390        0.12810        3.53870
N          0.54190        1.48690        4.04590
C          1.87290        2.12210        3.89130
C          1.78470        3.13800        2.73090
C          0.28180        3.38580        2.51230
C         -0.45180        2.44090        3.49160
C         -0.78990        0.00180       -1.28540
C         -0.62550       -1.34900       -2.00840
C         -1.43690       -2.44300       -1.31150
C         -2.91500       -2.04180       -1.22130
C         -3.06410       -0.73200       -0.43790
C         -2.26290        0.39510       -1.09390
O         -0.27100        1.02630       -2.11320
H          2.76490       -0.00920        1.67730
H          1.20490       -0.51620        4.03320
H         -0.58530       -0.26900        3.80400
H          2.67800        1.38310        3.74180
H          2.08510        2.64160        4.85370
H          2.32020        4.06920        2.97280
H          2.25250        2.74010        1.81440
H          0.01190        4.43670        2.69840
H         -0.00580        3.17250        1.46750
H         -0.86640        3.00440        4.35550
H         -1.29800        1.92080        3.00090
H          0.44410       -1.62810       -2.05640
H         -0.95850       -1.22730       -3.05790
H         -1.33030       -3.39760       -1.85810
H         -1.03320       -2.62480       -0.29650
H         -3.33900       -1.92740       -2.23600
H         -3.49710       -2.84390       -0.73270
H         -4.12860       -0.44310       -0.37150
H         -2.72600       -0.87770        0.60830
H         -2.68840        0.65000       -2.08590
H         -2.32720        1.32130       -0.49160
H          0.70650        0.96220       -2.18730
