40
rmsd184.gzmat
C          0.00000        0.00000        0.00000
N          1.39820        0.00000        0.00000
C          1.76000        0.00000        1.29420
N          0.60620       -0.02720        2.07490
N         -0.48750       -0.00640        1.26220
C          0.43550        0.20070        3.52860
N          0.46170        1.59540        3.94340
C          1.74170        2.30490        3.70050
C          1.55410        3.22800        2.47540
C          0.03450        3.31380        2.24820
C         -0.60560        2.44140        3.35120
C         -0.78320        0.03240       -1.28870
C         -0.56240       -1.27400       -2.07450
C         -1.33690       -2.42720       -1.43340
C         -2.82950       -2.08400       -1.34610
C         -3.03620       -0.82080       -0.50180
C         -2.27060        0.36460       -1.09490
O         -0.29200        1.11660       -2.05630
H          2.76480       -0.00940        1.67730
H          1.25190       -0.35840        4.05280
H         -0.55280       -0.24260        3.83150
H          2.58890        1.61020        3.57570
H          1.94510        2.90400        4.61650
H          1.99300        4.22130        2.65510
H          2.06220        2.82100        1.58510
H         -0.32870        4.35100        2.29690
H         -0.23600        2.94140        1.24400
H         -1.00480        3.07060        4.17560
H         -1.44570        1.83560        2.95850
H          0.51770       -1.50940       -2.12590
H         -0.89250       -1.11650       -3.11980
H         -1.18920       -3.35500       -2.01510
H         -0.93680       -2.63460       -0.42180
H         -3.24210       -1.93140       -2.36050
H         -3.38960       -2.93000       -0.90900
H         -4.11210       -0.57700       -0.43510
H         -2.70220       -1.00340        0.53960
H         -2.69540        0.65170       -2.07840
H         -2.37420        1.25860       -0.45130
H          0.68580        1.07460       -2.14070
