rmsd49.gzmat
 OpenBabel08211713403D

 47 49  0  0  0  0  0  0  0  0999 V2000
    0.0000    0.0000    0.0000 O   0  0  0  0  0  0  0  0  0  0  0  0
    1.2130    0.0000    0.0000 C   0  0  0  0  0  0  0  0  0  0  0  0
    1.9602    0.0000    1.2570 C   0  0  0  0  0  0  0  0  0  0  0  0
    1.4989   -0.5648    2.4473 C   0  0  0  0  0  0  0  0  0  0  0  0
    2.4995   -0.4176    3.4108 N   0  0  0  0  0  0  0  0  0  0  0  0
    2.4462   -0.7349    4.3523 H   0  0  0  0  0  0  0  0  0  0  0  0
    3.5855    0.2498    2.8447 C   0  0  0  0  0  0  0  0  0  0  0  0
    3.2662    0.5296    1.5152 C   0  0  0  0  0  0  0  0  0  0  0  0
    4.1298    1.2783    0.6192 C   0  0  0  0  0  0  0  0  0  0  0  0
    5.3383    1.2773    0.5974 O   0  0  0  0  0  0  0  0  0  0  0  0
    3.3958    2.0679   -0.2091 O   0  0  0  0  0  0  0  0  0  0  0  0
    4.1447    2.8412   -1.1419 C   0  0  0  0  0  0  0  0  0  0  0  0
    4.7991    0.5600    3.6165 C   0  0  0  0  0  0  0  0  0  0  0  0
    0.2278   -1.2393    2.7543 C   0  0  0  0  0  0  0  0  0  0  0  0
    1.9782   -0.0766   -1.2707 C   0  0  0  0  0  0  0  0  0  0  0  0
    2.9638   -1.0625   -1.3822 C   0  0  0  0  0  0  0  0  0  0  0  0
    3.6871   -1.2000   -2.5610 C   0  0  0  0  0  0  0  0  0  0  0  0
    3.4284   -0.3464   -3.6347 C   0  0  0  0  0  0  0  0  0  0  0  0
    2.4517    0.6359   -3.5254 C   0  0  0  0  0  0  0  0  0  0  0  0
    1.7128    0.7775   -2.3432 C   0  0  0  0  0  0  0  0  0  0  0  0
    0.6651    1.8506   -2.2809 C   0  0  0  0  0  0  0  0  0  0  0  0
   -0.4485    1.5197   -3.2315 C   0  0  0  0  0  0  0  0  0  0  0  0
   -1.3483    0.5000   -2.9115 C   0  0  0  0  0  0  0  0  0  0  0  0
   -2.3742    0.1757   -3.7936 C   0  0  0  0  0  0  0  0  0  0  0  0
   -2.5087    0.8698   -4.9960 C   0  0  0  0  0  0  0  0  0  0  0  0
   -1.6133    1.8882   -5.3141 C   0  0  0  0  0  0  0  0  0  0  0  0
   -0.5826    2.2143   -4.4341 C   0  0  0  0  0  0  0  0  0  0  0  0
    3.3716    3.4323   -1.6455 H   0  0  0  0  0  0  0  0  0  0  0  0
    4.6632    2.1786   -1.8436 H   0  0  0  0  0  0  0  0  0  0  0  0
    4.8633    3.4814   -0.6207 H   0  0  0  0  0  0  0  0  0  0  0  0
    4.6589    1.4289    4.2792 H   0  0  0  0  0  0  0  0  0  0  0  0
    5.6412    0.8158    2.9384 H   0  0  0  0  0  0  0  0  0  0  0  0
    5.1446   -0.2828    4.2320 H   0  0  0  0  0  0  0  0  0  0  0  0
   -0.5508   -0.9620    2.0106 H   0  0  0  0  0  0  0  0  0  0  0  0
   -0.1771   -0.9690    3.7394 H   0  0  0  0  0  0  0  0  0  0  0  0
    0.3208   -2.3362    2.7153 H   0  0  0  0  0  0  0  0  0  0  0  0
    3.1674   -1.7225   -0.5382 H   0  0  0  0  0  0  0  0  0  0  0  0
    4.4535   -1.9667   -2.6453 H   0  0  0  0  0  0  0  0  0  0  0  0
    3.9916   -0.4533   -4.5600 H   0  0  0  0  0  0  0  0  0  0  0  0
    2.2421    1.2914   -4.3686 H   0  0  0  0  0  0  0  0  0  0  0  0
    1.1179    2.8381   -2.5124 H   0  0  0  0  0  0  0  0  0  0  0  0
    0.2546    1.9712   -1.2514 H   0  0  0  0  0  0  0  0  0  0  0  0
   -1.2374   -0.0407   -1.9675 H   0  0  0  0  0  0  0  0  0  0  0  0
   -3.0724   -0.6204   -3.5442 H   0  0  0  0  0  0  0  0  0  0  0  0
   -3.3113    0.6162   -5.6836 H   0  0  0  0  0  0  0  0  0  0  0  0
   -1.7167    2.4298   -6.2511 H   0  0  0  0  0  0  0  0  0  0  0  0
    0.1134    3.0085   -4.6892 H   0  0  0  0  0  0  0  0  0  0  0  0
  2  1  2  0  0  0  0
  2  3  1  0  0  0  0
  3  8  1  0  0  0  0
  3  4  2  0  0  0  0
  4 14  1  0  0  0  0
  4  5  1  0  0  0  0
  5  6  1  0  0  0  0
  7  5  1  0  0  0  0
  7 13  1  0  0  0  0
  8  7  2  0  0  0  0
  9  8  1  0  0  0  0
 10  9  2  0  0  0  0
 11  9  1  0  0  0  0
 12 30  1  0  0  0  0
 12 11  1  0  0  0  0
 13 33  1  0  0  0  0
 13 31  1  0  0  0  0
 14 35  1  0  0  0  0
 15  2  1  0  0  0  0
 16 15  1  0  0  0  0
 16 37  1  0  0  0  0
 17 16  2  0  0  0  0
 18 19  2  0  0  0  0
 18 17  1  0  0  0  0
 19 20  1  0  0  0  0
 20 21  1  0  0  0  0
 20 15  2  0  0  0  0
 21 42  1  0  0  0  0
 22 23  1  0  0  0  0
 22 21  1  0  0  0  0
 23 43  1  0  0  0  0
 24 44  1  0  0  0  0
 24 23  2  0  0  0  0
 25 24  1  0  0  0  0
 26 25  2  0  0  0  0
 26 27  1  0  0  0  0
 27 22  2  0  0  0  0
 28 12  1  0  0  0  0
 29 12  1  0  0  0  0
 32 13  1  0  0  0  0
 34 14  1  0  0  0  0
 36 14  1  0  0  0  0
 38 17  1  0  0  0  0
 39 18  1  0  0  0  0
 40 19  1  0  0  0  0
 41 21  1  0  0  0  0
 45 25  1  0  0  0  0
 46 26  1  0  0  0  0
 47 27  1  0  0  0  0
M  END
$$$$
