rmsd206.gzmat
 OpenBabel08211713403D

 47 49  0  0  0  0  0  0  0  0999 V2000
    0.0000    0.0000    0.0000 O   0  0  0  0  0  0  0  0  0  0  0  0
    1.2134    0.0000    0.0000 C   0  0  0  0  0  0  0  0  0  0  0  0
    1.9518    0.0000    1.2640 C   0  0  0  0  0  0  0  0  0  0  0  0
    1.5521    0.7065    2.3975 C   0  0  0  0  0  0  0  0  0  0  0  0
    2.4882    0.4646    3.4071 N   0  0  0  0  0  0  0  0  0  0  0  0
    2.4556    0.8412    4.3274 H   0  0  0  0  0  0  0  0  0  0  0  0
    3.4642   -0.4059    2.9264 C   0  0  0  0  0  0  0  0  0  0  0  0
    3.1511   -0.7089    1.5983 C   0  0  0  0  0  0  0  0  0  0  0  0
    3.9284   -1.6184    0.7779 C   0  0  0  0  0  0  0  0  0  0  0  0
    5.0623   -1.9899    0.9806 O   0  0  0  0  0  0  0  0  0  0  0  0
    3.2148   -2.0568   -0.2912 O   0  0  0  0  0  0  0  0  0  0  0  0
    3.9033   -2.9402   -1.1724 C   0  0  0  0  0  0  0  0  0  0  0  0
    4.5732   -0.8619    3.7783 C   0  0  0  0  0  0  0  0  0  0  0  0
    0.3981    1.5950    2.6104 C   0  0  0  0  0  0  0  0  0  0  0  0
    1.9714    0.0549   -1.2738 C   0  0  0  0  0  0  0  0  0  0  0  0
    3.0841    0.8922   -1.3642 C   0  0  0  0  0  0  0  0  0  0  0  0
    3.7892    0.9907   -2.5597 C   0  0  0  0  0  0  0  0  0  0  0  0
    3.3809    0.2437   -3.6638 C   0  0  0  0  0  0  0  0  0  0  0  0
    2.2734   -0.5946   -3.5751 C   0  0  0  0  0  0  0  0  0  0  0  0
    1.5542   -0.6969   -2.3811 C   0  0  0  0  0  0  0  0  0  0  0  0
    0.3454   -1.5756   -2.2656 C   0  0  0  0  0  0  0  0  0  0  0  0
    0.1986   -2.5599   -3.3830 C   0  0  0  0  0  0  0  0  0  0  0  0
    0.7955   -3.8192   -3.2895 C   0  0  0  0  0  0  0  0  0  0  0  0
    0.6569   -4.7356   -4.3291 C   0  0  0  0  0  0  0  0  0  0  0  0
   -0.0844   -4.4021   -5.4614 C   0  0  0  0  0  0  0  0  0  0  0  0
   -0.6854   -3.1476   -5.5536 C   0  0  0  0  0  0  0  0  0  0  0  0
   -0.5452   -2.2274   -4.5175 C   0  0  0  0  0  0  0  0  0  0  0  0
    3.2666   -2.9377   -2.0667 H   0  0  0  0  0  0  0  0  0  0  0  0
    3.9632   -3.9312   -0.7136 H   0  0  0  0  0  0  0  0  0  0  0  0
    4.9062   -2.5673   -1.4081 H   0  0  0  0  0  0  0  0  0  0  0  0
    5.1601   -0.0285    4.1922 H   0  0  0  0  0  0  0  0  0  0  0  0
    5.2899   -1.4829    3.1982 H   0  0  0  0  0  0  0  0  0  0  0  0
    4.2273   -1.4857    4.6169 H   0  0  0  0  0  0  0  0  0  0  0  0
    0.6688    2.6576    2.5099 H   0  0  0  0  0  0  0  0  0  0  0  0
   -0.0746    1.4596    3.5928 H   0  0  0  0  0  0  0  0  0  0  0  0
   -0.3925    1.3966    1.8558 H   0  0  0  0  0  0  0  0  0  0  0  0
    3.4020    1.4674   -0.4940 H   0  0  0  0  0  0  0  0  0  0  0  0
    4.6547    1.6439   -2.6307 H   0  0  0  0  0  0  0  0  0  0  0  0
    3.9282    0.3168   -4.6021 H   0  0  0  0  0  0  0  0  0  0  0  0
    1.9647   -1.1695   -4.4474 H   0  0  0  0  0  0  0  0  0  0  0  0
   -0.5607   -0.9230   -2.1903 H   0  0  0  0  0  0  0  0  0  0  0  0
    0.3565   -2.1121   -1.2854 H   0  0  0  0  0  0  0  0  0  0  0  0
    1.3633   -4.0874   -2.4006 H   0  0  0  0  0  0  0  0  0  0  0  0
    1.1248   -5.7149   -4.2556 H   0  0  0  0  0  0  0  0  0  0  0  0
   -0.1982   -5.1202   -6.2693 H   0  0  0  0  0  0  0  0  0  0  0  0
   -1.2670   -2.8875   -6.4354 H   0  0  0  0  0  0  0  0  0  0  0  0
   -1.0164   -1.2490   -4.5912 H   0  0  0  0  0  0  0  0  0  0  0  0
  2  1  2  0  0  0  0
  2  3  1  0  0  0  0
  3  8  1  0  0  0  0
  3  4  2  0  0  0  0
  4 14  1  0  0  0  0
  4  5  1  0  0  0  0
  5  6  1  0  0  0  0
  7  5  1  0  0  0  0
  7 13  1  0  0  0  0
  8  7  2  0  0  0  0
  9 10  2  0  0  0  0
  9  8  1  0  0  0  0
 11  9  1  0  0  0  0
 12 29  1  0  0  0  0
 12 11  1  0  0  0  0
 13 31  1  0  0  0  0
 13 33  1  0  0  0  0
 14 35  1  0  0  0  0
 15  2  1  0  0  0  0
 16 15  1  0  0  0  0
 16 37  1  0  0  0  0
 17 16  2  0  0  0  0
 18 19  2  0  0  0  0
 18 17  1  0  0  0  0
 19 20  1  0  0  0  0
 20 21  1  0  0  0  0
 20 15  2  0  0  0  0
 21 41  1  0  0  0  0
 21 42  1  0  0  0  0
 22 23  1  0  0  0  0
 22 21  1  0  0  0  0
 23 43  1  0  0  0  0
 24 44  1  0  0  0  0
 24 23  2  0  0  0  0
 25 24  1  0  0  0  0
 26 25  2  0  0  0  0
 26 27  1  0  0  0  0
 27 22  2  0  0  0  0
 28 12  1  0  0  0  0
 30 12  1  0  0  0  0
 32 13  1  0  0  0  0
 34 14  1  0  0  0  0
 36 14  1  0  0  0  0
 38 17  1  0  0  0  0
 39 18  1  0  0  0  0
 40 19  1  0  0  0  0
 45 25  1  0  0  0  0
 46 26  1  0  0  0  0
 47 27  1  0  0  0  0
M  END
$$$$
