47
rmsd17.gzmat
O          0.00000        0.00000        0.00000
C          1.21250        0.00000        0.00000
C          1.96210        0.00000        1.25840
C          1.59330        0.70960        2.39950
N          2.56800        0.48860        3.37770
H          2.56490        0.87720        4.29350
C          3.53980       -0.37080        2.86900
C          3.17900       -0.69420        1.55880
C          3.92190       -1.61040        0.71400
O          5.08760       -1.91600        0.81880
O          3.12410       -2.14370       -0.24810
C          3.76340       -3.03900       -1.15360
C          4.69700       -0.79570        3.67210
C          0.43450        1.58290        2.64580
C          1.98180        0.05490       -1.26820
C          3.10930        0.87590       -1.33290
C          3.85770        0.94770       -2.50320
C          3.47780        0.18990       -3.60990
C          2.34850       -0.62090       -3.55200
C          1.58230       -0.69290       -2.38460
C          0.34910       -1.54220       -2.30660
C          0.18770       -2.48040       -3.46130
C          0.66200       -3.79070       -3.37080
C          0.53400       -4.65520       -4.45560
C         -0.07360       -4.21870       -5.63130
C         -0.56240       -2.91600       -5.71750
C         -0.43500       -2.04890       -4.63560
H          3.02230       -3.14560       -1.95620
H          3.95790       -3.98840       -0.64740
H          4.69510       -2.61150       -1.54000
H          5.23760        0.05010        4.12100
H          5.43600       -1.33610        3.04120
H          4.41570       -1.48800        4.48080
H          0.69950        2.65040        2.59740
H         -0.04310        1.39780        3.61810
H         -0.35120        1.41330        1.87930
H          3.40830        1.45680       -0.45950
H          4.73780        1.58330       -2.55030
H          4.06650        0.23200       -4.52480
H          2.06360       -1.20260       -4.42800
H         -0.54190       -0.87080       -2.21730
H          0.34010       -2.10860       -1.34360
H          1.12680       -4.14030       -2.45080
H          0.90760       -5.67420       -4.38380
H         -0.17040       -4.89260       -6.47840
H         -1.04470       -2.57620       -6.63150
H         -0.81730       -1.03240       -4.70510
