rmsd21.gzmat
 OpenBabel08211713403D

 47 49  0  0  0  0  0  0  0  0999 V2000
    0.0000    0.0000    0.0000 O   0  0  0  0  0  0  0  0  0  0  0  0
    1.2064    0.0000    0.0000 C   0  0  0  0  0  0  0  0  0  0  0  0
    1.9820    0.0000    1.2518 C   0  0  0  0  0  0  0  0  0  0  0  0
    2.6001    1.0908    1.8458 C   0  0  0  0  0  0  0  0  0  0  0  0
    3.1922    0.6491    3.0390 N   0  0  0  0  0  0  0  0  0  0  0  0
    3.6970    1.2255    3.6722 H   0  0  0  0  0  0  0  0  0  0  0  0
    2.9533   -0.7108    3.1925 C   0  0  0  0  0  0  0  0  0  0  0  0
    2.2116   -1.1397    2.0865 C   0  0  0  0  0  0  0  0  0  0  0  0
    1.7820   -2.4983    1.8349 C   0  0  0  0  0  0  0  0  0  0  0  0
    1.7817   -3.4335    2.6010 O   0  0  0  0  0  0  0  0  0  0  0  0
    1.3852   -2.6301    0.5386 O   0  0  0  0  0  0  0  0  0  0  0  0
    0.8841   -3.9084    0.1662 C   0  0  0  0  0  0  0  0  0  0  0  0
    3.4429   -1.4617    4.3588 C   0  0  0  0  0  0  0  0  0  0  0  0
    2.7168    2.4899    1.4084 C   0  0  0  0  0  0  0  0  0  0  0  0
    2.0121    0.0284   -1.2503 C   0  0  0  0  0  0  0  0  0  0  0  0
    3.1883   -0.7240   -1.2944 C   0  0  0  0  0  0  0  0  0  0  0  0
    3.9913   -0.7088   -2.4303 C   0  0  0  0  0  0  0  0  0  0  0  0
    3.6196    0.0675   -3.5270 C   0  0  0  0  0  0  0  0  0  0  0  0
    2.4407    0.8058   -3.4933 C   0  0  0  0  0  0  0  0  0  0  0  0
    1.6219    0.7848   -2.3594 C   0  0  0  0  0  0  0  0  0  0  0  0
    0.3496    1.5793   -2.3733 C   0  0  0  0  0  0  0  0  0  0  0  0
    0.4939    2.8466   -1.5854 C   0  0  0  0  0  0  0  0  0  0  0  0
    1.4658    3.7853   -1.9404 C   0  0  0  0  0  0  0  0  0  0  0  0
    1.5872    4.9705   -1.2199 C   0  0  0  0  0  0  0  0  0  0  0  0
    0.7403    5.2232   -0.1414 C   0  0  0  0  0  0  0  0  0  0  0  0
   -0.2268    4.2857    0.2163 C   0  0  0  0  0  0  0  0  0  0  0  0
   -0.3502    3.0984   -0.5020 C   0  0  0  0  0  0  0  0  0  0  0  0
    0.5491   -3.7468   -0.8653 H   0  0  0  0  0  0  0  0  0  0  0  0
    0.0488   -4.1963    0.8136 H   0  0  0  0  0  0  0  0  0  0  0  0
    1.6842   -4.6527    0.2193 H   0  0  0  0  0  0  0  0  0  0  0  0
    4.5246   -1.3480    4.5172 H   0  0  0  0  0  0  0  0  0  0  0  0
    3.2474   -2.5489    4.2395 H   0  0  0  0  0  0  0  0  0  0  0  0
    2.9301   -1.1647    5.2879 H   0  0  0  0  0  0  0  0  0  0  0  0
    3.7224    2.7176    1.0202 H   0  0  0  0  0  0  0  0  0  0  0  0
    2.4928    3.2103    2.2079 H   0  0  0  0  0  0  0  0  0  0  0  0
    2.0108    2.7146    0.5844 H   0  0  0  0  0  0  0  0  0  0  0  0
    3.4723   -1.3328   -0.4321 H   0  0  0  0  0  0  0  0  0  0  0  0
    4.9044   -1.2975   -2.4611 H   0  0  0  0  0  0  0  0  0  0  0  0
    4.2504    0.0936   -4.4132 H   0  0  0  0  0  0  0  0  0  0  0  0
    2.1518    1.3987   -4.3580 H   0  0  0  0  0  0  0  0  0  0  0  0
   -0.4890    0.9531   -1.9800 H   0  0  0  0  0  0  0  0  0  0  0  0
    0.0409    1.8234   -3.4137 H   0  0  0  0  0  0  0  0  0  0  0  0
    2.1297    3.5865   -2.7794 H   0  0  0  0  0  0  0  0  0  0  0  0
    2.3409    5.7019   -1.5018 H   0  0  0  0  0  0  0  0  0  0  0  0
    0.8329    6.1514    0.4165 H   0  0  0  0  0  0  0  0  0  0  0  0
   -0.8886    4.4801    1.0582 H   0  0  0  0  0  0  0  0  0  0  0  0
   -1.0987    2.3591   -0.2106 H   0  0  0  0  0  0  0  0  0  0  0  0
  1  2  2  0  0  0  0
  2  3  1  0  0  0  0
  3  4  2  0  0  0  0
  3  8  1  0  0  0  0
  4  5  1  0  0  0  0
  5  7  1  0  0  0  0
  5  6  1  0  0  0  0
  7 13  1  0  0  0  0
  8  7  2  0  0  0  0
  9  8  1  0  0  0  0
  9 10  2  0  0  0  0
 11  9  1  0  0  0  0
 12 30  1  0  0  0  0
 12 11  1  0  0  0  0
 12 29  1  0  0  0  0
 13 31  1  0  0  0  0
 13 33  1  0  0  0  0
 14  4  1  0  0  0  0
 14 35  1  0  0  0  0
 15  2  1  0  0  0  0
 16 15  1  0  0  0  0
 16 37  1  0  0  0  0
 17 16  2  0  0  0  0
 18 19  2  0  0  0  0
 18 17  1  0  0  0  0
 19 20  1  0  0  0  0
 20 15  2  0  0  0  0
 21 20  1  0  0  0  0
 21 41  1  0  0  0  0
 21 22  1  0  0  0  0
 22 27  1  0  0  0  0
 23 22  2  0  0  0  0
 23 24  1  0  0  0  0
 24 25  2  0  0  0  0
 25 26  1  0  0  0  0
 25 45  1  0  0  0  0
 26 46  1  0  0  0  0
 27 47  1  0  0  0  0
 27 26  2  0  0  0  0
 28 12  1  0  0  0  0
 32 13  1  0  0  0  0
 34 14  1  0  0  0  0
 36 14  1  0  0  0  0
 38 17  1  0  0  0  0
 39 18  1  0  0  0  0
 40 19  1  0  0  0  0
 42 21  1  0  0  0  0
 43 23  1  0  0  0  0
 44 24  1  0  0  0  0
M  END
$$$$
