rmsd20.gzmat
 OpenBabel08211713403D

 47 49  0  0  0  0  0  0  0  0999 V2000
    0.0000    0.0000    0.0000 O   0  0  0  0  0  0  0  0  0  0  0  0
    1.2125    0.0000    0.0000 C   0  0  0  0  0  0  0  0  0  0  0  0
    1.9606    0.0000    1.2590 C   0  0  0  0  0  0  0  0  0  0  0  0
    1.5761    0.6936    2.4051 C   0  0  0  0  0  0  0  0  0  0  0  0
    2.5486    0.4770    3.3862 N   0  0  0  0  0  0  0  0  0  0  0  0
    2.5339    0.8550    4.3063 H   0  0  0  0  0  0  0  0  0  0  0  0
    3.5354   -0.3631    2.8744 C   0  0  0  0  0  0  0  0  0  0  0  0
    3.1867   -0.6785    1.5588 C   0  0  0  0  0  0  0  0  0  0  0  0
    3.9538   -1.5728    0.7123 C   0  0  0  0  0  0  0  0  0  0  0  0
    5.1250   -1.8545    0.8236 O   0  0  0  0  0  0  0  0  0  0  0  0
    3.1762   -2.1184   -0.2593 O   0  0  0  0  0  0  0  0  0  0  0  0
    3.8453   -2.9931   -1.1640 C   0  0  0  0  0  0  0  0  0  0  0  0
    4.6911   -0.7813    3.6829 C   0  0  0  0  0  0  0  0  0  0  0  0
    0.4039    1.5467    2.6585 C   0  0  0  0  0  0  0  0  0  0  0  0
    1.9827    0.0582   -1.2679 C   0  0  0  0  0  0  0  0  0  0  0  0
    3.0644    0.9358   -1.3525 C   0  0  0  0  0  0  0  0  0  0  0  0
    3.8100    1.0160   -2.5247 C   0  0  0  0  0  0  0  0  0  0  0  0
    3.4755    0.2067   -3.6094 C   0  0  0  0  0  0  0  0  0  0  0  0
    2.3936   -0.6652   -3.5291 C   0  0  0  0  0  0  0  0  0  0  0  0
    1.6275   -0.7419   -2.3626 C   0  0  0  0  0  0  0  0  0  0  0  0
    0.4491   -1.6621   -2.2509 C   0  0  0  0  0  0  0  0  0  0  0  0
    0.2103   -2.5026   -3.4657 C   0  0  0  0  0  0  0  0  0  0  0  0
    0.7031   -3.8077   -3.5289 C   0  0  0  0  0  0  0  0  0  0  0  0
    0.4794   -4.5829   -4.6648 C   0  0  0  0  0  0  0  0  0  0  0  0
   -0.2409   -4.0614   -5.7378 C   0  0  0  0  0  0  0  0  0  0  0  0
   -0.7408   -2.7614   -5.6728 C   0  0  0  0  0  0  0  0  0  0  0  0
   -0.5162   -1.9830   -4.5405 C   0  0  0  0  0  0  0  0  0  0  0  0
    3.1090   -3.1242   -1.9670 H   0  0  0  0  0  0  0  0  0  0  0  0
    4.0719   -3.9358   -0.6578 H   0  0  0  0  0  0  0  0  0  0  0  0
    4.7634   -2.5349   -1.5486 H   0  0  0  0  0  0  0  0  0  0  0  0
    5.2023    0.0639    4.1667 H   0  0  0  0  0  0  0  0  0  0  0  0
    5.4547   -1.2839    3.0498 H   0  0  0  0  0  0  0  0  0  0  0  0
    4.4127   -1.5041    4.4658 H   0  0  0  0  0  0  0  0  0  0  0  0
    0.6626    2.6160    2.6864 H   0  0  0  0  0  0  0  0  0  0  0  0
   -0.1084    1.2972    3.5989 H   0  0  0  0  0  0  0  0  0  0  0  0
   -0.3528    1.4217    1.8555 H   0  0  0  0  0  0  0  0  0  0  0  0
    3.3310    1.5533   -0.4941 H   0  0  0  0  0  0  0  0  0  0  0  0
    4.6524    1.6992   -2.5896 H   0  0  0  0  0  0  0  0  0  0  0  0
    4.0642    0.2545   -4.5240 H   0  0  0  0  0  0  0  0  0  0  0  0
    2.1455   -1.2900   -4.3864 H   0  0  0  0  0  0  0  0  0  0  0  0
   -0.4643   -1.0542   -2.0229 H   0  0  0  0  0  0  0  0  0  0  0  0
    0.5681   -2.3044   -1.3450 H   0  0  0  0  0  0  0  0  0  0  0  0
    1.2569   -4.2234   -2.6898 H   0  0  0  0  0  0  0  0  0  0  0  0
    0.8662   -5.5987   -4.7131 H   0  0  0  0  0  0  0  0  0  0  0  0
   -0.4162   -4.6676   -6.6226 H   0  0  0  0  0  0  0  0  0  0  0  0
   -1.3095   -2.3555   -6.5071 H   0  0  0  0  0  0  0  0  0  0  0  0
   -0.9047   -0.9673   -4.4918 H   0  0  0  0  0  0  0  0  0  0  0  0
  2  1  2  0  0  0  0
  2  3  1  0  0  0  0
  3  8  1  0  0  0  0
  3  4  2  0  0  0  0
  4 14  1  0  0  0  0
  4  5  1  0  0  0  0
  5  6  1  0  0  0  0
  7  5  1  0  0  0  0
  7 13  1  0  0  0  0
  8  7  2  0  0  0  0
  9 10  2  0  0  0  0
  9  8  1  0  0  0  0
 11  9  1  0  0  0  0
 12 29  1  0  0  0  0
 12 11  1  0  0  0  0
 13 31  1  0  0  0  0
 13 33  1  0  0  0  0
 14 34  1  0  0  0  0
 14 35  1  0  0  0  0
 15  2  1  0  0  0  0
 16 15  1  0  0  0  0
 16 37  1  0  0  0  0
 17 16  2  0  0  0  0
 18 19  2  0  0  0  0
 18 17  1  0  0  0  0
 19 20  1  0  0  0  0
 20 21  1  0  0  0  0
 20 15  2  0  0  0  0
 21 41  1  0  0  0  0
 21 42  1  0  0  0  0
 22 21  1  0  0  0  0
 23 22  1  0  0  0  0
 23 43  1  0  0  0  0
 24 23  2  0  0  0  0
 25 26  2  0  0  0  0
 25 24  1  0  0  0  0
 26 27  1  0  0  0  0
 27 47  1  0  0  0  0
 27 22  2  0  0  0  0
 28 12  1  0  0  0  0
 30 12  1  0  0  0  0
 32 13  1  0  0  0  0
 36 14  1  0  0  0  0
 38 17  1  0  0  0  0
 39 18  1  0  0  0  0
 40 19  1  0  0  0  0
 44 24  1  0  0  0  0
 45 25  1  0  0  0  0
 46 26  1  0  0  0  0
M  END
$$$$
