47
rmsd206.gzmat
O          0.00000        0.00000        0.00000
C          1.21340        0.00000        0.00000
C          1.95180        0.00000        1.26400
C          1.55210        0.70650        2.39750
N          2.48820        0.46460        3.40710
H          2.45560        0.84120        4.32740
C          3.46420       -0.40590        2.92640
C          3.15110       -0.70890        1.59830
C          3.92840       -1.61840        0.77790
O          5.06230       -1.98990        0.98060
O          3.21480       -2.05680       -0.29120
C          3.90330       -2.94020       -1.17240
C          4.57320       -0.86190        3.77830
C          0.39810        1.59500        2.61040
C          1.97140        0.05490       -1.27380
C          3.08410        0.89220       -1.36420
C          3.78920        0.99070       -2.55970
C          3.38090        0.24370       -3.66380
C          2.27340       -0.59460       -3.57510
C          1.55420       -0.69690       -2.38110
C          0.34540       -1.57560       -2.26560
C          0.19860       -2.55990       -3.38300
C          0.79550       -3.81920       -3.28950
C          0.65690       -4.73560       -4.32910
C         -0.08440       -4.40210       -5.46140
C         -0.68540       -3.14760       -5.55360
C         -0.54520       -2.22740       -4.51750
H          3.26660       -2.93770       -2.06670
H          3.96320       -3.93120       -0.71360
H          4.90620       -2.56730       -1.40810
H          5.16010       -0.02850        4.19220
H          5.28990       -1.48290        3.19820
H          4.22730       -1.48570        4.61690
H          0.66880        2.65760        2.50990
H         -0.07460        1.45960        3.59280
H         -0.39250        1.39660        1.85580
H          3.40200        1.46740       -0.49400
H          4.65470        1.64390       -2.63070
H          3.92820        0.31680       -4.60210
H          1.96470       -1.16950       -4.44740
H         -0.56070       -0.92300       -2.19030
H          0.35650       -2.11210       -1.28540
H          1.36330       -4.08740       -2.40060
H          1.12480       -5.71490       -4.25560
H         -0.19820       -5.12020       -6.26930
H         -1.26700       -2.88750       -6.43540
H         -1.01640       -1.24900       -4.59120
