47
rmsd143.gzmat
O          0.00000        0.00000        0.00000
C          1.20750        0.00000        0.00000
C          1.98020        0.00000        1.24760
C          2.92580       -0.93190        1.66050
N          3.33310       -0.58220        2.95450
H          3.99600       -1.08320        3.50020
C          2.65810        0.56760        3.35370
C          1.82460        0.95500        2.30240
C          0.99220        2.14170        2.27810
O          0.55980        2.76420        3.21940
O          0.78410        2.53730        0.99300
C         -0.07400        3.65920        0.82100
C          2.86580        1.17930        4.67550
C          3.49370       -2.10230        0.97380
C          1.99510       -0.00880       -1.26240
C          3.07100        0.87390       -1.37160
C          3.82610        0.91510       -2.53980
C          3.50820        0.06420       -3.59730
C          2.43830       -0.81950       -3.48880
C          1.66690       -0.85790       -2.32320
C          0.51080       -1.81110       -2.24280
C          0.85280       -2.98500       -1.37410
C          0.23820       -3.14290       -0.13030
C          0.56120       -4.23390        0.67310
C          1.49250       -5.17420        0.23580
C          2.10620       -5.01820       -1.00610
C          1.79080       -3.92470       -1.80890
H         -0.08770        3.79010       -0.26720
H          0.33800        4.53660        1.32880
H         -1.07310        3.42850        1.20580
H          2.68670        0.47340        5.50040
H          2.15740        2.02110        4.83330
H          3.87790        1.59250        4.79650
H          3.50790       -3.00480        1.60240
H          4.52180       -1.91770        0.62390
H          2.90390       -2.36740        0.07390
H          3.31310        1.53570       -0.53700
H          4.65900        1.60810       -2.62670
H          4.09500        0.09260       -4.51340
H          2.19800       -1.47880       -4.31960
H          0.20910       -2.16380       -3.25270
H         -0.39270       -1.27490       -1.86000
H         -0.48990       -2.40640        0.21810
H          0.08340       -4.35080        1.64410
H          1.73540       -6.03070        0.85920
H          2.82910       -5.75370       -1.35160
H          2.27630       -3.80070       -2.77410
