47
rmsd11.gzmat
O          0.00000        0.00000        0.00000
C          1.21320        0.00000        0.00000
C          1.95790        0.00000        1.25870
C          1.49770        0.58160        2.44110
N          2.48630        0.41900        3.41480
H          2.42960        0.74070        4.35460
C          3.56130       -0.27690        2.86360
C          3.25030       -0.55440        1.53100
C          4.11450       -1.31580        0.64750
O          5.32010       -1.39530        0.69940
O          3.38940       -2.00320       -0.27370
C          4.14700       -2.79040       -1.18820
C          4.75440       -0.61320        3.65580
C          0.23940        1.28500        2.73570
C          1.97360        0.07940       -1.27310
C          2.96140        1.06280       -1.38550
C          3.67130        1.21040       -2.57120
C          3.39900        0.36760       -3.65000
C          2.42270       -0.61470       -3.53850
C          1.69630       -0.76560       -2.34980
C          0.64380       -1.83420       -2.28960
C         -0.46720       -1.49010       -3.23810
C         -1.28220       -0.38690       -2.97100
C         -2.29370       -0.03900       -3.86020
C         -2.50280       -0.79650       -5.01280
C         -1.69800       -1.90320       -5.27290
C         -0.67820       -2.25070       -4.38820
H          4.92960       -2.18950       -1.66450
H          3.39490       -3.10850       -1.91920
H          4.58680       -3.64210       -0.66150
H          5.14840        0.24330        4.22170
H          5.58130       -0.95600        2.99740
H          4.56320       -1.43130        4.36800
H          0.36810        2.37830        2.75370
H         -0.20790        0.98120        3.69220
H         -0.52270        1.06890        1.95590
H          3.17550        1.71360       -0.53730
H          4.43760        1.97670       -2.65700
H          3.95070        0.48270       -4.58110
H          2.20210       -1.26270       -4.38490
H          0.23180       -1.95620       -1.26070
H          1.09060       -2.82330       -2.52480
H         -1.11730        0.19660       -2.06120
H         -2.92260        0.82490       -3.65550
H         -3.29410       -0.52400       -5.70650
H         -1.86270       -2.49740       -6.16840
H         -0.05170       -3.11340       -4.59820
