
     RDKit          3D

 47 49  0  0  0  0  0  0  0  0999 V2000
   -0.0092    0.4512   -0.3302 O   0  0  0  0  0  0  0  0  0  0  0  0
    1.1898    0.1902   -0.3556 C   0  0  0  0  0  0  0  0  0  0  0  0
    1.8600   -0.3110    0.8623 C   0  0  0  0  0  0  0  0  0  0  0  0
    1.4400    0.0606    2.1380 C   0  0  0  0  0  0  0  0  0  0  0  0
    2.3278   -0.4890    3.0284 N   0  0  0  0  0  0  0  0  0  0  0  0
    2.2715   -0.3703    4.0329 H   0  0  0  0  0  0  0  0  0  0  0  0
    3.3075   -1.2147    2.3906 C   0  0  0  0  0  0  0  0  0  0  0  0
    3.0428   -1.1320    1.0302 C   0  0  0  0  0  0  0  0  0  0  0  0
    3.7944   -1.8802    0.0064 C   0  0  0  0  0  0  0  0  0  0  0  0
    4.9448   -2.2545    0.1083 O   0  0  0  0  0  0  0  0  0  0  0  0
    3.0325   -2.1399   -1.0687 O   0  0  0  0  0  0  0  0  0  0  0  0
    3.6732   -2.7498   -2.1858 C   0  0  0  0  0  0  0  0  0  0  0  0
    4.3690   -1.9398    3.1462 C   0  0  0  0  0  0  0  0  0  0  0  0
    0.2875    0.8920    2.5884 C   0  0  0  0  0  0  0  0  0  0  0  0
    2.0182    0.4661   -1.5800 C   0  0  0  0  0  0  0  0  0  0  0  0
    3.3130    0.9797   -1.4018 C   0  0  0  0  0  0  0  0  0  0  0  0
    4.1267    1.2936   -2.4895 C   0  0  0  0  0  0  0  0  0  0  0  0
    3.6466    1.0852   -3.7832 C   0  0  0  0  0  0  0  0  0  0  0  0
    2.3584    0.5798   -3.9692 C   0  0  0  0  0  0  0  0  0  0  0  0
    1.5201    0.2713   -2.8894 C   0  0  0  0  0  0  0  0  0  0  0  0
    0.1562   -0.3362   -3.1781 C   0  0  0  0  0  0  0  0  0  0  0  0
    0.1996   -1.8531   -3.1581 C   0  0  0  0  0  0  0  0  0  0  0  0
   -0.0549   -2.5688   -1.9792 C   0  0  0  0  0  0  0  0  0  0  0  0
    0.0511   -3.9612   -1.9539 C   0  0  0  0  0  0  0  0  0  0  0  0
    0.4035   -4.6644   -3.1090 C   0  0  0  0  0  0  0  0  0  0  0  0
    0.6457   -3.9631   -4.2940 C   0  0  0  0  0  0  0  0  0  0  0  0
    0.5469   -2.5697   -4.3135 C   0  0  0  0  0  0  0  0  0  0  0  0
    2.8852   -2.9248   -2.9250 H   0  0  0  0  0  0  0  0  0  0  0  0
    4.1501   -3.6961   -1.8922 H   0  0  0  0  0  0  0  0  0  0  0  0
    4.4414   -2.0762   -2.5956 H   0  0  0  0  0  0  0  0  0  0  0  0
    4.9511   -1.2462    3.7771 H   0  0  0  0  0  0  0  0  0  0  0  0
    5.0578   -2.4148    2.4382 H   0  0  0  0  0  0  0  0  0  0  0  0
    3.9418   -2.7127    3.8083 H   0  0  0  0  0  0  0  0  0  0  0  0
    0.5102    1.4029    3.5391 H   0  0  0  0  0  0  0  0  0  0  0  0
   -0.6148    0.2741    2.7325 H   0  0  0  0  0  0  0  0  0  0  0  0
    0.0284    1.6376    1.8260 H   0  0  0  0  0  0  0  0  0  0  0  0
    3.6848    1.1366   -0.3881 H   0  0  0  0  0  0  0  0  0  0  0  0
    5.1287    1.6962   -2.3258 H   0  0  0  0  0  0  0  0  0  0  0  0
    4.2706    1.3199   -4.6490 H   0  0  0  0  0  0  0  0  0  0  0  0
    1.9864    0.4200   -4.9846 H   0  0  0  0  0  0  0  0  0  0  0  0
   -0.1647   -0.0007   -4.1755 H   0  0  0  0  0  0  0  0  0  0  0  0
   -0.5701    0.0302   -2.4460 H   0  0  0  0  0  0  0  0  0  0  0  0
   -0.3339   -2.0269   -1.0744 H   0  0  0  0  0  0  0  0  0  0  0  0
   -0.1435   -4.5006   -1.0236 H   0  0  0  0  0  0  0  0  0  0  0  0
    0.4841   -5.7539   -3.0881 H   0  0  0  0  0  0  0  0  0  0  0  0
    0.9134   -4.5027   -5.2061 H   0  0  0  0  0  0  0  0  0  0  0  0
    0.7437   -2.0267   -5.2421 H   0  0  0  0  0  0  0  0  0  0  0  0
  1  2  2  0
  2  3  1  0
  2 15  1  0
  3  4  2  0
  3  8  1  0
  4  5  1  0
  4 14  1  0
  5  6  1  0
  5  7  1  0
  7  8  2  0
  7 13  1  0
  8  9  1  0
  9 10  2  0
  9 11  1  0
 11 12  1  0
 12 28  1  0
 12 29  1  0
 12 30  1  0
 13 31  1  0
 13 32  1  0
 13 33  1  0
 14 34  1  0
 14 35  1  0
 14 36  1  0
 15 16  2  0
 15 20  1  0
 16 17  1  0
 16 37  1  0
 17 18  2  0
 17 38  1  0
 18 19  1  0
 18 39  1  0
 19 20  2  0
 19 40  1  0
 20 21  1  0
 21 22  1  0
 21 41  1  0
 21 42  1  0
 22 23  2  0
 22 27  1  0
 23 24  1  0
 23 43  1  0
 24 25  2  0
 24 44  1  0
 25 26  1  0
 25 45  1  0
 26 27  2  0
 26 46  1  0
 27 47  1  0
M  END

