47
rmsd167.gzmat
O          0.00000        0.00000        0.00000
C          1.20710        0.00000        0.00000
C          1.98840        0.00000        1.24070
C          2.98090        0.90180        1.61190
N          3.40060        0.56750        2.90430
H          4.08990        1.05750        3.42700
C          2.68670       -0.54390        3.34590
C          1.81190       -0.91770        2.32440
C          0.91650       -2.05820        2.35340
O          0.45320       -2.61150        3.32280
O          0.68270       -2.49870        1.08790
C         -0.24280       -3.57260        0.96640
C          2.90430       -1.13810        4.67410
C          3.55890        2.04240        0.88600
C          1.99860        0.02330       -1.26160
C          3.04600       -0.88820       -1.40170
C          3.82700       -0.88250       -2.55340
C          3.56220        0.04150       -3.56330
C          2.51150        0.94480       -3.42890
C          1.71360        0.93570       -2.28090
C          0.57680        1.90790       -2.16650
C          0.93700        3.03630       -1.24630
C          1.92970        3.94650       -1.61720
C          2.26430        4.99730       -0.76740
C          1.61290        5.14220        0.45710
C          0.62240        4.23420        0.82770
C          0.28470        3.18180       -0.02050
H         -1.22100       -3.27270        1.35770
H          0.12870       -4.45510        1.49550
H         -0.28420       -3.73580       -0.11660
H          3.92940       -1.51160        4.81060
H          2.22490       -2.00290        4.83340
H          2.68790       -0.43110        5.48990
H          4.60640        2.24200        1.14370
H          2.98530        2.97200        1.06560
H          3.52440        1.88030       -0.20830
H          3.24850       -1.60610       -0.60390
H          4.64150       -1.59430       -2.66280
H          4.17700        0.05460       -4.46140
H          2.30870        1.65830       -4.22420
H         -0.33930        1.37400       -1.81180
H          0.28910        2.30950       -3.16210
H          2.44120        3.83220       -2.57050
H          3.03320        5.70800       -1.06180
H          1.87220        5.96540        1.11760
H          0.10980        4.34620        1.78140
H         -0.48350        2.46470        0.27830
