rmsd43.gzmat
 OpenBabel08211713373D

 24 25  0  0  1  0  0  0  0  0999 V2000
    0.0000    0.0000    0.0000 Br  0  0  0  0  0  0  0  0  0  0  0  0
    1.8972    0.0000    0.0000 C   0  0  0  0  0  0  0  0  0  0  0  0
    2.5701    0.0000    1.2164 C   0  0  0  0  0  0  0  0  0  0  0  0
    3.9647   -0.0085    1.2101 C   0  0  0  0  0  0  0  0  0  0  0  0
    4.6578   -0.0114   -0.0000 C   0  0  0  0  0  0  0  0  0  0  0  0
    6.4110   -0.0237    0.0046 S   0  0  0  0  0  0  0  0  0  0  0  0
    6.8859    0.4053   -1.2882 O   0  0  0  0  0  0  0  0  0  0  0  0
    6.8855    0.5379    1.2436 O   0  0  0  0  0  0  0  0  0  0  0  0
    6.7934   -1.7252    0.1216 N   0  0  0  0  0  0  0  0  0  0  0  0
    7.3419   -2.4270   -1.0144 C   0  0  2  0  0  0  0  0  0  0  0  0
    7.2977   -1.8089   -1.9542 H   0  0  0  0  0  0  0  0  0  0  0  0
    6.5797   -3.7596   -1.2159 C   0  0  0  0  0  0  0  0  0  0  0  0
    5.4538   -4.0392   -1.4191 O   0  0  0  0  0  0  0  0  0  0  0  0
    8.1028   -4.7836   -1.0448 S   0  0  0  0  0  0  0  0  0  0  0  0
    8.7413   -3.0594   -0.8077 C   0  0  0  0  0  0  0  0  0  0  0  0
    3.9659   -0.0028   -1.2105 C   0  0  0  0  0  0  0  0  0  0  0  0
    2.5709    0.0015   -1.2158 C   0  0  0  0  0  0  0  0  0  0  0  0
    2.0329    0.0078    2.1651 H   0  0  0  0  0  0  0  0  0  0  0  0
    4.4995   -0.0046    2.1677 H   0  0  0  0  0  0  0  0  0  0  0  0
    7.1290   -2.0574    1.0232 H   0  0  0  0  0  0  0  0  0  0  0  0
    9.1832   -2.8912    0.1813 H   0  0  0  0  0  0  0  0  0  0  0  0
    9.4849   -2.7633   -1.5573 H   0  0  0  0  0  0  0  0  0  0  0  0
    4.5005    0.0078   -2.1689 H   0  0  0  0  0  0  0  0  0  0  0  0
    2.0333    0.0047   -2.1641 H   0  0  0  0  0  0  0  0  0  0  0  0
  2  1  1  0  0  0  0
  2  3  2  0  0  0  0
  3 18  1  0  0  0  0
  4  3  1  0  0  0  0
  4 19  1  0  0  0  0
  5  6  1  0  0  0  0
  5  4  2  0  0  0  0
  6  9  1  0  0  0  0
  6  8  2  0  0  0  0
  7  6  2  0  0  0  0
  9 20  1  0  0  0  0
 10 11  1  6  0  0  0
 10 15  1  0  0  0  0
 10  9  1  0  0  0  0
 12 14  1  0  0  0  0
 12 10  1  0  0  0  0
 13 12  2  0  0  0  0
 14 15  1  0  0  0  0
 15 21  1  0  0  0  0
 16  5  1  0  0  0  0
 17 16  2  0  0  0  0
 17  2  1  0  0  0  0
 22 15  1  0  0  0  0
 23 16  1  0  0  0  0
 24 17  1  0  0  0  0
M  END
$$$$
