24
rmsd24.gzmat
Br         0.00000        0.00000        0.00000
C          1.89690        0.00000        0.00000
C          2.57130        0.00000        1.21520
C          3.96680        0.00680        1.20910
C          4.65920        0.00950       -0.00090
S          6.41420        0.04080       -0.02640
O          6.84660       -0.26490       -1.36830
O          6.89750        1.18340        0.70400
N          6.87380       -1.32180        0.97460
C          7.34510       -2.53120        0.33730
H          6.84660       -2.68440       -0.65850
C          7.08890       -3.74980        1.25530
O          6.12750       -4.21440        1.75350
S          8.86240       -4.24310        1.28270
C          8.88280       -2.71100        0.24110
C          3.96480        0.00180       -1.21050
C          2.57020        0.00020       -1.21620
H          2.03440       -0.00570        2.16420
H          4.49670        0.00750        2.16750
H          7.37990       -1.08400        1.82880
H          9.47150       -1.89440        0.67540
H          9.25220       -2.87580       -0.77860
H          4.49970       -0.00480       -2.16980
H          2.03270       -0.00040       -2.16460
