24

Br         0.11600        0.02740       -0.48020
C          2.00050       -0.00790       -0.24720
C          2.53140        0.04020        1.04860
C          3.91290        0.01330        1.22120
C          4.73910       -0.06700        0.09640
S          6.50950       -0.09820        0.32480
O          7.12190       -0.01660       -1.00550
O          6.87440        0.81190        1.40810
N          6.76540       -1.64430        0.95390
C          6.97110       -2.72800        0.03370
H          6.15390       -2.71550       -0.70740
C          6.98430       -4.12600        0.68140
O          6.30720       -4.63840        1.51430
S          8.42620       -4.69360       -0.26220
C          8.33690       -2.89510       -0.68120
C          4.21480       -0.10490       -1.19570
C          2.82940       -0.07740       -1.37020
H          1.86640        0.10130        1.91080
H          4.35070        0.05830        2.21960
H          7.39010       -1.59050        1.75800
H          9.13990       -2.32570       -0.19500
H          8.33250       -2.68300       -1.75700
H          4.89110       -0.14500       -2.05060
H          2.39700       -0.10550       -2.37100
