rmsd56.gzmat
 OpenBabel08211713373D

 24 25  0  0  1  0  0  0  0  0999 V2000
    0.0000    0.0000    0.0000 Br  0  0  0  0  0  0  0  0  0  0  0  0
    1.8970    0.0000    0.0000 C   0  0  0  0  0  0  0  0  0  0  0  0
    2.5707    0.0000    1.2159 C   0  0  0  0  0  0  0  0  0  0  0  0
    3.9659   -0.0032    1.2108 C   0  0  0  0  0  0  0  0  0  0  0  0
    4.6592   -0.0124    0.0012 C   0  0  0  0  0  0  0  0  0  0  0  0
    6.4140   -0.0284   -0.0095 S   0  0  0  0  0  0  0  0  0  0  0  0
    6.8623   -0.0016   -1.3805 O   0  0  0  0  0  0  0  0  0  0  0  0
    6.9135    0.8730    0.9961 O   0  0  0  0  0  0  0  0  0  0  0  0
    6.8117   -1.6156    0.6123 N   0  0  0  0  0  0  0  0  0  0  0  0
    7.3130   -2.6285   -0.2874 C   0  0  2  0  0  0  0  0  0  0  0  0
    6.9672   -2.4496   -1.3421 H   0  0  0  0  0  0  0  0  0  0  0  0
    6.8582   -4.0272    0.1935 C   0  0  0  0  0  0  0  0  0  0  0  0
    5.8103   -4.5276    0.3910 O   0  0  0  0  0  0  0  0  0  0  0  0
    8.5819   -4.6613    0.3336 S   0  0  0  0  0  0  0  0  0  0  0  0
    8.8363   -2.9133   -0.2253 C   0  0  0  0  0  0  0  0  0  0  0  0
    3.9659   -0.0074   -1.2087 C   0  0  0  0  0  0  0  0  0  0  0  0
    2.5713    0.0002   -1.2155 C   0  0  0  0  0  0  0  0  0  0  0  0
    2.0328    0.0005    2.1640 H   0  0  0  0  0  0  0  0  0  0  0  0
    4.4969    0.0052    2.1691 H   0  0  0  0  0  0  0  0  0  0  0  0
    7.2467   -1.6314    1.5349 H   0  0  0  0  0  0  0  0  0  0  0  0
    9.3940   -2.3005    0.4917 H   0  0  0  0  0  0  0  0  0  0  0  0
    9.3458   -2.8327   -1.1935 H   0  0  0  0  0  0  0  0  0  0  0  0
    4.5007   -0.0060   -2.1680 H   0  0  0  0  0  0  0  0  0  0  0  0
    2.0354    0.0043   -2.1647 H   0  0  0  0  0  0  0  0  0  0  0  0
  1  2  1  0  0  0  0
  2  3  2  0  0  0  0
  3 18  1  0  0  0  0
  4  3  1  0  0  0  0
  4 19  1  0  0  0  0
  5  4  2  0  0  0  0
  6  5  1  0  0  0  0
  6  9  1  0  0  0  0
  6  8  2  0  0  0  0
  7  6  2  0  0  0  0
  9 20  1  0  0  0  0
 10 11  1  6  0  0  0
 10 15  1  0  0  0  0
 10 12  1  0  0  0  0
 10  9  1  0  0  0  0
 12 14  1  0  0  0  0
 12 13  2  0  0  0  0
 15 14  1  0  0  0  0
 15 21  1  0  0  0  0
 16  5  1  0  0  0  0
 17 16  2  0  0  0  0
 17  2  1  0  0  0  0
 22 15  1  0  0  0  0
 23 16  1  0  0  0  0
 24 17  1  0  0  0  0
M  END
$$$$
