rmsd42.gzmat
 OpenBabel08211713373D

 24 25  0  0  1  0  0  0  0  0999 V2000
    0.0000    0.0000    0.0000 Br  0  0  0  0  0  0  0  0  0  0  0  0
    1.8968    0.0000    0.0000 C   0  0  0  0  0  0  0  0  0  0  0  0
    2.5712    0.0000    1.2152 C   0  0  0  0  0  0  0  0  0  0  0  0
    3.9663    0.0066    1.2089 C   0  0  0  0  0  0  0  0  0  0  0  0
    4.6578    0.0044   -0.0019 C   0  0  0  0  0  0  0  0  0  0  0  0
    6.4115    0.0117   -0.0114 S   0  0  0  0  0  0  0  0  0  0  0  0
    6.8583    0.0577   -1.3821 O   0  0  0  0  0  0  0  0  0  0  0  0
    6.9004    0.9090    1.0033 O   0  0  0  0  0  0  0  0  0  0  0  0
    6.8244   -1.5785    0.5930 N   0  0  0  0  0  0  0  0  0  0  0  0
    7.2705   -2.5915   -0.3355 C   0  0  2  0  0  0  0  0  0  0  0  0
    6.8303   -2.4300   -1.3570 H   0  0  0  0  0  0  0  0  0  0  0  0
    6.8931   -3.9967    0.1906 C   0  0  0  0  0  0  0  0  0  0  0  0
    5.8783   -4.5176    0.4844 O   0  0  0  0  0  0  0  0  0  0  0  0
    8.6356   -4.5925    0.1740 S   0  0  0  0  0  0  0  0  0  0  0  0
    8.7998   -2.8399   -0.4039 C   0  0  0  0  0  0  0  0  0  0  0  0
    3.9644    0.0009   -1.2118 C   0  0  0  0  0  0  0  0  0  0  0  0
    2.5695    0.0023   -1.2165 C   0  0  0  0  0  0  0  0  0  0  0  0
    2.0351   -0.0058    2.1644 H   0  0  0  0  0  0  0  0  0  0  0  0
    4.4995    0.0177    2.1660 H   0  0  0  0  0  0  0  0  0  0  0  0
    7.3073   -1.5992    1.4915 H   0  0  0  0  0  0  0  0  0  0  0  0
    9.4001   -2.2133    0.2655 H   0  0  0  0  0  0  0  0  0  0  0  0
    9.2245   -2.7450   -1.4110 H   0  0  0  0  0  0  0  0  0  0  0  0
    4.4997    0.0014   -2.1708 H   0  0  0  0  0  0  0  0  0  0  0  0
    2.0312    0.0053   -2.1644 H   0  0  0  0  0  0  0  0  0  0  0  0
  1  2  1  0  0  0  0
  2  3  2  0  0  0  0
  3 18  1  0  0  0  0
  4  3  1  0  0  0  0
  4 19  1  0  0  0  0
  5  4  2  0  0  0  0
  6  5  1  0  0  0  0
  6  9  1  0  0  0  0
  6  8  2  0  0  0  0
  7  6  2  0  0  0  0
  9 20  1  0  0  0  0
 10 11  1  6  0  0  0
 10 12  1  0  0  0  0
 10  9  1  0  0  0  0
 12 13  2  0  0  0  0
 14 12  1  0  0  0  0
 15 10  1  0  0  0  0
 15 14  1  0  0  0  0
 15 21  1  0  0  0  0
 16  5  1  0  0  0  0
 17 16  2  0  0  0  0
 17  2  1  0  0  0  0
 22 15  1  0  0  0  0
 23 16  1  0  0  0  0
 24 17  1  0  0  0  0
M  END
$$$$
