24
rmsd56.gzmat
Br         0.00000        0.00000        0.00000
C          1.89700        0.00000        0.00000
C          2.57070        0.00000        1.21590
C          3.96590       -0.00320        1.21080
C          4.65920       -0.01240        0.00120
S          6.41400       -0.02840       -0.00950
O          6.86230       -0.00160       -1.38050
O          6.91350        0.87300        0.99610
N          6.81170       -1.61560        0.61230
C          7.31300       -2.62850       -0.28740
H          6.96720       -2.44960       -1.34210
C          6.85820       -4.02720        0.19350
O          5.81030       -4.52760        0.39100
S          8.58190       -4.66130        0.33360
C          8.83630       -2.91330       -0.22530
C          3.96590       -0.00740       -1.20870
C          2.57130        0.00020       -1.21550
H          2.03280        0.00050        2.16400
H          4.49690        0.00520        2.16910
H          7.24670       -1.63140        1.53490
H          9.39400       -2.30050        0.49170
H          9.34580       -2.83270       -1.19350
H          4.50070       -0.00600       -2.16800
H          2.03540        0.00430       -2.16470
