24
rmsd39.gzmat
Br         0.00000        0.00000        0.00000
C          1.89750        0.00000        0.00000
C          2.57030        0.00000        1.21630
C          3.96480       -0.01520        1.21100
C          4.65730       -0.03560        0.00080
S          6.40830       -0.11640        0.00190
O          6.89450        0.19380       -1.32040
O          6.91690        0.51160        1.19400
N          6.70570       -1.82090        0.24560
C          7.16230       -2.65060       -0.84310
H          7.21700       -2.08500       -1.81450
C          6.22390       -3.87480       -0.98960
O          5.07490       -4.00730       -1.21160
S          7.58370       -5.08810       -0.71720
C          8.45610       -3.45850       -0.57370
C          3.96600       -0.01760       -1.20980
C          2.57110       -0.00020       -1.21570
H          2.03250        0.00780        2.16420
H          4.49910       -0.00560        2.16860
H          7.03590       -2.10530        1.16400
H          8.90980       -3.29440        0.41030
H          9.24080       -3.31550       -1.32630
H          4.50230       -0.01340       -2.16760
H          2.03370        0.00760       -2.16400
