rmsd47.gzmat
 OpenBabel08211713373D

 24 25  0  0  1  0  0  0  0  0999 V2000
    0.0000    0.0000    0.0000 Br  0  0  0  0  0  0  0  0  0  0  0  0
    1.8972    0.0000    0.0000 C   0  0  0  0  0  0  0  0  0  0  0  0
    2.5711    0.0000    1.2158 C   0  0  0  0  0  0  0  0  0  0  0  0
    3.9661    0.0030    1.2092 C   0  0  0  0  0  0  0  0  0  0  0  0
    4.6580    0.0023   -0.0014 C   0  0  0  0  0  0  0  0  0  0  0  0
    6.4118   -0.0048   -0.0090 S   0  0  0  0  0  0  0  0  0  0  0  0
    6.8654    0.2140   -1.3613 O   0  0  0  0  0  0  0  0  0  0  0  0
    6.9036    0.7464    1.1170 O   0  0  0  0  0  0  0  0  0  0  0  0
    6.8084   -1.6622    0.3766 N   0  0  0  0  0  0  0  0  0  0  0  0
    7.2032   -2.5782   -0.6667 C   0  0  2  0  0  0  0  0  0  0  0  0
    7.1602   -2.1049   -1.6869 H   0  0  0  0  0  0  0  0  0  0  0  0
    6.2940   -3.8317   -0.6202 C   0  0  0  0  0  0  0  0  0  0  0  0
    5.1331   -4.0049   -0.7193 O   0  0  0  0  0  0  0  0  0  0  0  0
    7.7108   -4.9849   -0.3761 S   0  0  0  0  0  0  0  0  0  0  0  0
    8.5401   -3.3273   -0.4419 C   0  0  0  0  0  0  0  0  0  0  0  0
    3.9643    0.0041   -1.2112 C   0  0  0  0  0  0  0  0  0  0  0  0
    2.5698    0.0034   -1.2163 C   0  0  0  0  0  0  0  0  0  0  0  0
    2.0335   -0.0032    2.1642 H   0  0  0  0  0  0  0  0  0  0  0  0
    4.5000    0.0125    2.1664 H   0  0  0  0  0  0  0  0  0  0  0  0
    7.2408   -1.8344    1.2811 H   0  0  0  0  0  0  0  0  0  0  0  0
    9.0702   -3.0698    0.4821 H   0  0  0  0  0  0  0  0  0  0  0  0
    9.2540   -3.2307   -1.2686 H   0  0  0  0  0  0  0  0  0  0  0  0
    4.4988    0.0110   -2.1703 H   0  0  0  0  0  0  0  0  0  0  0  0
    2.0316    0.0028   -2.1644 H   0  0  0  0  0  0  0  0  0  0  0  0
  1  2  1  0  0  0  0
  2  3  2  0  0  0  0
  3 18  1  0  0  0  0
  4  3  1  0  0  0  0
  4 19  1  0  0  0  0
  5  4  2  0  0  0  0
  6  5  1  0  0  0  0
  6  9  1  0  0  0  0
  6  8  2  0  0  0  0
  7  6  2  0  0  0  0
  9 20  1  0  0  0  0
 10 11  1  6  0  0  0
 10 12  1  0  0  0  0
 10 15  1  0  0  0  0
 10  9  1  0  0  0  0
 12 14  1  0  0  0  0
 13 12  2  0  0  0  0
 15 14  1  0  0  0  0
 15 21  1  0  0  0  0
 16  5  1  0  0  0  0
 17 16  2  0  0  0  0
 17  2  1  0  0  0  0
 22 15  1  0  0  0  0
 23 16  1  0  0  0  0
 24 17  1  0  0  0  0
M  END
$$$$
