40
rmsd224.gzmat
C          0.00000        0.00000        0.00000
C          1.42290        0.00000        0.00000
O          2.13020        0.00000        1.12320
C          2.17730       -0.00060       -1.18200
C          1.48770        0.01400       -2.38620
O          2.25010        0.01580       -3.49960
C          0.08470        0.03180       -2.46160
C         -0.62790        0.02650       -1.26700
O         -1.97620        0.06010       -1.20490
C         -2.70850        0.03150       -2.42540
C         -0.71240       -0.03110        1.27070
O         -0.08650        0.03260        2.32530
C         -2.21090       -0.13550        1.31350
C         -2.74040       -0.38210        2.73420
C         -2.66130       -1.84000        3.07050
C         -1.50520       -2.36080        3.65120
C         -1.40580       -3.71910        3.94570
C         -2.48720       -4.54640        3.64770
O         -2.54530       -5.88810        3.87340
C         -1.39810       -6.49620        4.44970
C         -3.66150       -4.04290        3.06650
C         -3.73730       -2.68710        2.78260
H          1.50880        0.01910        1.95440
H          3.26290       -0.00940       -1.14520
H          1.71190        0.02560       -4.33020
H         -0.40590        0.05240       -3.42180
H         -2.49710       -0.88530       -2.98510
H         -2.50610        0.92680       -3.02080
H         -3.74780        0.03330       -2.06780
H         -2.55410       -0.95840        0.64550
H         -2.65170        0.79520        0.89630
H         -3.78190       -0.01440        2.81540
H         -2.15910        0.22140        3.46680
H         -0.66550       -1.69600        3.87100
H         -0.49910       -4.10800        4.39470
H         -1.70320       -7.54880        4.52070
H         -1.19850       -6.08900        5.44570
H         -0.52930       -6.39220        3.79170
H         -4.48620       -4.71500        2.84890
H         -4.64170       -2.28080        2.33240
