40
rmsd215.gzmat
C          0.00000        0.00000        0.00000
C          1.42220        0.00000        0.00000
O          2.12960        0.00000        1.12380
C          2.17470       -0.00230       -1.18300
C          1.48380        0.00960       -2.38700
O          2.24590        0.00690       -3.50040
C          0.08090        0.02500       -2.46190
C         -0.63020        0.01840       -1.26660
O         -1.97790        0.03080       -1.20230
C         -2.71510        0.05900       -2.41970
C         -0.71460       -0.02240        1.26900
O         -0.09640       -0.00350        2.32920
C         -2.21340       -0.07360        1.30050
C         -2.75770       -0.13210        2.73390
C         -4.25340       -0.16760        2.69160
C         -4.93820       -1.37720        2.85980
C         -6.32260       -1.41900        2.78680
C         -7.02310       -0.22670        2.54510
O         -8.37080       -0.40930        2.48790
C         -9.17420        0.74910        2.31680
C         -6.36170        0.98870        2.37960
C         -4.97000        1.00550        2.45660
H          1.50980        0.00540        1.95540
H          3.26020       -0.01170       -1.14770
H          1.70840        0.01070       -4.33160
H         -0.41230        0.04140       -3.42130
H         -2.50560       -0.82900       -3.02370
H         -2.51560        0.98170       -2.97310
H         -3.75300        0.04290       -2.05550
H         -2.57680       -0.95530        0.72650
H         -2.63110        0.81450        0.77520
H         -2.39200        0.73930        3.31780
H         -2.33810       -1.01260        3.26370
H         -4.38090       -2.29450        3.05020
H         -6.87230       -2.34830        2.91330
H        -10.19080        0.33440        2.36030
H         -8.98950        1.21040        1.34210
H         -9.01660        1.46190        3.13250
H         -6.90350        1.90850        2.19400
H         -4.43970        1.94880        2.32850
