40
rmsd50.gzmat
C          0.00000        0.00000        0.00000
C          1.42330        0.00000        0.00000
O          2.13170        0.00000        1.12270
C          2.17730        0.00160       -1.18210
C          1.48740       -0.00930       -2.38640
O          2.25090       -0.01220       -3.49890
C          0.08440       -0.01960       -2.46180
C         -0.62810       -0.01370       -1.26710
O         -1.97680       -0.03360       -1.20690
C         -2.70720        0.05940       -2.42510
C         -0.71110        0.02040        1.27120
O         -0.08160       -0.02290        2.32500
C         -2.21180        0.08160        1.31910
C         -2.74080        0.32780        2.74020
C         -2.73000        1.79470        3.04490
C         -3.85750        2.57630        2.76980
C         -3.84820        3.94020        3.02290
C         -2.68810        4.51770        3.56180
O         -2.81160        5.85930        3.75890
C         -1.70060        6.53250        4.33280
C         -1.55530        3.75650        3.84490
C         -1.58820        2.38890        3.58060
H          1.51110       -0.01130        1.95500
H          3.26280        0.00890       -1.14570
H          1.71530       -0.01740       -4.33090
H         -0.40630       -0.03700       -3.42210
H         -2.55790       -0.83800       -3.03260
H         -2.44340        0.96930       -2.97340
H         -3.74420        0.11400       -2.06540
H         -2.62590       -0.86490        0.91110
H         -2.58430        0.88810        0.64690
H         -2.12370       -0.23080        3.47920
H         -3.76210       -0.08860        2.84010
H         -4.74980        2.11240        2.35300
H         -4.71340        4.56230        2.81460
H         -2.06670        7.56560        4.40440
H         -0.82960        6.47950        3.67220
H         -1.47430        6.13730        5.32780
H         -0.65890        4.20360        4.25890
H         -0.70660        1.77600        3.78740
