rmsd208.gzmat
 OpenBabel08211713403D

 40 41  0  0  0  0  0  0  0  0999 V2000
    0.0000    0.0000    0.0000 C   0  0  0  0  0  0  0  0  0  0  0  0
    1.4226    0.0000    0.0000 C   0  0  0  0  0  0  0  0  0  0  0  0
    2.1294    0.0000    1.1241 O   0  0  0  0  0  0  0  0  0  0  0  0
    2.1761   -0.0010   -1.1823 C   0  0  0  0  0  0  0  0  0  0  0  0
    1.4857    0.0153   -2.3865 C   0  0  0  0  0  0  0  0  0  0  0  0
    2.2490    0.0164   -3.4992 O   0  0  0  0  0  0  0  0  0  0  0  0
    0.0829    0.0325   -2.4620 C   0  0  0  0  0  0  0  0  0  0  0  0
   -0.6292    0.0233   -1.2671 C   0  0  0  0  0  0  0  0  0  0  0  0
   -1.9770    0.0381   -1.2040 O   0  0  0  0  0  0  0  0  0  0  0  0
   -2.7122    0.0632   -2.4225 C   0  0  0  0  0  0  0  0  0  0  0  0
   -0.7144   -0.0286    1.2691 C   0  0  0  0  0  0  0  0  0  0  0  0
   -0.0962   -0.0010    2.3291 O   0  0  0  0  0  0  0  0  0  0  0  0
   -2.2122   -0.1029    1.3038 C   0  0  0  0  0  0  0  0  0  0  0  0
   -2.7496   -0.1986    2.7382 C   0  0  0  0  0  0  0  0  0  0  0  0
   -4.2371   -0.3554    2.6937 C   0  0  0  0  0  0  0  0  0  0  0  0
   -4.8114   -1.6308    2.7661 C   0  0  0  0  0  0  0  0  0  0  0  0
   -6.1861   -1.7897    2.6816 C   0  0  0  0  0  0  0  0  0  0  0  0
   -6.9890   -0.6486    2.5235 C   0  0  0  0  0  0  0  0  0  0  0  0
   -8.3149   -0.9467    2.4464 O   0  0  0  0  0  0  0  0  0  0  0  0
   -9.2136    0.1400    2.2779 C   0  0  0  0  0  0  0  0  0  0  0  0
   -6.4387    0.6300    2.4589 C   0  0  0  0  0  0  0  0  0  0  0  0
   -5.0538    0.7648    2.5484 C   0  0  0  0  0  0  0  0  0  0  0  0
    1.5085    0.0073    1.9549 H   0  0  0  0  0  0  0  0  0  0  0  0
    3.2618   -0.0127   -1.1475 H   0  0  0  0  0  0  0  0  0  0  0  0
    1.7133    0.0318   -4.3314 H   0  0  0  0  0  0  0  0  0  0  0  0
   -0.4078    0.0527   -3.4223 H   0  0  0  0  0  0  0  0  0  0  0  0
   -2.5066   -0.8290   -3.0219 H   0  0  0  0  0  0  0  0  0  0  0  0
   -2.5089    0.9822   -2.9806 H   0  0  0  0  0  0  0  0  0  0  0  0
   -3.7500    0.0530   -2.0588 H   0  0  0  0  0  0  0  0  0  0  0  0
   -2.5636   -0.9782    0.7125 H   0  0  0  0  0  0  0  0  0  0  0  0
   -2.6464    0.7884    0.7988 H   0  0  0  0  0  0  0  0  0  0  0  0
   -2.4521    0.6999    3.3184 H   0  0  0  0  0  0  0  0  0  0  0  0
   -2.2642   -1.0423    3.2726 H   0  0  0  0  0  0  0  0  0  0  0  0
   -4.1722   -2.5055    2.8887 H   0  0  0  0  0  0  0  0  0  0  0  0
   -6.6507   -2.7708    2.7360 H   0  0  0  0  0  0  0  0  0  0  0  0
  -10.1890   -0.3658    2.2658 H   0  0  0  0  0  0  0  0  0  0  0  0
   -9.0337    0.6496    1.3263 H   0  0  0  0  0  0  0  0  0  0  0  0
   -9.1535    0.8346    3.1222 H   0  0  0  0  0  0  0  0  0  0  0  0
   -7.0602    1.5101    2.3441 H   0  0  0  0  0  0  0  0  0  0  0  0
   -4.6079    1.7581    2.5025 H   0  0  0  0  0  0  0  0  0  0  0  0
  1  2  1  0  0  0  0
  1 11  1  0  0  0  0
  2  3  1  0  0  0  0
  3 23  1  0  0  0  0
  4 24  1  0  0  0  0
  4  2  2  0  0  0  0
  5  4  1  0  0  0  0
  6  5  1  0  0  0  0
  7  5  2  0  0  0  0
  7  8  1  0  0  0  0
  8  9  1  0  0  0  0
  8  1  2  0  0  0  0
 10 29  1  0  0  0  0
 10  9  1  0  0  0  0
 11 13  1  0  0  0  0
 11 12  2  0  0  0  0
 13 14  1  0  0  0  0
 14 33  1  0  0  0  0
 14 32  1  0  0  0  0
 15 14  1  0  0  0  0
 15 16  1  0  0  0  0
 16 34  1  0  0  0  0
 17 35  1  0  0  0  0
 17 16  2  0  0  0  0
 18 17  1  0  0  0  0
 19 18  1  0  0  0  0
 20 19  1  0  0  0  0
 20 38  1  0  0  0  0
 21 18  2  0  0  0  0
 21 22  1  0  0  0  0
 22 15  2  0  0  0  0
 25  6  1  0  0  0  0
 26  7  1  0  0  0  0
 27 10  1  0  0  0  0
 28 10  1  0  0  0  0
 30 13  1  0  0  0  0
 31 13  1  0  0  0  0
 36 20  1  0  0  0  0
 37 20  1  0  0  0  0
 39 21  1  0  0  0  0
 40 22  1  0  0  0  0
M  END
$$$$
