40

C         -0.06600       -0.03450       -0.02810
C          1.36500       -0.19490        0.00170
O          2.02260       -0.28920        1.14690
C          2.11390       -0.26590       -1.18060
C          1.47330       -0.15890       -2.40740
O          2.23050       -0.22870       -3.52360
C          0.07860        0.02560       -2.48490
C         -0.67510        0.09080       -1.31470
O         -2.01190        0.29090       -1.34540
C         -2.68290        0.41410       -2.57980
C         -0.78450       -0.02520        1.25180
O         -0.14560       -0.05470        2.31890
C         -2.29930        0.01700        1.33890
C         -2.84320       -0.26740        2.74550
C         -2.78280       -1.73150        3.12110
C         -1.72960       -2.26100        3.87380
C         -1.66240       -3.62340        4.18690
C         -2.66570       -4.49250        3.73780
O         -2.69510       -5.82920        3.98420
C         -1.65430       -6.40240        4.73800
C         -3.73030       -3.97710        2.98050
C         -3.78060       -2.61990        2.68210
H          1.33140       -0.20260        1.87090
H          3.19340       -0.39780       -1.12360
H          1.66860       -0.14270       -4.30470
H         -0.39050        0.12480       -3.46290
H         -2.57000       -0.49430       -3.19640
H         -2.32200        1.28590       -3.15240
H         -3.74470        0.55630       -2.34050
H         -2.72400       -0.68490        0.60850
H         -2.61560        1.01360        0.98550
H         -3.89260        0.06750        2.77280
H         -2.28950        0.33530        3.47860
H         -0.93390       -1.59520        4.21160
H         -0.82340       -3.99120        4.77710
H         -1.87360       -7.47600        4.81320
H         -1.59980       -5.97620        5.75640
H         -0.67130       -6.27130        4.24980
H         -4.50780       -4.66540        2.64350
H         -4.62140       -2.23600        2.09610
