
     RDKit          3D

 40 41  0  0  0  0  0  0  0  0999 V2000
   -0.0660   -0.0345   -0.0281 C   0  0  0  0  0  0  0  0  0  0  0  0
    1.3650   -0.1949    0.0017 C   0  0  0  0  0  0  0  0  0  0  0  0
    2.0226   -0.2892    1.1469 O   0  0  0  0  0  0  0  0  0  0  0  0
    2.1139   -0.2659   -1.1806 C   0  0  0  0  0  0  0  0  0  0  0  0
    1.4733   -0.1589   -2.4074 C   0  0  0  0  0  0  0  0  0  0  0  0
    2.2305   -0.2287   -3.5236 O   0  0  0  0  0  0  0  0  0  0  0  0
    0.0786    0.0256   -2.4849 C   0  0  0  0  0  0  0  0  0  0  0  0
   -0.6751    0.0908   -1.3147 C   0  0  0  0  0  0  0  0  0  0  0  0
   -2.0119    0.2909   -1.3454 O   0  0  0  0  0  0  0  0  0  0  0  0
   -2.6829    0.4141   -2.5798 C   0  0  0  0  0  0  0  0  0  0  0  0
   -0.7845   -0.0252    1.2518 C   0  0  0  0  0  0  0  0  0  0  0  0
   -0.1456   -0.0547    2.3189 O   0  0  0  0  0  0  0  0  0  0  0  0
   -2.2993    0.0170    1.3389 C   0  0  0  0  0  0  0  0  0  0  0  0
   -2.8432   -0.2674    2.7455 C   0  0  0  0  0  0  0  0  0  0  0  0
   -2.7828   -1.7315    3.1211 C   0  0  0  0  0  0  0  0  0  0  0  0
   -1.7296   -2.2610    3.8738 C   0  0  0  0  0  0  0  0  0  0  0  0
   -1.6624   -3.6234    4.1869 C   0  0  0  0  0  0  0  0  0  0  0  0
   -2.6657   -4.4925    3.7378 C   0  0  0  0  0  0  0  0  0  0  0  0
   -2.6951   -5.8292    3.9842 O   0  0  0  0  0  0  0  0  0  0  0  0
   -1.6543   -6.4024    4.7380 C   0  0  0  0  0  0  0  0  0  0  0  0
   -3.7303   -3.9771    2.9805 C   0  0  0  0  0  0  0  0  0  0  0  0
   -3.7806   -2.6199    2.6821 C   0  0  0  0  0  0  0  0  0  0  0  0
    1.3314   -0.2026    1.8709 H   0  0  0  0  0  0  0  0  0  0  0  0
    3.1934   -0.3978   -1.1236 H   0  0  0  0  0  0  0  0  0  0  0  0
    1.6686   -0.1427   -4.3047 H   0  0  0  0  0  0  0  0  0  0  0  0
   -0.3905    0.1248   -3.4629 H   0  0  0  0  0  0  0  0  0  0  0  0
   -2.5700   -0.4943   -3.1964 H   0  0  0  0  0  0  0  0  0  0  0  0
   -2.3220    1.2859   -3.1524 H   0  0  0  0  0  0  0  0  0  0  0  0
   -3.7447    0.5563   -2.3405 H   0  0  0  0  0  0  0  0  0  0  0  0
   -2.7240   -0.6849    0.6085 H   0  0  0  0  0  0  0  0  0  0  0  0
   -2.6156    1.0136    0.9855 H   0  0  0  0  0  0  0  0  0  0  0  0
   -3.8926    0.0675    2.7728 H   0  0  0  0  0  0  0  0  0  0  0  0
   -2.2895    0.3353    3.4786 H   0  0  0  0  0  0  0  0  0  0  0  0
   -0.9339   -1.5952    4.2116 H   0  0  0  0  0  0  0  0  0  0  0  0
   -0.8234   -3.9912    4.7771 H   0  0  0  0  0  0  0  0  0  0  0  0
   -1.8736   -7.4760    4.8132 H   0  0  0  0  0  0  0  0  0  0  0  0
   -1.5998   -5.9762    5.7564 H   0  0  0  0  0  0  0  0  0  0  0  0
   -0.6713   -6.2713    4.2498 H   0  0  0  0  0  0  0  0  0  0  0  0
   -4.5078   -4.6654    2.6435 H   0  0  0  0  0  0  0  0  0  0  0  0
   -4.6214   -2.2360    2.0961 H   0  0  0  0  0  0  0  0  0  0  0  0
  1  2  2  0
  1  8  1  0
  1 11  1  0
  2  3  1  0
  2  4  1  0
  3 23  1  0
  4  5  2  0
  4 24  1  0
  5  6  1  0
  5  7  1  0
  6 25  1  0
  7  8  2  0
  7 26  1  0
  8  9  1  0
  9 10  1  0
 10 27  1  0
 10 28  1  0
 10 29  1  0
 11 12  2  0
 11 13  1  0
 13 14  1  0
 13 30  1  0
 13 31  1  0
 14 15  1  0
 14 32  1  0
 14 33  1  0
 15 16  2  0
 15 22  1  0
 16 17  1  0
 16 34  1  0
 17 18  2  0
 17 35  1  0
 18 19  1  0
 18 21  1  0
 19 20  1  0
 20 36  1  0
 20 37  1  0
 20 38  1  0
 21 22  2  0
 21 39  1  0
 22 40  1  0
M  END

