
     RDKit          3D

 40 41  0  0  0  0  0  0  0  0999 V2000
    0.0315   -0.0009   -0.0543 C   0  0  0  0  0  0  0  0  0  0  0  0
    1.4638    0.1134    0.0396 C   0  0  0  0  0  0  0  0  0  0  0  0
    2.0731    0.1650    1.2139 O   0  0  0  0  0  0  0  0  0  0  0  0
    2.2652    0.1742   -1.1085 C   0  0  0  0  0  0  0  0  0  0  0  0
    1.6732    0.1234   -2.3633 C   0  0  0  0  0  0  0  0  0  0  0  0
    2.4799    0.1847   -3.4450 O   0  0  0  0  0  0  0  0  0  0  0  0
    0.2756    0.0115   -2.5038 C   0  0  0  0  0  0  0  0  0  0  0  0
   -0.5291   -0.0494   -1.3677 C   0  0  0  0  0  0  0  0  0  0  0  0
   -1.8733   -0.1567   -1.4574 O   0  0  0  0  0  0  0  0  0  0  0  0
   -2.5010   -0.2130   -2.7191 C   0  0  0  0  0  0  0  0  0  0  0  0
   -0.7384   -0.0589    1.1948 C   0  0  0  0  0  0  0  0  0  0  0  0
   -0.1509   -0.0097    2.2901 O   0  0  0  0  0  0  0  0  0  0  0  0
   -2.2491   -0.1775    1.2187 C   0  0  0  0  0  0  0  0  0  0  0  0
   -2.8331   -0.2266    2.6337 C   0  0  0  0  0  0  0  0  0  0  0  0
   -4.3378   -0.3429    2.6086 C   0  0  0  0  0  0  0  0  0  0  0  0
   -4.9659   -1.5927    2.4627 C   0  0  0  0  0  0  0  0  0  0  0  0
   -6.3496   -1.7064    2.3898 C   0  0  0  0  0  0  0  0  0  0  0  0
   -7.1579   -0.5594    2.4604 C   0  0  0  0  0  0  0  0  0  0  0  0
   -8.4994   -0.7639    2.3833 O   0  0  0  0  0  0  0  0  0  0  0  0
   -9.3607    0.3457    2.4642 C   0  0  0  0  0  0  0  0  0  0  0  0
   -6.5526    0.6959    2.6067 C   0  0  0  0  0  0  0  0  0  0  0  0
   -5.1574    0.7879    2.6772 C   0  0  0  0  0  0  0  0  0  0  0  0
    1.3468    0.1085    1.9067 H   0  0  0  0  0  0  0  0  0  0  0  0
    3.3456    0.2605   -1.0037 H   0  0  0  0  0  0  0  0  0  0  0  0
    1.9487    0.1395   -4.2506 H   0  0  0  0  0  0  0  0  0  0  0  0
   -0.1572   -0.0258   -3.5026 H   0  0  0  0  0  0  0  0  0  0  0  0
   -2.1674   -1.0904   -3.2996 H   0  0  0  0  0  0  0  0  0  0  0  0
   -2.3124    0.7016   -3.3074 H   0  0  0  0  0  0  0  0  0  0  0  0
   -3.5775   -0.2993   -2.5230 H   0  0  0  0  0  0  0  0  0  0  0  0
   -2.5434   -1.0682    0.6419 H   0  0  0  0  0  0  0  0  0  0  0  0
   -2.6789    0.6602    0.6474 H   0  0  0  0  0  0  0  0  0  0  0  0
   -2.5272    0.6756    3.1842 H   0  0  0  0  0  0  0  0  0  0  0  0
   -2.3908   -1.0752    3.1777 H   0  0  0  0  0  0  0  0  0  0  0  0
   -4.3528   -2.4973    2.4114 H   0  0  0  0  0  0  0  0  0  0  0  0
   -6.8374   -2.6772    2.2837 H   0  0  0  0  0  0  0  0  0  0  0  0
  -10.3848   -0.0434    2.3864 H   0  0  0  0  0  0  0  0  0  0  0  0
   -9.1874    1.0632    1.6412 H   0  0  0  0  0  0  0  0  0  0  0  0
   -9.2535    0.8814    3.4251 H   0  0  0  0  0  0  0  0  0  0  0  0
   -7.1508    1.6046    2.6715 H   0  0  0  0  0  0  0  0  0  0  0  0
   -4.6991    1.7741    2.7948 H   0  0  0  0  0  0  0  0  0  0  0  0
  1  2  2  0
  1  8  1  0
  1 11  1  0
  2  3  1  0
  2  4  1  0
  3 23  1  0
  4  5  2  0
  4 24  1  0
  5  6  1  0
  5  7  1  0
  6 25  1  0
  7  8  2  0
  7 26  1  0
  8  9  1  0
  9 10  1  0
 10 27  1  0
 10 28  1  0
 10 29  1  0
 11 12  2  0
 11 13  1  0
 13 14  1  0
 13 30  1  0
 13 31  1  0
 14 15  1  0
 14 32  1  0
 14 33  1  0
 15 16  2  0
 15 22  1  0
 16 17  1  0
 16 34  1  0
 17 18  2  0
 17 35  1  0
 18 19  1  0
 18 21  1  0
 19 20  1  0
 20 36  1  0
 20 37  1  0
 20 38  1  0
 21 22  2  0
 21 39  1  0
 22 40  1  0
M  END

