40
rmsd177.gzmat
C          0.00000        0.00000        0.00000
C          1.42320        0.00000        0.00000
O          2.13260        0.00000        1.12210
C          2.17760        0.00080       -1.18200
C          1.48850        0.00940       -2.38630
O          2.25080        0.00900       -3.49970
C          0.08570        0.02210       -2.46170
C         -0.62760        0.01810       -1.26730
O         -1.97660        0.04320       -1.21080
C         -2.70060       -0.00300       -2.43620
C         -0.71090       -0.02090        1.27180
O         -0.08200        0.00990        2.32590
C         -2.21210       -0.06640        1.31360
C         -2.75470       -0.25530        2.73810
C         -2.76400       -1.71010        3.09620
C         -1.64760       -2.28830        3.69960
C         -1.63160       -3.64600        4.01340
C         -2.75530       -4.41280        3.71060
O         -2.89300       -5.74700        3.94450
C         -1.81600       -6.40480        4.59610
C         -3.89070       -3.85060        3.10650
C         -3.88400       -2.49680        2.80460
H          1.51360        0.00490        1.95520
H          3.26310       -0.00380       -1.14520
H          1.71250        0.01210       -4.33020
H         -0.40440        0.03930       -3.42280
H         -2.45940       -0.91070       -2.99910
H         -2.51810        0.89970       -3.02710
H         -3.74210       -0.03100       -2.08670
H         -2.58510       -0.89330        0.66620
H         -2.61570        0.86830        0.86900
H         -3.77210        0.17540        2.81370
H         -2.13820        0.32340        3.46170
H         -0.77330       -1.67010        3.92020
H         -0.75490       -4.08090        4.47910
H         -2.18540       -7.43680        4.66740
H         -1.65020       -5.98840        5.59460
H         -0.90670       -6.36430        3.98800
H         -4.75010       -4.47720        2.88740
H         -4.75740       -2.04530        2.33680
