rmsd243.gzmat
 OpenBabel08211713403D

 40 41  0  0  0  0  0  0  0  0999 V2000
    0.0000    0.0000    0.0000 C   0  0  0  0  0  0  0  0  0  0  0  0
    1.4226    0.0000    0.0000 C   0  0  0  0  0  0  0  0  0  0  0  0
    2.1296    0.0000    1.1236 O   0  0  0  0  0  0  0  0  0  0  0  0
    2.1756    0.0023   -1.1824 C   0  0  0  0  0  0  0  0  0  0  0  0
    1.4845   -0.0038   -2.3862 C   0  0  0  0  0  0  0  0  0  0  0  0
    2.2477    0.0086   -3.4989 O   0  0  0  0  0  0  0  0  0  0  0  0
    0.0816   -0.0254   -2.4612 C   0  0  0  0  0  0  0  0  0  0  0  0
   -0.6299   -0.0306   -1.2659 C   0  0  0  0  0  0  0  0  0  0  0  0
   -1.9769   -0.0687   -1.1999 O   0  0  0  0  0  0  0  0  0  0  0  0
   -2.7134   -0.1354   -2.4161 C   0  0  0  0  0  0  0  0  0  0  0  0
   -0.7125    0.0348    1.2693 C   0  0  0  0  0  0  0  0  0  0  0  0
   -0.0912    0.0057    2.3281 O   0  0  0  0  0  0  0  0  0  0  0  0
   -2.2101    0.1192    1.3133 C   0  0  0  0  0  0  0  0  0  0  0  0
   -2.7224    0.2689    2.7522 C   0  0  0  0  0  0  0  0  0  0  0  0
   -4.2182    0.2942    2.7554 C   0  0  0  0  0  0  0  0  0  0  0  0
   -4.9417   -0.8346    3.1344 C   0  0  0  0  0  0  0  0  0  0  0  0
   -6.3365   -0.8247    3.1234 C   0  0  0  0  0  0  0  0  0  0  0  0
   -6.9914    0.3375    2.7230 C   0  0  0  0  0  0  0  0  0  0  0  0
   -8.3403    0.5040    2.6502 O   0  0  0  0  0  0  0  0  0  0  0  0
   -9.1509   -0.5984    3.0299 C   0  0  0  0  0  0  0  0  0  0  0  0
   -6.2823    1.4882    2.3406 C   0  0  0  0  0  0  0  0  0  0  0  0
   -4.8969    1.4553    2.3627 C   0  0  0  0  0  0  0  0  0  0  0  0
    1.5088   -0.0054    1.9553 H   0  0  0  0  0  0  0  0  0  0  0  0
    3.2612    0.0076   -1.1466 H   0  0  0  0  0  0  0  0  0  0  0  0
    1.7115    0.0104   -4.3308 H   0  0  0  0  0  0  0  0  0  0  0  0
   -0.4108   -0.0371   -3.4208 H   0  0  0  0  0  0  0  0  0  0  0  0
   -2.4432   -1.0264   -2.9912 H   0  0  0  0  0  0  0  0  0  0  0  0
   -2.5787    0.7796   -3.0007 H   0  0  0  0  0  0  0  0  0  0  0  0
   -3.7477   -0.2114   -2.0494 H   0  0  0  0  0  0  0  0  0  0  0  0
   -2.6541   -0.7891    0.8476 H   0  0  0  0  0  0  0  0  0  0  0  0
   -2.5656    0.9719    0.6940 H   0  0  0  0  0  0  0  0  0  0  0  0
   -2.3067    1.1901    3.2125 H   0  0  0  0  0  0  0  0  0  0  0  0
   -2.3243   -0.5548    3.3822 H   0  0  0  0  0  0  0  0  0  0  0  0
   -4.4169   -1.7383    3.4435 H   0  0  0  0  0  0  0  0  0  0  0  0
   -6.8851   -1.7093    3.4247 H   0  0  0  0  0  0  0  0  0  0  0  0
  -10.1654   -0.2011    2.8874 H   0  0  0  0  0  0  0  0  0  0  0  0
   -8.9872   -0.8601    4.0798 H   0  0  0  0  0  0  0  0  0  0  0  0
   -8.9797   -1.4544    2.3710 H   0  0  0  0  0  0  0  0  0  0  0  0
   -6.8253    2.3797    2.0395 H   0  0  0  0  0  0  0  0  0  0  0  0
   -4.3305    2.3403    2.0728 H   0  0  0  0  0  0  0  0  0  0  0  0
  1  2  1  0  0  0  0
  1 11  1  0  0  0  0
  2  3  1  0  0  0  0
  3 23  1  0  0  0  0
  4 24  1  0  0  0  0
  4  2  2  0  0  0  0
  5  4  1  0  0  0  0
  6  5  1  0  0  0  0
  7  5  2  0  0  0  0
  7  8  1  0  0  0  0
  8  9  1  0  0  0  0
  8  1  2  0  0  0  0
 10 29  1  0  0  0  0
 10  9  1  0  0  0  0
 11 13  1  0  0  0  0
 11 12  2  0  0  0  0
 13 14  1  0  0  0  0
 14 15  1  0  0  0  0
 14 32  1  0  0  0  0
 14 33  1  0  0  0  0
 15 16  2  0  0  0  0
 16 34  1  0  0  0  0
 17 16  1  0  0  0  0
 17 35  1  0  0  0  0
 18 17  2  0  0  0  0
 19 18  1  0  0  0  0
 19 20  1  0  0  0  0
 20 37  1  0  0  0  0
 21 22  2  0  0  0  0
 21 18  1  0  0  0  0
 22 15  1  0  0  0  0
 25  6  1  0  0  0  0
 26  7  1  0  0  0  0
 27 10  1  0  0  0  0
 28 10  1  0  0  0  0
 30 13  1  0  0  0  0
 31 13  1  0  0  0  0
 36 20  1  0  0  0  0
 38 20  1  0  0  0  0
 39 21  1  0  0  0  0
 40 22  1  0  0  0  0
M  END
$$$$
