40
rmsd235.gzmat
C          0.00000        0.00000        0.00000
C          1.42300        0.00000        0.00000
O          2.13080        0.00000        1.12310
C          2.17660       -0.00100       -1.18210
C          1.48680        0.01210       -2.38620
O          2.25070        0.01040       -3.49850
C          0.08400        0.03370       -2.46140
C         -0.62820        0.03200       -1.26640
O         -1.97610        0.07520       -1.20330
C         -2.70890        0.05930       -2.42390
C         -0.71160       -0.03790        1.27050
O         -0.08490        0.03390        2.32460
C         -2.20850       -0.16120        1.31770
C         -2.72150       -0.47240        2.73200
C         -2.62510       -1.94310        3.00220
C         -1.43770       -2.49100        3.48740
C         -1.32430       -3.86210        3.70880
C         -2.42570       -4.67330        3.44140
O         -2.47450       -6.02450        3.60120
C         -1.30350       -6.66160        4.09120
C         -3.63360       -4.14190        2.96300
C         -3.72090       -2.77460        2.74550
H          1.50990        0.02100        1.95470
H          3.26210       -0.00830       -1.14610
H          1.71530        0.01920       -4.33090
H         -0.40720        0.05510       -3.42120
H         -2.51050       -0.85910       -2.98600
H         -2.49400        0.95250       -3.01850
H         -3.74770        0.07490       -2.06560
H         -2.55110       -0.95920        0.62030
H         -2.66040        0.78100        0.94100
H         -3.76520       -0.11800        2.83990
H         -2.13850        0.10370        3.48500
H         -0.58440       -1.83790        3.68890
H         -0.39180       -4.27300        4.07930
H         -1.61020       -7.71600        4.12350
H         -1.05450       -6.30450        5.09570
H         -0.46550       -6.52700        3.39980
H         -4.47420       -4.80180        2.77150
H         -4.64990       -2.34720        2.37170
