rmsd177.gzmat
 OpenBabel08211713403D

 40 41  0  0  0  0  0  0  0  0999 V2000
    0.0000    0.0000    0.0000 C   0  0  0  0  0  0  0  0  0  0  0  0
    1.4232    0.0000    0.0000 C   0  0  0  0  0  0  0  0  0  0  0  0
    2.1326    0.0000    1.1221 O   0  0  0  0  0  0  0  0  0  0  0  0
    2.1776    0.0008   -1.1820 C   0  0  0  0  0  0  0  0  0  0  0  0
    1.4885    0.0094   -2.3863 C   0  0  0  0  0  0  0  0  0  0  0  0
    2.2508    0.0090   -3.4997 O   0  0  0  0  0  0  0  0  0  0  0  0
    0.0857    0.0221   -2.4617 C   0  0  0  0  0  0  0  0  0  0  0  0
   -0.6276    0.0181   -1.2673 C   0  0  0  0  0  0  0  0  0  0  0  0
   -1.9766    0.0432   -1.2108 O   0  0  0  0  0  0  0  0  0  0  0  0
   -2.7006   -0.0030   -2.4362 C   0  0  0  0  0  0  0  0  0  0  0  0
   -0.7109   -0.0209    1.2718 C   0  0  0  0  0  0  0  0  0  0  0  0
   -0.0820    0.0099    2.3259 O   0  0  0  0  0  0  0  0  0  0  0  0
   -2.2121   -0.0664    1.3136 C   0  0  0  0  0  0  0  0  0  0  0  0
   -2.7547   -0.2553    2.7381 C   0  0  0  0  0  0  0  0  0  0  0  0
   -2.7640   -1.7101    3.0962 C   0  0  0  0  0  0  0  0  0  0  0  0
   -1.6476   -2.2883    3.6996 C   0  0  0  0  0  0  0  0  0  0  0  0
   -1.6316   -3.6460    4.0134 C   0  0  0  0  0  0  0  0  0  0  0  0
   -2.7553   -4.4128    3.7106 C   0  0  0  0  0  0  0  0  0  0  0  0
   -2.8930   -5.7470    3.9445 O   0  0  0  0  0  0  0  0  0  0  0  0
   -1.8160   -6.4048    4.5961 C   0  0  0  0  0  0  0  0  0  0  0  0
   -3.8907   -3.8506    3.1065 C   0  0  0  0  0  0  0  0  0  0  0  0
   -3.8840   -2.4968    2.8046 C   0  0  0  0  0  0  0  0  0  0  0  0
    1.5136    0.0049    1.9552 H   0  0  0  0  0  0  0  0  0  0  0  0
    3.2631   -0.0038   -1.1452 H   0  0  0  0  0  0  0  0  0  0  0  0
    1.7125    0.0121   -4.3302 H   0  0  0  0  0  0  0  0  0  0  0  0
   -0.4044    0.0393   -3.4228 H   0  0  0  0  0  0  0  0  0  0  0  0
   -2.4594   -0.9107   -2.9991 H   0  0  0  0  0  0  0  0  0  0  0  0
   -2.5181    0.8997   -3.0271 H   0  0  0  0  0  0  0  0  0  0  0  0
   -3.7421   -0.0310   -2.0867 H   0  0  0  0  0  0  0  0  0  0  0  0
   -2.5851   -0.8933    0.6662 H   0  0  0  0  0  0  0  0  0  0  0  0
   -2.6157    0.8683    0.8690 H   0  0  0  0  0  0  0  0  0  0  0  0
   -3.7721    0.1754    2.8137 H   0  0  0  0  0  0  0  0  0  0  0  0
   -2.1382    0.3234    3.4617 H   0  0  0  0  0  0  0  0  0  0  0  0
   -0.7733   -1.6701    3.9202 H   0  0  0  0  0  0  0  0  0  0  0  0
   -0.7549   -4.0809    4.4791 H   0  0  0  0  0  0  0  0  0  0  0  0
   -2.1854   -7.4368    4.6674 H   0  0  0  0  0  0  0  0  0  0  0  0
   -1.6502   -5.9884    5.5946 H   0  0  0  0  0  0  0  0  0  0  0  0
   -0.9067   -6.3643    3.9880 H   0  0  0  0  0  0  0  0  0  0  0  0
   -4.7501   -4.4772    2.8874 H   0  0  0  0  0  0  0  0  0  0  0  0
   -4.7574   -2.0453    2.3368 H   0  0  0  0  0  0  0  0  0  0  0  0
  1  2  1  0  0  0  0
  1 11  1  0  0  0  0
  2  3  1  0  0  0  0
  3 23  1  0  0  0  0
  4 24  1  0  0  0  0
  4  2  2  0  0  0  0
  5  4  1  0  0  0  0
  6  5  1  0  0  0  0
  7  5  2  0  0  0  0
  7  8  1  0  0  0  0
  8  9  1  0  0  0  0
  8  1  2  0  0  0  0
 10 29  1  0  0  0  0
 10  9  1  0  0  0  0
 11 13  1  0  0  0  0
 11 12  2  0  0  0  0
 13 14  1  0  0  0  0
 14 32  1  0  0  0  0
 14 15  1  0  0  0  0
 14 33  1  0  0  0  0
 15 16  1  0  0  0  0
 16 34  1  0  0  0  0
 16 17  2  0  0  0  0
 17 35  1  0  0  0  0
 18 19  1  0  0  0  0
 18 17  1  0  0  0  0
 19 20  1  0  0  0  0
 20 36  1  0  0  0  0
 20 37  1  0  0  0  0
 21 18  2  0  0  0  0
 22 15  2  0  0  0  0
 22 21  1  0  0  0  0
 25  6  1  0  0  0  0
 26  7  1  0  0  0  0
 27 10  1  0  0  0  0
 28 10  1  0  0  0  0
 30 13  1  0  0  0  0
 31 13  1  0  0  0  0
 38 20  1  0  0  0  0
 39 21  1  0  0  0  0
 40 22  1  0  0  0  0
M  END
$$$$
