rmsd224.gzmat
 OpenBabel08211713403D

 40 41  0  0  0  0  0  0  0  0999 V2000
    0.0000    0.0000    0.0000 C   0  0  0  0  0  0  0  0  0  0  0  0
    1.4229    0.0000    0.0000 C   0  0  0  0  0  0  0  0  0  0  0  0
    2.1302    0.0000    1.1232 O   0  0  0  0  0  0  0  0  0  0  0  0
    2.1773   -0.0006   -1.1820 C   0  0  0  0  0  0  0  0  0  0  0  0
    1.4877    0.0140   -2.3862 C   0  0  0  0  0  0  0  0  0  0  0  0
    2.2501    0.0158   -3.4996 O   0  0  0  0  0  0  0  0  0  0  0  0
    0.0847    0.0318   -2.4616 C   0  0  0  0  0  0  0  0  0  0  0  0
   -0.6279    0.0265   -1.2670 C   0  0  0  0  0  0  0  0  0  0  0  0
   -1.9762    0.0601   -1.2049 O   0  0  0  0  0  0  0  0  0  0  0  0
   -2.7085    0.0315   -2.4254 C   0  0  0  0  0  0  0  0  0  0  0  0
   -0.7124   -0.0311    1.2707 C   0  0  0  0  0  0  0  0  0  0  0  0
   -0.0865    0.0326    2.3253 O   0  0  0  0  0  0  0  0  0  0  0  0
   -2.2109   -0.1355    1.3135 C   0  0  0  0  0  0  0  0  0  0  0  0
   -2.7404   -0.3821    2.7342 C   0  0  0  0  0  0  0  0  0  0  0  0
   -2.6613   -1.8400    3.0705 C   0  0  0  0  0  0  0  0  0  0  0  0
   -1.5052   -2.3608    3.6512 C   0  0  0  0  0  0  0  0  0  0  0  0
   -1.4058   -3.7191    3.9457 C   0  0  0  0  0  0  0  0  0  0  0  0
   -2.4872   -4.5464    3.6477 C   0  0  0  0  0  0  0  0  0  0  0  0
   -2.5453   -5.8881    3.8734 O   0  0  0  0  0  0  0  0  0  0  0  0
   -1.3981   -6.4962    4.4497 C   0  0  0  0  0  0  0  0  0  0  0  0
   -3.6615   -4.0429    3.0665 C   0  0  0  0  0  0  0  0  0  0  0  0
   -3.7373   -2.6871    2.7826 C   0  0  0  0  0  0  0  0  0  0  0  0
    1.5088    0.0191    1.9544 H   0  0  0  0  0  0  0  0  0  0  0  0
    3.2629   -0.0094   -1.1452 H   0  0  0  0  0  0  0  0  0  0  0  0
    1.7119    0.0256   -4.3302 H   0  0  0  0  0  0  0  0  0  0  0  0
   -0.4059    0.0524   -3.4218 H   0  0  0  0  0  0  0  0  0  0  0  0
   -2.4971   -0.8853   -2.9851 H   0  0  0  0  0  0  0  0  0  0  0  0
   -2.5061    0.9268   -3.0208 H   0  0  0  0  0  0  0  0  0  0  0  0
   -3.7478    0.0333   -2.0678 H   0  0  0  0  0  0  0  0  0  0  0  0
   -2.5541   -0.9584    0.6455 H   0  0  0  0  0  0  0  0  0  0  0  0
   -2.6517    0.7952    0.8963 H   0  0  0  0  0  0  0  0  0  0  0  0
   -3.7819   -0.0144    2.8154 H   0  0  0  0  0  0  0  0  0  0  0  0
   -2.1591    0.2214    3.4668 H   0  0  0  0  0  0  0  0  0  0  0  0
   -0.6655   -1.6960    3.8710 H   0  0  0  0  0  0  0  0  0  0  0  0
   -0.4991   -4.1080    4.3947 H   0  0  0  0  0  0  0  0  0  0  0  0
   -1.7032   -7.5488    4.5207 H   0  0  0  0  0  0  0  0  0  0  0  0
   -1.1985   -6.0890    5.4457 H   0  0  0  0  0  0  0  0  0  0  0  0
   -0.5293   -6.3922    3.7917 H   0  0  0  0  0  0  0  0  0  0  0  0
   -4.4862   -4.7150    2.8489 H   0  0  0  0  0  0  0  0  0  0  0  0
   -4.6417   -2.2808    2.3324 H   0  0  0  0  0  0  0  0  0  0  0  0
  1  2  1  0  0  0  0
  1 11  1  0  0  0  0
  2  3  1  0  0  0  0
  3 23  1  0  0  0  0
  4 24  1  0  0  0  0
  4  2  2  0  0  0  0
  5  4  1  0  0  0  0
  6  5  1  0  0  0  0
  7  5  2  0  0  0  0
  7  8  1  0  0  0  0
  8  9  1  0  0  0  0
  8  1  2  0  0  0  0
 10 29  1  0  0  0  0
 10  9  1  0  0  0  0
 11 13  1  0  0  0  0
 11 12  2  0  0  0  0
 13 14  1  0  0  0  0
 14 32  1  0  0  0  0
 14 15  1  0  0  0  0
 14 33  1  0  0  0  0
 15 16  2  0  0  0  0
 16 34  1  0  0  0  0
 16 17  1  0  0  0  0
 17 35  1  0  0  0  0
 18 19  1  0  0  0  0
 18 17  2  0  0  0  0
 19 20  1  0  0  0  0
 20 36  1  0  0  0  0
 20 37  1  0  0  0  0
 21 18  1  0  0  0  0
 22 21  2  0  0  0  0
 22 15  1  0  0  0  0
 25  6  1  0  0  0  0
 26  7  1  0  0  0  0
 27 10  1  0  0  0  0
 28 10  1  0  0  0  0
 30 13  1  0  0  0  0
 31 13  1  0  0  0  0
 38 20  1  0  0  0  0
 39 21  1  0  0  0  0
 40 22  1  0  0  0  0
M  END
$$$$
