rmsd50.gzmat
 OpenBabel08211713403D

 40 41  0  0  0  0  0  0  0  0999 V2000
    0.0000    0.0000    0.0000 C   0  0  0  0  0  0  0  0  0  0  0  0
    1.4233    0.0000    0.0000 C   0  0  0  0  0  0  0  0  0  0  0  0
    2.1317    0.0000    1.1227 O   0  0  0  0  0  0  0  0  0  0  0  0
    2.1773    0.0016   -1.1821 C   0  0  0  0  0  0  0  0  0  0  0  0
    1.4874   -0.0093   -2.3864 C   0  0  0  0  0  0  0  0  0  0  0  0
    2.2509   -0.0122   -3.4989 O   0  0  0  0  0  0  0  0  0  0  0  0
    0.0844   -0.0196   -2.4618 C   0  0  0  0  0  0  0  0  0  0  0  0
   -0.6281   -0.0137   -1.2671 C   0  0  0  0  0  0  0  0  0  0  0  0
   -1.9768   -0.0336   -1.2069 O   0  0  0  0  0  0  0  0  0  0  0  0
   -2.7072    0.0594   -2.4251 C   0  0  0  0  0  0  0  0  0  0  0  0
   -0.7111    0.0204    1.2712 C   0  0  0  0  0  0  0  0  0  0  0  0
   -0.0816   -0.0229    2.3250 O   0  0  0  0  0  0  0  0  0  0  0  0
   -2.2118    0.0816    1.3191 C   0  0  0  0  0  0  0  0  0  0  0  0
   -2.7408    0.3278    2.7402 C   0  0  0  0  0  0  0  0  0  0  0  0
   -2.7300    1.7947    3.0449 C   0  0  0  0  0  0  0  0  0  0  0  0
   -3.8575    2.5763    2.7698 C   0  0  0  0  0  0  0  0  0  0  0  0
   -3.8482    3.9402    3.0229 C   0  0  0  0  0  0  0  0  0  0  0  0
   -2.6881    4.5177    3.5618 C   0  0  0  0  0  0  0  0  0  0  0  0
   -2.8116    5.8593    3.7589 O   0  0  0  0  0  0  0  0  0  0  0  0
   -1.7006    6.5325    4.3328 C   0  0  0  0  0  0  0  0  0  0  0  0
   -1.5553    3.7565    3.8449 C   0  0  0  0  0  0  0  0  0  0  0  0
   -1.5882    2.3889    3.5806 C   0  0  0  0  0  0  0  0  0  0  0  0
    1.5111   -0.0113    1.9550 H   0  0  0  0  0  0  0  0  0  0  0  0
    3.2628    0.0089   -1.1457 H   0  0  0  0  0  0  0  0  0  0  0  0
    1.7153   -0.0174   -4.3309 H   0  0  0  0  0  0  0  0  0  0  0  0
   -0.4063   -0.0370   -3.4221 H   0  0  0  0  0  0  0  0  0  0  0  0
   -2.5579   -0.8380   -3.0326 H   0  0  0  0  0  0  0  0  0  0  0  0
   -2.4434    0.9693   -2.9734 H   0  0  0  0  0  0  0  0  0  0  0  0
   -3.7442    0.1140   -2.0654 H   0  0  0  0  0  0  0  0  0  0  0  0
   -2.6259   -0.8649    0.9111 H   0  0  0  0  0  0  0  0  0  0  0  0
   -2.5843    0.8881    0.6469 H   0  0  0  0  0  0  0  0  0  0  0  0
   -2.1237   -0.2308    3.4792 H   0  0  0  0  0  0  0  0  0  0  0  0
   -3.7621   -0.0886    2.8401 H   0  0  0  0  0  0  0  0  0  0  0  0
   -4.7498    2.1124    2.3530 H   0  0  0  0  0  0  0  0  0  0  0  0
   -4.7134    4.5623    2.8146 H   0  0  0  0  0  0  0  0  0  0  0  0
   -2.0667    7.5656    4.4044 H   0  0  0  0  0  0  0  0  0  0  0  0
   -0.8296    6.4795    3.6722 H   0  0  0  0  0  0  0  0  0  0  0  0
   -1.4743    6.1373    5.3278 H   0  0  0  0  0  0  0  0  0  0  0  0
   -0.6589    4.2036    4.2589 H   0  0  0  0  0  0  0  0  0  0  0  0
   -0.7066    1.7760    3.7874 H   0  0  0  0  0  0  0  0  0  0  0  0
  1  2  1  0  0  0  0
  1 11  1  0  0  0  0
  2  3  1  0  0  0  0
  3 23  1  0  0  0  0
  4 24  1  0  0  0  0
  4  2  2  0  0  0  0
  5  4  1  0  0  0  0
  6  5  1  0  0  0  0
  7  5  2  0  0  0  0
  7  8  1  0  0  0  0
  8  9  1  0  0  0  0
  8  1  2  0  0  0  0
 10 29  1  0  0  0  0
 10  9  1  0  0  0  0
 11 13  1  0  0  0  0
 11 12  2  0  0  0  0
 13 14  1  0  0  0  0
 14 33  1  0  0  0  0
 14 15  1  0  0  0  0
 14 32  1  0  0  0  0
 15 22  2  0  0  0  0
 16 17  2  0  0  0  0
 16 15  1  0  0  0  0
 17 18  1  0  0  0  0
 18 19  1  0  0  0  0
 18 21  2  0  0  0  0
 19 20  1  0  0  0  0
 20 36  1  0  0  0  0
 20 38  1  0  0  0  0
 21 39  1  0  0  0  0
 22 40  1  0  0  0  0
 22 21  1  0  0  0  0
 25  6  1  0  0  0  0
 26  7  1  0  0  0  0
 27 10  1  0  0  0  0
 28 10  1  0  0  0  0
 30 13  1  0  0  0  0
 31 13  1  0  0  0  0
 34 16  1  0  0  0  0
 35 17  1  0  0  0  0
 37 20  1  0  0  0  0
M  END
$$$$
