29
rmsd60.gzmat
S          0.00000        0.00000        0.00000
C          1.77950        0.00000        0.00000
S          2.76350        0.00000        1.28880
N          2.20150       -0.01390       -1.32780
C          1.19410       -0.00630       -2.29340
C         -0.06590        0.02720       -1.75660
C         -1.32490        0.15010       -2.45560
O         -1.50760        0.40770       -3.62150
O         -2.36950       -0.06270       -1.60670
C         -3.66630        0.08310       -2.17750
S          1.74250       -0.02070       -3.96980
C          0.51910       -1.02250       -4.85550
C          3.59740       -0.02850       -1.67600
C          4.25780       -1.25620       -1.77330
C          5.61000       -1.26350       -2.10510
C          6.28320       -0.06390       -2.33480
C          5.61130        1.15310       -2.22960
C          4.26090        1.18260       -1.89010
H         -4.32690       -0.14090       -1.33140
H         -3.80600       -0.63100       -2.99550
H         -3.80640        1.10840       -2.53700
H          1.03020       -1.54280       -5.67650
H         -0.28200       -0.39810       -5.28770
H          0.03560       -1.77560       -4.22330
H          3.72610       -2.18800       -1.58540
H          6.14150       -2.21090       -2.18110
H          7.34120       -0.07750       -2.59310
H          6.14290        2.08630       -2.41060
H          3.73500        2.13130       -1.78570
