29
rmsd83.gzmat
S          0.00000        0.00000        0.00000
C          1.77920        0.00000        0.00000
S          2.76370        0.00000        1.28860
N          2.19980       -0.00860       -1.32830
C          1.19240        0.00460       -2.29420
C         -0.06810        0.02560       -1.75790
C         -1.33060        0.11630       -2.45590
O         -1.52370        0.16960       -3.64740
O         -2.36700        0.13730       -1.57180
C         -3.66740        0.23220       -2.14460
S          1.75760        0.04880       -3.96490
C          0.59840       -0.97600       -4.90660
C          3.59560       -0.03160       -1.67780
C          4.23940       -1.26490       -1.81020
C          5.59090       -1.28120       -2.14370
C          6.28340       -0.08480       -2.32740
C          5.62850        1.13790       -2.18590
C          4.27530        1.17580       -1.85870
H         -3.88110       -0.66270       -2.73820
H         -3.75010        1.13080       -2.76630
H         -4.31260        0.29540       -1.25950
H          1.16220       -1.50860       -5.68330
H         -0.17810       -0.36110       -5.39250
H          0.07100       -1.71840       -4.29600
H          3.69530       -2.19470       -1.64980
H          6.10590       -2.23350       -2.26070
H          7.34240       -0.10610       -2.58050
H          6.17570        2.06910       -2.32830
H          3.75920        2.12780       -1.73930
