29
rmsd193.gzmat
S          0.00000        0.00000        0.00000
C          1.77860        0.00000        0.00000
S          2.76180        0.00000        1.28970
N          2.20030       -0.01200       -1.32770
C          1.19330        0.00190       -2.29600
C         -0.06660        0.03200       -1.75820
C         -1.33170        0.15040       -2.44510
O         -1.52740        0.44490       -3.60050
O         -2.36670       -0.11510       -1.59970
C         -3.66950       -0.00640       -2.16560
S          1.77990       -0.00380       -3.95760
C          0.48320       -0.75430       -4.97110
C          3.59590       -0.00410       -1.67810
C          4.27640       -1.21920       -1.78890
C          5.62770       -1.20040       -2.12390
C          6.28040        0.01250       -2.34220
C          5.58880        1.21720       -2.22190
C          4.23820        1.22000       -1.88280
H         -4.32140       -0.19210       -1.30360
H         -3.80350       -0.76660       -2.94170
H         -3.82720        0.99530       -2.57940
H          0.96110       -1.24110       -5.83160
H         -0.22510        0.00210       -5.35090
H         -0.11100       -1.50780       -4.44210
H          3.76010       -2.16180       -1.61170
H          6.17570       -2.13760       -2.21090
H          7.33780        0.01850       -2.60190
H          6.10490        2.16200       -2.38850
H          3.69500        2.15810       -1.77320
