rmsd234.gzmat
 OpenBabel08211713393D

 29 30  0  0  0  0  0  0  0  0999 V2000
    0.0000    0.0000    0.0000 S   0  0  0  0  0  0  0  0  0  0  0  0
    1.7792    0.0000    0.0000 C   0  0  0  0  0  0  0  0  0  0  0  0
    2.7613    0.0000    1.2905 S   0  0  0  0  0  0  0  0  0  0  0  0
    2.2003    0.0118   -1.3283 N   0  0  0  0  0  0  0  0  0  0  0  0
    1.1928    0.0091   -2.2933 C   0  0  0  0  0  0  0  0  0  0  0  0
   -0.0676   -0.0071   -1.7570 C   0  0  0  0  0  0  0  0  0  0  0  0
   -1.3308   -0.0732   -2.4579 C   0  0  0  0  0  0  0  0  0  0  0  0
   -1.5286   -0.0205   -3.6484 O   0  0  0  0  0  0  0  0  0  0  0  0
   -2.3605   -0.2059   -1.5757 O   0  0  0  0  0  0  0  0  0  0  0  0
   -3.6601   -0.2978   -2.1510 C   0  0  0  0  0  0  0  0  0  0  0  0
    1.7416   -0.0420   -3.9708 S   0  0  0  0  0  0  0  0  0  0  0  0
    0.6406    1.0890   -4.8632 C   0  0  0  0  0  0  0  0  0  0  0  0
    3.5971    0.0310   -1.6739 C   0  0  0  0  0  0  0  0  0  0  0  0
    4.2960   -1.1759   -1.7555 C   0  0  0  0  0  0  0  0  0  0  0  0
    5.6508   -1.1430   -2.0766 C   0  0  0  0  0  0  0  0  0  0  0  0
    6.2890    0.0753   -2.3045 C   0  0  0  0  0  0  0  0  0  0  0  0
    5.5787    1.2719   -2.2134 C   0  0  0  0  0  0  0  0  0  0  0  0
    4.2233    1.2603   -1.8957 C   0  0  0  0  0  0  0  0  0  0  0  0
   -4.3009   -0.4307   -1.2712 H   0  0  0  0  0  0  0  0  0  0  0  0
   -3.7186   -1.1595   -2.8241 H   0  0  0  0  0  0  0  0  0  0  0  0
   -3.9024    0.6244   -2.6889 H   0  0  0  0  0  0  0  0  0  0  0  0
    1.2306    1.6336   -5.6107 H   0  0  0  0  0  0  0  0  0  0  0  0
    0.1479    1.8226   -4.2138 H   0  0  0  0  0  0  0  0  0  0  0  0
   -0.1629    0.5380   -5.3803 H   0  0  0  0  0  0  0  0  0  0  0  0
    3.7934   -2.1233   -1.5635 H   0  0  0  0  0  0  0  0  0  0  0  0
    6.2113   -2.0744   -2.1464 H   0  0  0  0  0  0  0  0  0  0  0  0
    7.3495    0.0937   -2.5509 H   0  0  0  0  0  0  0  0  0  0  0  0
    6.0849    2.2208   -2.3857 H   0  0  0  0  0  0  0  0  0  0  0  0
    3.6629    2.1904   -1.8155 H   0  0  0  0  0  0  0  0  0  0  0  0
  2  1  1  0  0  0  0
  2  3  2  0  0  0  0
  4  2  1  0  0  0  0
  5  6  2  0  0  0  0
  5  4  1  0  0  0  0
  6  1  1  0  0  0  0
  7  6  1  0  0  0  0
  7  9  1  0  0  0  0
  8  7  2  0  0  0  0
 10  9  1  0  0  0  0
 10 19  1  0  0  0  0
 11  5  1  0  0  0  0
 12 23  1  0  0  0  0
 12 11  1  0  0  0  0
 13  4  1  0  0  0  0
 14 13  1  0  0  0  0
 14 25  1  0  0  0  0
 15 14  2  0  0  0  0
 16 17  2  0  0  0  0
 16 15  1  0  0  0  0
 17 18  1  0  0  0  0
 18 29  1  0  0  0  0
 18 13  2  0  0  0  0
 20 10  1  0  0  0  0
 21 10  1  0  0  0  0
 22 12  1  0  0  0  0
 24 12  1  0  0  0  0
 26 15  1  0  0  0  0
 27 16  1  0  0  0  0
 28 17  1  0  0  0  0
M  END
$$$$
