rmsd60.gzmat
 OpenBabel08211713393D

 29 30  0  0  0  0  0  0  0  0999 V2000
    0.0000    0.0000    0.0000 S   0  0  0  0  0  0  0  0  0  0  0  0
    1.7795    0.0000    0.0000 C   0  0  0  0  0  0  0  0  0  0  0  0
    2.7635    0.0000    1.2888 S   0  0  0  0  0  0  0  0  0  0  0  0
    2.2015   -0.0139   -1.3278 N   0  0  0  0  0  0  0  0  0  0  0  0
    1.1941   -0.0063   -2.2934 C   0  0  0  0  0  0  0  0  0  0  0  0
   -0.0659    0.0272   -1.7566 C   0  0  0  0  0  0  0  0  0  0  0  0
   -1.3249    0.1501   -2.4556 C   0  0  0  0  0  0  0  0  0  0  0  0
   -1.5076    0.4077   -3.6215 O   0  0  0  0  0  0  0  0  0  0  0  0
   -2.3695   -0.0627   -1.6067 O   0  0  0  0  0  0  0  0  0  0  0  0
   -3.6663    0.0831   -2.1775 C   0  0  0  0  0  0  0  0  0  0  0  0
    1.7425   -0.0207   -3.9698 S   0  0  0  0  0  0  0  0  0  0  0  0
    0.5191   -1.0225   -4.8555 C   0  0  0  0  0  0  0  0  0  0  0  0
    3.5974   -0.0285   -1.6760 C   0  0  0  0  0  0  0  0  0  0  0  0
    4.2578   -1.2562   -1.7733 C   0  0  0  0  0  0  0  0  0  0  0  0
    5.6100   -1.2635   -2.1051 C   0  0  0  0  0  0  0  0  0  0  0  0
    6.2832   -0.0639   -2.3348 C   0  0  0  0  0  0  0  0  0  0  0  0
    5.6113    1.1531   -2.2296 C   0  0  0  0  0  0  0  0  0  0  0  0
    4.2609    1.1826   -1.8901 C   0  0  0  0  0  0  0  0  0  0  0  0
   -4.3269   -0.1409   -1.3314 H   0  0  0  0  0  0  0  0  0  0  0  0
   -3.8060   -0.6310   -2.9955 H   0  0  0  0  0  0  0  0  0  0  0  0
   -3.8064    1.1084   -2.5370 H   0  0  0  0  0  0  0  0  0  0  0  0
    1.0302   -1.5428   -5.6765 H   0  0  0  0  0  0  0  0  0  0  0  0
   -0.2820   -0.3981   -5.2877 H   0  0  0  0  0  0  0  0  0  0  0  0
    0.0356   -1.7756   -4.2233 H   0  0  0  0  0  0  0  0  0  0  0  0
    3.7261   -2.1880   -1.5854 H   0  0  0  0  0  0  0  0  0  0  0  0
    6.1415   -2.2109   -2.1811 H   0  0  0  0  0  0  0  0  0  0  0  0
    7.3412   -0.0775   -2.5931 H   0  0  0  0  0  0  0  0  0  0  0  0
    6.1429    2.0863   -2.4106 H   0  0  0  0  0  0  0  0  0  0  0  0
    3.7350    2.1313   -1.7857 H   0  0  0  0  0  0  0  0  0  0  0  0
  2  1  1  0  0  0  0
  2  3  2  0  0  0  0
  4  2  1  0  0  0  0
  5  6  2  0  0  0  0
  5  4  1  0  0  0  0
  6  1  1  0  0  0  0
  7  6  1  0  0  0  0
  7  9  1  0  0  0  0
  8  7  2  0  0  0  0
 10  9  1  0  0  0  0
 10 19  1  0  0  0  0
 11  5  1  0  0  0  0
 12 24  1  0  0  0  0
 12 11  1  0  0  0  0
 13  4  1  0  0  0  0
 14 13  1  0  0  0  0
 14 25  1  0  0  0  0
 15 14  2  0  0  0  0
 16 17  2  0  0  0  0
 16 15  1  0  0  0  0
 17 18  1  0  0  0  0
 18 29  1  0  0  0  0
 18 13  2  0  0  0  0
 20 10  1  0  0  0  0
 21 10  1  0  0  0  0
 22 12  1  0  0  0  0
 23 12  1  0  0  0  0
 26 15  1  0  0  0  0
 27 16  1  0  0  0  0
 28 17  1  0  0  0  0
M  END
$$$$
