rmsd35.gzmat
 OpenBabel08211713393D

 29 30  0  0  0  0  0  0  0  0999 V2000
    0.0000    0.0000    0.0000 S   0  0  0  0  0  0  0  0  0  0  0  0
    1.7792    0.0000    0.0000 C   0  0  0  0  0  0  0  0  0  0  0  0
    2.7652    0.0000    1.2878 S   0  0  0  0  0  0  0  0  0  0  0  0
    2.2005    0.0139   -1.3280 N   0  0  0  0  0  0  0  0  0  0  0  0
    1.1928   -0.0005   -2.2940 C   0  0  0  0  0  0  0  0  0  0  0  0
   -0.0670   -0.0312   -1.7565 C   0  0  0  0  0  0  0  0  0  0  0  0
   -1.3290   -0.1574   -2.4498 C   0  0  0  0  0  0  0  0  0  0  0  0
   -1.5201   -0.5048   -3.5910 O   0  0  0  0  0  0  0  0  0  0  0  0
   -2.3648    0.1746   -1.6293 O   0  0  0  0  0  0  0  0  0  0  0  0
   -3.6668    0.0279   -2.1879 C   0  0  0  0  0  0  0  0  0  0  0  0
    1.7558    0.0079   -3.9636 S   0  0  0  0  0  0  0  0  0  0  0  0
    0.4779    0.8743   -4.9088 C   0  0  0  0  0  0  0  0  0  0  0  0
    3.5977    0.0184   -1.6719 C   0  0  0  0  0  0  0  0  0  0  0  0
    4.2575   -1.1997   -1.8548 C   0  0  0  0  0  0  0  0  0  0  0  0
    5.6154   -1.1842   -2.1629 C   0  0  0  0  0  0  0  0  0  0  0  0
    6.2949    0.0276   -2.2814 C   0  0  0  0  0  0  0  0  0  0  0  0
    5.6231    1.2348   -2.0928 C   0  0  0  0  0  0  0  0  0  0  0  0
    4.2652    1.2408   -1.7849 C   0  0  0  0  0  0  0  0  0  0  0  0
   -3.8815   -1.0334   -2.3531 H   0  0  0  0  0  0  0  0  0  0  0  0
   -3.7533    0.5863   -3.1259 H   0  0  0  0  0  0  0  0  0  0  0  0
   -4.3116    0.4523   -1.4089 H   0  0  0  0  0  0  0  0  0  0  0  0
    0.9626    1.3641   -5.7643 H   0  0  0  0  0  0  0  0  0  0  0  0
   -0.0497    1.6419   -4.3322 H   0  0  0  0  0  0  0  0  0  0  0  0
   -0.2869    0.1785   -5.2957 H   0  0  0  0  0  0  0  0  0  0  0  0
    3.7227   -2.1431   -1.7469 H   0  0  0  0  0  0  0  0  0  0  0  0
    6.1475   -2.1240   -2.3054 H   0  0  0  0  0  0  0  0  0  0  0  0
    7.3581    0.0314   -2.5166 H   0  0  0  0  0  0  0  0  0  0  0  0
    6.1610    2.1777   -2.1806 H   0  0  0  0  0  0  0  0  0  0  0  0
    3.7344    2.1789   -1.6284 H   0  0  0  0  0  0  0  0  0  0  0  0
  2  1  1  0  0  0  0
  2  3  2  0  0  0  0
  4  2  1  0  0  0  0
  5  6  2  0  0  0  0
  5  4  1  0  0  0  0
  6  1  1  0  0  0  0
  7  6  1  0  0  0  0
  7  9  1  0  0  0  0
  8  7  2  0  0  0  0
 10  9  1  0  0  0  0
 10 21  1  0  0  0  0
 11  5  1  0  0  0  0
 12 23  1  0  0  0  0
 12 11  1  0  0  0  0
 13  4  1  0  0  0  0
 14 25  1  0  0  0  0
 14 13  2  0  0  0  0
 15 14  1  0  0  0  0
 16 15  2  0  0  0  0
 16 17  1  0  0  0  0
 17 18  2  0  0  0  0
 18 13  1  0  0  0  0
 18 29  1  0  0  0  0
 19 10  1  0  0  0  0
 20 10  1  0  0  0  0
 22 12  1  0  0  0  0
 24 12  1  0  0  0  0
 26 15  1  0  0  0  0
 27 16  1  0  0  0  0
 28 17  1  0  0  0  0
M  END
$$$$
