29

S         -0.01710       -0.25200       -0.05710
C          1.73990       -0.23210       -0.06090
S          2.69760       -0.33760        1.27340
N          2.16690       -0.12510       -1.38290
C          1.17060       -0.05630       -2.35420
C         -0.09370       -0.08010       -1.81340
C         -1.37840        0.15620       -2.47560
O         -1.55300        0.39350       -3.65200
O         -2.38680        0.09460       -1.58110
C         -3.69570        0.34650       -2.08620
S          1.68820        0.05990       -4.03340
C          0.65170       -1.18860       -4.86720
C          3.56800       -0.07270       -1.69670
C          4.31320       -1.25220       -1.72650
C          5.67090       -1.19400       -2.03980
C          6.27550        0.03680       -2.31620
C          5.52250        1.21280       -2.27520
C          4.16320        1.16130       -1.95920
H         -4.37520        0.25200       -1.23080
H         -3.95900       -0.38200       -2.86790
H         -3.75980        1.35710       -2.51690
H          1.08280       -1.27670       -5.87440
H         -0.38930       -0.85100       -4.92030
H          0.73460       -2.15350       -4.34900
H          3.82550       -2.20130       -1.50060
H          6.26070       -2.11290       -2.06640
H          7.33930        0.07860       -2.56100
H          5.99390        2.17520       -2.48590
H          3.56080        2.07040       -1.91440
