rmsd95.gzmat
 OpenBabel08211713393D

 29 30  0  0  0  0  0  0  0  0999 V2000
    0.0000    0.0000    0.0000 S   0  0  0  0  0  0  0  0  0  0  0  0
    1.7791    0.0000    0.0000 C   0  0  0  0  0  0  0  0  0  0  0  0
    2.7633    0.0000    1.2887 S   0  0  0  0  0  0  0  0  0  0  0  0
    2.1994   -0.0093   -1.3281 N   0  0  0  0  0  0  0  0  0  0  0  0
    1.1920   -0.0051   -2.2947 C   0  0  0  0  0  0  0  0  0  0  0  0
   -0.0683    0.0143   -1.7580 C   0  0  0  0  0  0  0  0  0  0  0  0
   -1.3330    0.0863   -2.4539 C   0  0  0  0  0  0  0  0  0  0  0  0
   -1.5348    0.0360   -3.6439 O   0  0  0  0  0  0  0  0  0  0  0  0
   -2.3607    0.2208   -1.5698 O   0  0  0  0  0  0  0  0  0  0  0  0
   -3.6626    0.2920   -2.1430 C   0  0  0  0  0  0  0  0  0  0  0  0
    1.7589    0.0365   -3.9657 S   0  0  0  0  0  0  0  0  0  0  0  0
    0.6080   -0.9929   -4.9130 C   0  0  0  0  0  0  0  0  0  0  0  0
    3.5945   -0.0077   -1.6814 C   0  0  0  0  0  0  0  0  0  0  0  0
    4.2686   -1.2270   -1.7871 C   0  0  0  0  0  0  0  0  0  0  0  0
    5.6139   -1.2177   -2.1454 C   0  0  0  0  0  0  0  0  0  0  0  0
    6.2690   -0.0097   -2.3824 C   0  0  0  0  0  0  0  0  0  0  0  0
    5.5871    1.1998   -2.2549 C   0  0  0  0  0  0  0  0  0  0  0  0
    4.2409    1.2120   -1.8989 C   0  0  0  0  0  0  0  0  0  0  0  0
   -3.8884   -0.6310   -2.6864 H   0  0  0  0  0  0  0  0  0  0  0  0
   -3.7378    1.1562   -2.8110 H   0  0  0  0  0  0  0  0  0  0  0  0
   -4.3051    0.4078   -1.2618 H   0  0  0  0  0  0  0  0  0  0  0  0
    1.1768   -1.5399   -5.6759 H   0  0  0  0  0  0  0  0  0  0  0  0
   -0.1570   -0.3787   -5.4169 H   0  0  0  0  0  0  0  0  0  0  0  0
    0.0664   -1.7246   -4.3011 H   0  0  0  0  0  0  0  0  0  0  0  0
    3.7520   -2.1650   -1.5878 H   0  0  0  0  0  0  0  0  0  0  0  0
    6.1543   -2.1585   -2.2388 H   0  0  0  0  0  0  0  0  0  0  0  0
    7.3203   -0.0107   -2.6658 H   0  0  0  0  0  0  0  0  0  0  0  0
    6.1074    2.1402   -2.4326 H   0  0  0  0  0  0  0  0  0  0  0  0
    3.7043    2.1536   -1.7862 H   0  0  0  0  0  0  0  0  0  0  0  0
  2  1  1  0  0  0  0
  2  3  2  0  0  0  0
  4  2  1  0  0  0  0
  5  6  2  0  0  0  0
  5  4  1  0  0  0  0
  6  1  1  0  0  0  0
  7  6  1  0  0  0  0
  7  9  1  0  0  0  0
  8  7  2  0  0  0  0
 10  9  1  0  0  0  0
 10 21  1  0  0  0  0
 11  5  1  0  0  0  0
 12 24  1  0  0  0  0
 12 11  1  0  0  0  0
 13  4  1  0  0  0  0
 14 13  1  0  0  0  0
 14 25  1  0  0  0  0
 15 14  2  0  0  0  0
 16 17  2  0  0  0  0
 16 15  1  0  0  0  0
 17 18  1  0  0  0  0
 18 29  1  0  0  0  0
 18 13  2  0  0  0  0
 19 10  1  0  0  0  0
 20 10  1  0  0  0  0
 22 12  1  0  0  0  0
 23 12  1  0  0  0  0
 26 15  1  0  0  0  0
 27 16  1  0  0  0  0
 28 17  1  0  0  0  0
M  END
$$$$
