rmsd222.gzmat
 OpenBabel08211713393D

 29 30  0  0  0  0  0  0  0  0999 V2000
    0.0000    0.0000    0.0000 S   0  0  0  0  0  0  0  0  0  0  0  0
    1.7794    0.0000    0.0000 C   0  0  0  0  0  0  0  0  0  0  0  0
    2.7624    0.0000    1.2899 S   0  0  0  0  0  0  0  0  0  0  0  0
    2.1996   -0.0035   -1.3280 N   0  0  0  0  0  0  0  0  0  0  0  0
    1.1920    0.0080   -2.2940 C   0  0  0  0  0  0  0  0  0  0  0  0
   -0.0669    0.0232   -1.7567 C   0  0  0  0  0  0  0  0  0  0  0  0
   -1.3340    0.0939   -2.4516 C   0  0  0  0  0  0  0  0  0  0  0  0
   -1.5707   -0.1827   -3.6033 O   0  0  0  0  0  0  0  0  0  0  0  0
   -2.3134    0.5319   -1.6126 O   0  0  0  0  0  0  0  0  0  0  0  0
   -3.6109    0.6478   -2.1883 C   0  0  0  0  0  0  0  0  0  0  0  0
    1.7485    0.0882   -3.9681 S   0  0  0  0  0  0  0  0  0  0  0  0
    0.6551   -1.0095   -4.9071 C   0  0  0  0  0  0  0  0  0  0  0  0
    3.5962    0.0100   -1.6744 C   0  0  0  0  0  0  0  0  0  0  0  0
    4.2748   -1.2037   -1.8096 C   0  0  0  0  0  0  0  0  0  0  0  0
    5.6303   -1.1789   -2.1275 C   0  0  0  0  0  0  0  0  0  0  0  0
    6.2872    0.0379   -2.3080 C   0  0  0  0  0  0  0  0  0  0  0  0
    5.5961    1.2407   -2.1661 C   0  0  0  0  0  0  0  0  0  0  0  0
    4.2416    1.2373   -1.8439 C   0  0  0  0  0  0  0  0  0  0  0  0
   -4.2182    0.9924   -1.3425 H   0  0  0  0  0  0  0  0  0  0  0  0
   -3.9520   -0.3242   -2.5602 H   0  0  0  0  0  0  0  0  0  0  0  0
   -3.5993    1.3841   -2.9989 H   0  0  0  0  0  0  0  0  0  0  0  0
    1.2514   -1.5264   -5.6697 H   0  0  0  0  0  0  0  0  0  0  0  0
   -0.1471   -0.4429   -5.4071 H   0  0  0  0  0  0  0  0  0  0  0  0
    0.1567   -1.7688   -4.2904 H   0  0  0  0  0  0  0  0  0  0  0  0
    3.7551   -2.1493   -1.6622 H   0  0  0  0  0  0  0  0  0  0  0  0
    6.1778   -2.1150   -2.2285 H   0  0  0  0  0  0  0  0  0  0  0  0
    7.3474    0.0488   -2.5560 H   0  0  0  0  0  0  0  0  0  0  0  0
    6.1150    2.1885   -2.3032 H   0  0  0  0  0  0  0  0  0  0  0  0
    3.6972    2.1728   -1.7191 H   0  0  0  0  0  0  0  0  0  0  0  0
  2  1  1  0  0  0  0
  2  3  2  0  0  0  0
  4  2  1  0  0  0  0
  5  6  2  0  0  0  0
  5  4  1  0  0  0  0
  6  1  1  0  0  0  0
  7  6  1  0  0  0  0
  7  9  1  0  0  0  0
  8  7  2  0  0  0  0
 10  9  1  0  0  0  0
 10 19  1  0  0  0  0
 11  5  1  0  0  0  0
 12 24  1  0  0  0  0
 12 11  1  0  0  0  0
 13  4  1  0  0  0  0
 14 13  1  0  0  0  0
 14 25  1  0  0  0  0
 15 14  2  0  0  0  0
 16 17  2  0  0  0  0
 16 15  1  0  0  0  0
 17 18  1  0  0  0  0
 18 29  1  0  0  0  0
 18 13  2  0  0  0  0
 20 10  1  0  0  0  0
 21 10  1  0  0  0  0
 22 12  1  0  0  0  0
 23 12  1  0  0  0  0
 26 15  1  0  0  0  0
 27 16  1  0  0  0  0
 28 17  1  0  0  0  0
M  END
$$$$
