29
rmsd27.gzmat
S          0.00000        0.00000        0.00000
C          1.77790        0.00000        0.00000
S          2.76090        0.00000        1.28990
N          2.20020        0.01040       -1.32790
C          1.19390       -0.01260       -2.29580
C         -0.06590       -0.03200       -1.75800
C         -1.33380       -0.13060       -2.44420
O         -1.54030       -0.43590       -3.59450
O         -2.35740        0.17950       -1.59940
C         -3.66680        0.08000       -2.14940
S          1.76780       -0.04840       -3.96210
C          0.50040        0.78080       -4.95330
C          3.59660        0.07010       -1.66940
C          4.31020       -1.11810       -1.84280
C          5.66650       -1.04320       -2.15030
C          6.29080        0.19700       -2.27780
C          5.56490        1.37430       -2.09970
C          4.20850        1.32100       -1.79130
H         -4.30460        0.34050       -1.29560
H         -3.85760       -0.94120       -2.49720
H         -3.78620        0.79200       -2.97260
H          0.99530        1.26210       -5.80750
H         -0.05220        1.55090       -4.40370
H         -0.24520        0.06590       -5.34260
H          3.81750       -2.08370       -1.73160
H          6.24000       -1.95920       -2.28780
H          7.35240        0.24700       -2.51470
H          6.05920        2.34000       -2.19710
H          3.63620        2.23520       -1.64050
