
     RDKit          3D

 29 30  0  0  0  0  0  0  0  0999 V2000
   -0.0171   -0.2520   -0.0571 S   0  0  0  0  0  0  0  0  0  0  0  0
    1.7399   -0.2321   -0.0609 C   0  0  0  0  0  0  0  0  0  0  0  0
    2.6976   -0.3376    1.2734 S   0  0  0  0  0  0  0  0  0  0  0  0
    2.1669   -0.1251   -1.3829 N   0  0  0  0  0  0  0  0  0  0  0  0
    1.1706   -0.0563   -2.3542 C   0  0  0  0  0  0  0  0  0  0  0  0
   -0.0937   -0.0801   -1.8134 C   0  0  0  0  0  0  0  0  0  0  0  0
   -1.3784    0.1562   -2.4756 C   0  0  0  0  0  0  0  0  0  0  0  0
   -1.5530    0.3935   -3.6520 O   0  0  0  0  0  0  0  0  0  0  0  0
   -2.3868    0.0946   -1.5811 O   0  0  0  0  0  0  0  0  0  0  0  0
   -3.6957    0.3465   -2.0862 C   0  0  0  0  0  0  0  0  0  0  0  0
    1.6882    0.0599   -4.0334 S   0  0  0  0  0  0  0  0  0  0  0  0
    0.6517   -1.1886   -4.8672 C   0  0  0  0  0  0  0  0  0  0  0  0
    3.5680   -0.0727   -1.6967 C   0  0  0  0  0  0  0  0  0  0  0  0
    4.3132   -1.2522   -1.7265 C   0  0  0  0  0  0  0  0  0  0  0  0
    5.6709   -1.1940   -2.0398 C   0  0  0  0  0  0  0  0  0  0  0  0
    6.2755    0.0368   -2.3162 C   0  0  0  0  0  0  0  0  0  0  0  0
    5.5225    1.2128   -2.2752 C   0  0  0  0  0  0  0  0  0  0  0  0
    4.1632    1.1613   -1.9592 C   0  0  0  0  0  0  0  0  0  0  0  0
   -4.3752    0.2520   -1.2308 H   0  0  0  0  0  0  0  0  0  0  0  0
   -3.9590   -0.3820   -2.8679 H   0  0  0  0  0  0  0  0  0  0  0  0
   -3.7598    1.3571   -2.5169 H   0  0  0  0  0  0  0  0  0  0  0  0
    1.0828   -1.2767   -5.8744 H   0  0  0  0  0  0  0  0  0  0  0  0
   -0.3893   -0.8510   -4.9203 H   0  0  0  0  0  0  0  0  0  0  0  0
    0.7346   -2.1535   -4.3490 H   0  0  0  0  0  0  0  0  0  0  0  0
    3.8255   -2.2013   -1.5006 H   0  0  0  0  0  0  0  0  0  0  0  0
    6.2607   -2.1129   -2.0664 H   0  0  0  0  0  0  0  0  0  0  0  0
    7.3393    0.0786   -2.5610 H   0  0  0  0  0  0  0  0  0  0  0  0
    5.9939    2.1752   -2.4859 H   0  0  0  0  0  0  0  0  0  0  0  0
    3.5608    2.0704   -1.9144 H   0  0  0  0  0  0  0  0  0  0  0  0
  1  2  1  0
  1  6  1  0
  2  3  2  0
  2  4  1  0
  4  5  1  0
  4 13  1  0
  5  6  2  0
  5 11  1  0
  6  7  1  0
  7  8  2  0
  7  9  1  0
  9 10  1  0
 10 19  1  0
 10 20  1  0
 10 21  1  0
 11 12  1  0
 12 22  1  0
 12 23  1  0
 12 24  1  0
 13 14  2  0
 13 18  1  0
 14 15  1  0
 14 25  1  0
 15 16  2  0
 15 26  1  0
 16 17  1  0
 16 27  1  0
 17 18  2  0
 17 28  1  0
 18 29  1  0
M  END

