43
rmsd52.gzmat
Cl         0.00000        0.00000        0.00000
C          1.65950        0.00000        0.00000
C          2.50220        0.00000        1.03920
Cl         2.14930        0.02490        2.66110
C          3.95520       -0.09160        0.56450
H          4.55800        0.82230        0.79180
O          4.52740       -1.26700        1.06410
C          5.49110       -1.05770        2.09000
N          3.81090       -0.21400       -0.91450
C          2.42790       -0.13830       -1.27870
O          2.03540       -0.14720       -2.40920
C          4.63200       -1.12250       -1.66530
H          4.77830       -0.71800       -2.69310
C          5.96470       -1.56960       -0.97730
O          6.94050       -1.03310       -0.55750
N          5.62210       -2.92800       -1.11210
C          4.25770       -2.69250       -1.67730
H          4.19280       -3.10880       -2.70800
C          3.06680       -3.05900       -0.85860
C          1.81160       -2.98760       -1.47390
C          0.65610       -3.21870       -0.73410
C          0.74590       -3.53510        0.62120
C          1.99490       -3.64320        1.22700
C          3.15380       -3.41190        0.48770
C          6.15950       -4.09260       -0.56680
C          7.38830       -4.03790        0.11160
C          7.92360       -5.20560        0.64260
C          7.25090       -6.41940        0.50910
C          6.03520       -6.46830       -0.17190
C          5.48320       -5.31490       -0.71600
H          5.79720       -2.08480        2.33560
H          5.03990       -0.57550        2.96060
H          6.35090       -0.49160        1.71030
H          1.73220       -2.73310       -2.53220
H         -0.31920       -3.14480       -1.21350
H         -0.15900       -3.70050        1.20310
H          2.07110       -3.90790        2.28030
H          4.12700       -3.50590        0.97330
H          7.91770       -3.09180        0.21260
H          8.87770       -5.16860        1.16730
H          7.67380       -7.32580        0.93230
H          5.50990       -7.41690       -0.27810
H          4.53500       -5.35740       -1.24630
