rmsd67.gzmat
 OpenBabel08211713393D

 43 46  0  0  1  0  0  0  0  0999 V2000
    0.0000    0.0000    0.0000 Cl  0  0  0  0  0  0  0  0  0  0  0  0
    1.6593    0.0000    0.0000 C   0  0  0  0  0  0  0  0  0  0  0  0
    2.5017    0.0000    1.0392 C   0  0  0  0  0  0  0  0  0  0  0  0
    2.1493    0.0276    2.6615 Cl  0  0  0  0  0  0  0  0  0  0  0  0
    3.9546   -0.0896    0.5645 C   0  0  1  0  0  0  0  0  0  0  0  0
    4.5564    0.8243    0.7942 H   0  0  0  0  0  0  0  0  0  0  0  0
    4.5281   -1.2668    1.0588 O   0  0  0  0  0  0  0  0  0  0  0  0
    5.4845   -1.0605    2.0921 C   0  0  0  0  0  0  0  0  0  0  0  0
    3.8102   -0.2081   -0.9147 N   0  0  0  0  0  0  0  0  0  0  0  0
    2.4282   -0.1366   -1.2794 C   0  0  0  0  0  0  0  0  0  0  0  0
    2.0359   -0.1478   -2.4101 O   0  0  0  0  0  0  0  0  0  0  0  0
    4.6427   -1.1029   -1.6689 C   0  0  1  0  0  0  0  0  0  0  0  0
    4.7742   -0.6998   -2.6991 H   0  0  0  0  0  0  0  0  0  0  0  0
    5.9862   -1.5155   -0.9811 C   0  0  0  0  0  0  0  0  0  0  0  0
    6.9495   -0.9533   -0.5654 O   0  0  0  0  0  0  0  0  0  0  0  0
    5.6719   -2.8816   -1.1006 N   0  0  0  0  0  0  0  0  0  0  0  0
    4.3046   -2.6825   -1.6717 C   0  0  1  0  0  0  0  0  0  0  0  0
    4.2538   -3.1094   -2.6989 H   0  0  0  0  0  0  0  0  0  0  0  0
    3.1164   -3.0652   -0.8569 C   0  0  0  0  0  0  0  0  0  0  0  0
    1.8616   -2.9887   -1.4729 C   0  0  0  0  0  0  0  0  0  0  0  0
    0.7052   -3.2226   -0.7358 C   0  0  0  0  0  0  0  0  0  0  0  0
    0.7937   -3.5497    0.6171 C   0  0  0  0  0  0  0  0  0  0  0  0
    2.0424   -3.6683    1.2215 C   0  0  0  0  0  0  0  0  0  0  0  0
    3.2024   -3.4332    0.4852 C   0  0  0  0  0  0  0  0  0  0  0  0
    6.2499   -4.0300   -0.5639 C   0  0  0  0  0  0  0  0  0  0  0  0
    7.4820   -3.9351    0.1047 C   0  0  0  0  0  0  0  0  0  0  0  0
    8.0655   -5.0862    0.6202 C   0  0  0  0  0  0  0  0  0  0  0  0
    7.4378   -6.3232    0.4809 C   0  0  0  0  0  0  0  0  0  0  0  0
    6.2159   -6.4107   -0.1842 C   0  0  0  0  0  0  0  0  0  0  0  0
    5.6140   -5.2736   -0.7107 C   0  0  0  0  0  0  0  0  0  0  0  0
    5.8120   -2.0862    2.3157 H   0  0  0  0  0  0  0  0  0  0  0  0
    5.0183   -0.6086    2.9710 H   0  0  0  0  0  0  0  0  0  0  0  0
    6.3339   -0.4676    1.7297 H   0  0  0  0  0  0  0  0  0  0  0  0
    1.7839   -2.7283   -2.5300 H   0  0  0  0  0  0  0  0  0  0  0  0
   -0.2697   -3.1428   -1.2151 H   0  0  0  0  0  0  0  0  0  0  0  0
   -0.1119   -3.7145    1.1980 H   0  0  0  0  0  0  0  0  0  0  0  0
    2.1169   -3.9395    2.2730 H   0  0  0  0  0  0  0  0  0  0  0  0
    4.1752   -3.5314    0.9705 H   0  0  0  0  0  0  0  0  0  0  0  0
    7.9767   -2.9706    0.2092 H   0  0  0  0  0  0  0  0  0  0  0  0
    9.0227   -5.0185    1.1360 H   0  0  0  0  0  0  0  0  0  0  0  0
    7.9016   -7.2175    0.8874 H   0  0  0  0  0  0  0  0  0  0  0  0
    5.7270   -7.3782   -0.2951 H   0  0  0  0  0  0  0  0  0  0  0  0
    4.6594   -5.3459   -1.2257 H   0  0  0  0  0  0  0  0  0  0  0  0
  1  2  1  0  0  0  0
  2  3  2  0  0  0  0
  3  4  1  0  0  0  0
  5  6  1  1  0  0  0
  5  3  1  0  0  0  0
  5  7  1  0  0  0  0
  7  8  1  0  0  0  0
  8 31  1  0  0  0  0
  8 32  1  0  0  0  0
  9  5  1  0  0  0  0
 10  9  1  0  0  0  0
 10  2  1  0  0  0  0
 11 10  2  0  0  0  0
 12 17  1  0  0  0  0
 12 14  1  0  0  0  0
 12  9  1  0  0  0  0
 12 13  1  6  0  0  0
 14 15  2  0  0  0  0
 16 14  1  0  0  0  0
 16 25  1  0  0  0  0
 17 18  1  6  0  0  0
 17 16  1  0  0  0  0
 17 19  1  0  0  0  0
 19 24  1  0  0  0  0
 20 19  2  0  0  0  0
 20 21  1  0  0  0  0
 21 22  2  0  0  0  0
 22 36  1  0  0  0  0
 22 23  1  0  0  0  0
 23 37  1  0  0  0  0
 24 38  1  0  0  0  0
 24 23  2  0  0  0  0
 25 26  1  0  0  0  0
 26 39  1  0  0  0  0
 26 27  2  0  0  0  0
 27 40  1  0  0  0  0
 28 27  1  0  0  0  0
 28 41  1  0  0  0  0
 29 28  2  0  0  0  0
 30 25  2  0  0  0  0
 30 29  1  0  0  0  0
 33  8  1  0  0  0  0
 34 20  1  0  0  0  0
 35 21  1  0  0  0  0
 42 29  1  0  0  0  0
 43 30  1  0  0  0  0
M  END
$$$$
