43
rmsd186.gzmat
Cl         0.00000        0.00000        0.00000
C          1.65940        0.00000        0.00000
C          2.50200        0.00000        1.03910
Cl         2.15020        0.02650        2.66150
C          3.95500       -0.09250        0.56470
H          4.56400        0.81430        0.80220
O          4.51790       -1.27780        1.05280
C          5.47580       -1.08810        2.08770
N          3.81040       -0.20040       -0.91520
C          2.42820       -0.13130       -1.27970
O          2.03610       -0.13830       -2.41050
C          4.64670       -1.08400       -1.67830
H          4.78270       -0.66540       -2.70170
C          5.98720       -1.50920       -0.99250
O          6.94940       -0.95630       -0.56260
N          5.67410       -2.87290       -1.13910
C          4.30680       -2.66290       -1.70740
H          4.25530       -3.07180       -2.74170
C          3.11930       -3.05780       -0.89750
C          1.86400       -2.98270       -1.51240
C          0.70850       -3.22160       -0.77510
C          0.79840       -3.55050        0.57720
C          2.04770       -3.67050        1.18010
C          3.20680       -3.43340        0.44250
C          6.24060       -4.02930       -0.60680
C          7.45690       -3.94780        0.09160
C          8.02470       -5.10840        0.60360
C          7.39790       -6.34150        0.42960
C          6.19180       -6.41590       -0.26620
C          5.60540       -5.26910       -0.78830
H          5.76850       -2.12080        2.32590
H          5.02460       -0.60850        2.95970
H          6.34520       -0.52910        1.71930
H          1.78500       -2.71860       -2.56840
H         -0.26670       -3.14390       -1.25430
H         -0.10650       -3.71720        1.15880
H          2.12460       -3.94350        2.23120
H          4.17980       -3.53770        0.92570
H          7.95220       -2.98670        0.22230
H          8.96940       -5.05040        1.14330
H          7.84910       -7.24340        0.83320
H          5.70280       -7.37980       -0.40330
H          4.66240       -5.32910       -1.32550
