43
rmsd9.gzmat
Cl         0.00000        0.00000        0.00000
C          1.65910        0.00000        0.00000
C          2.50210        0.00000        1.03880
Cl         2.15060        0.02580        2.66100
C          3.95480       -0.09110        0.56340
H          4.55830        0.82140        0.79390
O          4.52620       -1.26970        1.05700
C          5.48500       -1.06720        2.08890
N          3.80940       -0.20840       -0.91590
C          2.42670       -0.13610       -1.27940
O          2.03350       -0.14680       -2.40970
C          4.63630       -1.10780       -1.67100
H          4.77710       -0.69990       -2.69800
C          5.97300       -1.54070       -0.98260
O          6.94130       -0.99250       -0.56060
N          5.64480       -2.90260       -1.11650
C          4.27870       -2.68220       -1.68420
H          4.22130       -3.09950       -2.71490
C          3.08850       -3.05980       -0.86930
C          1.83420       -2.99210       -1.48700
C          0.67780       -3.22640       -0.74960
C          0.76550       -3.54240        0.60580
C          2.01370       -3.64850        1.21340
C          3.17380       -3.41640        0.47570
C          6.19370       -4.05880       -0.56500
C          7.41560       -3.98410        0.12420
C          7.96430       -5.14270        0.66070
C          7.31260       -6.36740        0.51990
C          6.10330       -6.43560       -0.17040
C          5.53630       -5.29060       -0.71760
H          5.82190       -2.09310        2.29920
H          5.01650       -0.62980        2.97440
H          6.32910       -0.46340        1.73170
H          1.75680       -2.73790       -2.54550
H         -0.29660       -3.15500       -1.23090
H         -0.14010       -3.70910        1.18610
H          2.08880       -3.90750        2.26800
H          4.14610       -3.50990        0.96310
H          7.92760       -3.02860        0.23050
H          8.91210       -5.09070        1.19540
H          7.74750       -7.26710        0.94520
H          5.59510       -7.39310       -0.28280
H          4.59100       -5.34660       -1.25170
