rmsd204.gzmat
 OpenBabel08211713393D

 43 46  0  0  1  0  0  0  0  0999 V2000
    0.0000    0.0000    0.0000 Cl  0  0  0  0  0  0  0  0  0  0  0  0
    1.6593    0.0000    0.0000 C   0  0  0  0  0  0  0  0  0  0  0  0
    2.5017    0.0000    1.0392 C   0  0  0  0  0  0  0  0  0  0  0  0
    2.1482    0.0283    2.6611 Cl  0  0  0  0  0  0  0  0  0  0  0  0
    3.9542   -0.0995    0.5654 C   0  0  1  0  0  0  0  0  0  0  0  0
    4.5667    0.8053    0.8016 H   0  0  0  0  0  0  0  0  0  0  0  0
    4.5122   -1.2870    1.0540 O   0  0  0  0  0  0  0  0  0  0  0  0
    5.4701   -1.1007    2.0895 C   0  0  0  0  0  0  0  0  0  0  0  0
    3.8101   -0.2096   -0.9145 N   0  0  0  0  0  0  0  0  0  0  0  0
    2.4282   -0.1345   -1.2794 C   0  0  0  0  0  0  0  0  0  0  0  0
    2.0365   -0.1385   -2.4102 O   0  0  0  0  0  0  0  0  0  0  0  0
    4.6422   -1.1013   -1.6733 C   0  0  1  0  0  0  0  0  0  0  0  0
    4.7902   -0.6837   -2.6953 H   0  0  0  0  0  0  0  0  0  0  0  0
    5.9730   -1.5422   -0.9777 C   0  0  0  0  0  0  0  0  0  0  0  0
    6.9390   -0.9991   -0.5432 O   0  0  0  0  0  0  0  0  0  0  0  0
    5.6440   -2.9020   -1.1250 N   0  0  0  0  0  0  0  0  0  0  0  0
    4.2855   -2.6757   -1.7072 C   0  0  1  0  0  0  0  0  0  0  0  0
    4.2413   -3.0815   -2.7431 H   0  0  0  0  0  0  0  0  0  0  0  0
    3.0857   -3.0606   -0.9107 C   0  0  0  0  0  0  0  0  0  0  0  0
    1.8398   -2.9862   -1.5441 C   0  0  0  0  0  0  0  0  0  0  0  0
    0.6733   -3.2184   -0.8226 C   0  0  0  0  0  0  0  0  0  0  0  0
    0.7426   -3.5400    0.5324 C   0  0  0  0  0  0  0  0  0  0  0  0
    1.9827   -3.6577    1.1546 C   0  0  0  0  0  0  0  0  0  0  0  0
    3.1530   -3.4268    0.4331 C   0  0  0  0  0  0  0  0  0  0  0  0
    6.1947   -4.0663   -0.5929 C   0  0  0  0  0  0  0  0  0  0  0  0
    7.4156   -4.0001    0.0989 C   0  0  0  0  0  0  0  0  0  0  0  0
    7.9682   -5.1665    0.6142 C   0  0  0  0  0  0  0  0  0  0  0  0
    7.3231   -6.3912    0.4468 C   0  0  0  0  0  0  0  0  0  0  0  0
    6.1146   -6.4505   -0.2459 C   0  0  0  0  0  0  0  0  0  0  0  0
    5.5421   -5.2970   -0.7693 C   0  0  0  0  0  0  0  0  0  0  0  0
    5.8018   -2.1299    2.2895 H   0  0  0  0  0  0  0  0  0  0  0  0
    5.0025   -0.6706    2.9785 H   0  0  0  0  0  0  0  0  0  0  0  0
    6.3174   -0.4972    1.7412 H   0  0  0  0  0  0  0  0  0  0  0  0
    1.7761   -2.7273   -2.6025 H   0  0  0  0  0  0  0  0  0  0  0  0
   -0.2944   -3.1415   -1.3162 H   0  0  0  0  0  0  0  0  0  0  0  0
   -0.1711   -3.7016    1.1014 H   0  0  0  0  0  0  0  0  0  0  0  0
    2.0420   -3.9237    2.2082 H   0  0  0  0  0  0  0  0  0  0  0  0
    4.1192   -3.5287    0.9308 H   0  0  0  0  0  0  0  0  0  0  0  0
    7.9249   -3.0455    0.2230 H   0  0  0  0  0  0  0  0  0  0  0  0
    8.9138   -5.1199    1.1535 H   0  0  0  0  0  0  0  0  0  0  0  0
    7.7620   -7.2976    0.8540 H   0  0  0  0  0  0  0  0  0  0  0  0
    5.6119   -7.4080   -0.3789 H   0  0  0  0  0  0  0  0  0  0  0  0
    4.5973   -5.3459   -1.3047 H   0  0  0  0  0  0  0  0  0  0  0  0
  1  2  1  0  0  0  0
  2  3  2  0  0  0  0
  3  4  1  0  0  0  0
  5  6  1  1  0  0  0
  5  3  1  0  0  0  0
  5  7  1  0  0  0  0
  7  8  1  0  0  0  0
  8 31  1  0  0  0  0
  8 32  1  0  0  0  0
  9  5  1  0  0  0  0
 10  9  1  0  0  0  0
 10  2  1  0  0  0  0
 11 10  2  0  0  0  0
 12 17  1  0  0  0  0
 12 14  1  0  0  0  0
 12  9  1  0  0  0  0
 12 13  1  6  0  0  0
 14 15  2  0  0  0  0
 16 14  1  0  0  0  0
 16 25  1  0  0  0  0
 17 18  1  6  0  0  0
 17 16  1  0  0  0  0
 17 19  1  0  0  0  0
 19 24  1  0  0  0  0
 20 19  2  0  0  0  0
 20 21  1  0  0  0  0
 21 22  2  0  0  0  0
 22 36  1  0  0  0  0
 22 23  1  0  0  0  0
 23 37  1  0  0  0  0
 24 38  1  0  0  0  0
 24 23  2  0  0  0  0
 25 26  1  0  0  0  0
 26 39  1  0  0  0  0
 26 27  2  0  0  0  0
 27 40  1  0  0  0  0
 28 27  1  0  0  0  0
 28 41  1  0  0  0  0
 29 28  2  0  0  0  0
 30 25  2  0  0  0  0
 30 29  1  0  0  0  0
 33  8  1  0  0  0  0
 34 20  1  0  0  0  0
 35 21  1  0  0  0  0
 42 29  1  0  0  0  0
 43 30  1  0  0  0  0
M  END
$$$$
