rmsd74.gzmat
 OpenBabel08211713393D

 43 46  0  0  1  0  0  0  0  0999 V2000
    0.0000    0.0000    0.0000 Cl  0  0  0  0  0  0  0  0  0  0  0  0
    1.6593    0.0000    0.0000 C   0  0  0  0  0  0  0  0  0  0  0  0
    2.5014    0.0000    1.0395 C   0  0  0  0  0  0  0  0  0  0  0  0
    2.1468    0.0269    2.6613 Cl  0  0  0  0  0  0  0  0  0  0  0  0
    3.9545   -0.0931    0.5654 C   0  0  1  0  0  0  0  0  0  0  0  0
    4.5597    0.8183    0.7957 H   0  0  0  0  0  0  0  0  0  0  0  0
    4.5225   -1.2724    1.0614 O   0  0  0  0  0  0  0  0  0  0  0  0
    5.4844   -1.0695    2.0903 C   0  0  0  0  0  0  0  0  0  0  0  0
    3.8108   -0.2108   -0.9139 N   0  0  0  0  0  0  0  0  0  0  0  0
    2.4281   -0.1376   -1.2787 C   0  0  0  0  0  0  0  0  0  0  0  0
    2.0359   -0.1482   -2.4094 O   0  0  0  0  0  0  0  0  0  0  0  0
    4.6363   -1.1125   -1.6681 C   0  0  1  0  0  0  0  0  0  0  0  0
    4.7894   -0.6979   -2.6909 H   0  0  0  0  0  0  0  0  0  0  0  0
    5.9650   -1.5681   -0.9771 C   0  0  0  0  0  0  0  0  0  0  0  0
    6.9377   -1.0363   -0.5443 O   0  0  0  0  0  0  0  0  0  0  0  0
    5.6242   -2.9249   -1.1330 N   0  0  0  0  0  0  0  0  0  0  0  0
    4.2615   -2.6818   -1.6991 C   0  0  1  0  0  0  0  0  0  0  0  0
    4.1984   -3.0874   -2.7340 H   0  0  0  0  0  0  0  0  0  0  0  0
    3.0713   -3.0572   -0.8835 C   0  0  0  0  0  0  0  0  0  0  0  0
    1.8165   -2.9930   -1.4996 C   0  0  0  0  0  0  0  0  0  0  0  0
    0.6617   -3.2259   -0.7592 C   0  0  0  0  0  0  0  0  0  0  0  0
    0.7517   -3.5340    0.5978 C   0  0  0  0  0  0  0  0  0  0  0  0
    2.0011   -3.6427    1.2026 C   0  0  0  0  0  0  0  0  0  0  0  0
    3.1593   -3.4120    0.4621 C   0  0  0  0  0  0  0  0  0  0  0  0
    6.1523   -4.0985   -0.5978 C   0  0  0  0  0  0  0  0  0  0  0  0
    7.3629   -4.0553    0.1129 C   0  0  0  0  0  0  0  0  0  0  0  0
    7.8878   -5.2335    0.6313 C   0  0  0  0  0  0  0  0  0  0  0  0
    7.2235   -6.4460    0.4519 C   0  0  0  0  0  0  0  0  0  0  0  0
    6.0260   -6.4828   -0.2613 C   0  0  0  0  0  0  0  0  0  0  0  0
    5.4826   -5.3181   -0.7898 C   0  0  0  0  0  0  0  0  0  0  0  0
    5.7964   -2.0975    2.3241 H   0  0  0  0  0  0  0  0  0  0  0  0
    5.0294   -0.5999    2.9655 H   0  0  0  0  0  0  0  0  0  0  0  0
    6.3417   -0.4949    1.7181 H   0  0  0  0  0  0  0  0  0  0  0  0
    1.7371   -2.7412   -2.5585 H   0  0  0  0  0  0  0  0  0  0  0  0
   -0.3133   -3.1610   -1.2400 H   0  0  0  0  0  0  0  0  0  0  0  0
   -0.1530   -3.6927    1.1817 H   0  0  0  0  0  0  0  0  0  0  0  0
    2.0785   -3.9058    2.2562 H   0  0  0  0  0  0  0  0  0  0  0  0
    4.1326   -3.5069    0.9469 H   0  0  0  0  0  0  0  0  0  0  0  0
    7.8857   -3.1098    0.2480 H   0  0  0  0  0  0  0  0  0  0  0  0
    8.8277   -5.2066    1.1814 H   0  0  0  0  0  0  0  0  0  0  0  0
    7.6387   -7.3609    0.8643 H   0  0  0  0  0  0  0  0  0  0  0  0
    5.5095   -7.4311   -0.4067 H   0  0  0  0  0  0  0  0  0  0  0  0
    4.5460   -5.3502   -1.3408 H   0  0  0  0  0  0  0  0  0  0  0  0
  1  2  1  0  0  0  0
  2  3  2  0  0  0  0
  3  4  1  0  0  0  0
  5  6  1  1  0  0  0
  5  3  1  0  0  0  0
  5  7  1  0  0  0  0
  7  8  1  0  0  0  0
  8 31  1  0  0  0  0
  8 32  1  0  0  0  0
  9  5  1  0  0  0  0
 10  9  1  0  0  0  0
 10  2  1  0  0  0  0
 11 10  2  0  0  0  0
 12 17  1  0  0  0  0
 12 14  1  0  0  0  0
 12  9  1  0  0  0  0
 12 13  1  6  0  0  0
 14 15  2  0  0  0  0
 16 14  1  0  0  0  0
 16 25  1  0  0  0  0
 17 18  1  6  0  0  0
 17 16  1  0  0  0  0
 17 19  1  0  0  0  0
 19 24  1  0  0  0  0
 20 19  2  0  0  0  0
 20 21  1  0  0  0  0
 21 22  2  0  0  0  0
 22 36  1  0  0  0  0
 22 23  1  0  0  0  0
 23 37  1  0  0  0  0
 24 38  1  0  0  0  0
 24 23  2  0  0  0  0
 25 26  1  0  0  0  0
 26 39  1  0  0  0  0
 26 27  2  0  0  0  0
 27 40  1  0  0  0  0
 28 27  1  0  0  0  0
 28 41  1  0  0  0  0
 29 28  2  0  0  0  0
 30 25  2  0  0  0  0
 30 29  1  0  0  0  0
 33  8  1  0  0  0  0
 34 20  1  0  0  0  0
 35 21  1  0  0  0  0
 42 29  1  0  0  0  0
 43 30  1  0  0  0  0
M  END
$$$$
