rmsd52.gzmat
 OpenBabel08211713393D

 43 46  0  0  1  0  0  0  0  0999 V2000
    0.0000    0.0000    0.0000 Cl  0  0  0  0  0  0  0  0  0  0  0  0
    1.6595    0.0000    0.0000 C   0  0  0  0  0  0  0  0  0  0  0  0
    2.5022    0.0000    1.0392 C   0  0  0  0  0  0  0  0  0  0  0  0
    2.1493    0.0249    2.6611 Cl  0  0  0  0  0  0  0  0  0  0  0  0
    3.9552   -0.0916    0.5645 C   0  0  1  0  0  0  0  0  0  0  0  0
    4.5580    0.8223    0.7918 H   0  0  0  0  0  0  0  0  0  0  0  0
    4.5274   -1.2670    1.0641 O   0  0  0  0  0  0  0  0  0  0  0  0
    5.4911   -1.0577    2.0900 C   0  0  0  0  0  0  0  0  0  0  0  0
    3.8109   -0.2140   -0.9145 N   0  0  0  0  0  0  0  0  0  0  0  0
    2.4279   -0.1383   -1.2787 C   0  0  0  0  0  0  0  0  0  0  0  0
    2.0354   -0.1472   -2.4092 O   0  0  0  0  0  0  0  0  0  0  0  0
    4.6320   -1.1225   -1.6653 C   0  0  1  0  0  0  0  0  0  0  0  0
    4.7783   -0.7180   -2.6931 H   0  0  0  0  0  0  0  0  0  0  0  0
    5.9647   -1.5696   -0.9773 C   0  0  0  0  0  0  0  0  0  0  0  0
    6.9405   -1.0331   -0.5575 O   0  0  0  0  0  0  0  0  0  0  0  0
    5.6221   -2.9280   -1.1121 N   0  0  0  0  0  0  0  0  0  0  0  0
    4.2577   -2.6925   -1.6773 C   0  0  1  0  0  0  0  0  0  0  0  0
    4.1928   -3.1088   -2.7080 H   0  0  0  0  0  0  0  0  0  0  0  0
    3.0668   -3.0590   -0.8586 C   0  0  0  0  0  0  0  0  0  0  0  0
    1.8116   -2.9876   -1.4739 C   0  0  0  0  0  0  0  0  0  0  0  0
    0.6561   -3.2187   -0.7341 C   0  0  0  0  0  0  0  0  0  0  0  0
    0.7459   -3.5351    0.6212 C   0  0  0  0  0  0  0  0  0  0  0  0
    1.9949   -3.6432    1.2270 C   0  0  0  0  0  0  0  0  0  0  0  0
    3.1538   -3.4119    0.4877 C   0  0  0  0  0  0  0  0  0  0  0  0
    6.1595   -4.0926   -0.5668 C   0  0  0  0  0  0  0  0  0  0  0  0
    7.3883   -4.0379    0.1116 C   0  0  0  0  0  0  0  0  0  0  0  0
    7.9236   -5.2056    0.6426 C   0  0  0  0  0  0  0  0  0  0  0  0
    7.2509   -6.4194    0.5091 C   0  0  0  0  0  0  0  0  0  0  0  0
    6.0352   -6.4683   -0.1719 C   0  0  0  0  0  0  0  0  0  0  0  0
    5.4832   -5.3149   -0.7160 C   0  0  0  0  0  0  0  0  0  0  0  0
    5.7972   -2.0848    2.3356 H   0  0  0  0  0  0  0  0  0  0  0  0
    5.0399   -0.5755    2.9606 H   0  0  0  0  0  0  0  0  0  0  0  0
    6.3509   -0.4916    1.7103 H   0  0  0  0  0  0  0  0  0  0  0  0
    1.7322   -2.7331   -2.5322 H   0  0  0  0  0  0  0  0  0  0  0  0
   -0.3192   -3.1448   -1.2135 H   0  0  0  0  0  0  0  0  0  0  0  0
   -0.1590   -3.7005    1.2031 H   0  0  0  0  0  0  0  0  0  0  0  0
    2.0711   -3.9079    2.2803 H   0  0  0  0  0  0  0  0  0  0  0  0
    4.1270   -3.5059    0.9733 H   0  0  0  0  0  0  0  0  0  0  0  0
    7.9177   -3.0918    0.2126 H   0  0  0  0  0  0  0  0  0  0  0  0
    8.8777   -5.1686    1.1673 H   0  0  0  0  0  0  0  0  0  0  0  0
    7.6738   -7.3258    0.9323 H   0  0  0  0  0  0  0  0  0  0  0  0
    5.5099   -7.4169   -0.2781 H   0  0  0  0  0  0  0  0  0  0  0  0
    4.5350   -5.3574   -1.2463 H   0  0  0  0  0  0  0  0  0  0  0  0
  1  2  1  0  0  0  0
  2  3  2  0  0  0  0
  3  4  1  0  0  0  0
  5  6  1  1  0  0  0
  5  3  1  0  0  0  0
  5  7  1  0  0  0  0
  7  8  1  0  0  0  0
  8 31  1  0  0  0  0
  8 32  1  0  0  0  0
  9  5  1  0  0  0  0
 10  9  1  0  0  0  0
 10  2  1  0  0  0  0
 11 10  2  0  0  0  0
 12 17  1  0  0  0  0
 12 14  1  0  0  0  0
 12  9  1  0  0  0  0
 12 13  1  6  0  0  0
 14 15  2  0  0  0  0
 16 14  1  0  0  0  0
 16 25  1  0  0  0  0
 17 18  1  6  0  0  0
 17 16  1  0  0  0  0
 17 19  1  0  0  0  0
 19 24  1  0  0  0  0
 20 19  2  0  0  0  0
 20 21  1  0  0  0  0
 21 22  2  0  0  0  0
 22 36  1  0  0  0  0
 22 23  1  0  0  0  0
 23 37  1  0  0  0  0
 24 38  1  0  0  0  0
 24 23  2  0  0  0  0
 25 26  1  0  0  0  0
 26 39  1  0  0  0  0
 26 27  2  0  0  0  0
 27 40  1  0  0  0  0
 28 27  1  0  0  0  0
 28 41  1  0  0  0  0
 29 28  2  0  0  0  0
 30 25  2  0  0  0  0
 30 29  1  0  0  0  0
 33  8  1  0  0  0  0
 34 20  1  0  0  0  0
 35 21  1  0  0  0  0
 42 29  1  0  0  0  0
 43 30  1  0  0  0  0
M  END
$$$$
