rmsd205.gzmat
 OpenBabel08211713393D

 43 46  0  0  1  0  0  0  0  0999 V2000
    0.0000    0.0000    0.0000 Cl  0  0  0  0  0  0  0  0  0  0  0  0
    1.6593    0.0000    0.0000 C   0  0  0  0  0  0  0  0  0  0  0  0
    2.5023    0.0000    1.0388 C   0  0  0  0  0  0  0  0  0  0  0  0
    2.1496    0.0192    2.6611 Cl  0  0  0  0  0  0  0  0  0  0  0  0
    3.9553   -0.0851    0.5634 C   0  0  1  0  0  0  0  0  0  0  0  0
    4.5563    0.8293    0.7941 H   0  0  0  0  0  0  0  0  0  0  0  0
    4.5312   -1.2615    1.0578 O   0  0  0  0  0  0  0  0  0  0  0  0
    5.4897   -1.0527    2.0889 C   0  0  0  0  0  0  0  0  0  0  0  0
    3.8107   -0.2023   -0.9159 N   0  0  0  0  0  0  0  0  0  0  0  0
    2.4276   -0.1317   -1.2797 C   0  0  0  0  0  0  0  0  0  0  0  0
    2.0339   -0.1404   -2.4098 O   0  0  0  0  0  0  0  0  0  0  0  0
    4.6393   -1.1001   -1.6709 C   0  0  1  0  0  0  0  0  0  0  0  0
    4.7812   -0.6906   -2.6972 H   0  0  0  0  0  0  0  0  0  0  0  0
    5.9757   -1.5351   -0.9825 C   0  0  0  0  0  0  0  0  0  0  0  0
    6.9423   -0.9886   -0.5544 O   0  0  0  0  0  0  0  0  0  0  0  0
    5.6503   -2.8969   -1.1270 N   0  0  0  0  0  0  0  0  0  0  0  0
    4.2823   -2.6742   -1.6889 C   0  0  1  0  0  0  0  0  0  0  0  0
    4.2207   -3.0878   -2.7208 H   0  0  0  0  0  0  0  0  0  0  0  0
    3.0966   -3.0550   -0.8690 C   0  0  0  0  0  0  0  0  0  0  0  0
    1.8393   -2.9899   -1.4800 C   0  0  0  0  0  0  0  0  0  0  0  0
    0.6878   -3.2317   -0.7372 C   0  0  0  0  0  0  0  0  0  0  0  0
    0.7838   -3.5515    0.6169 C   0  0  0  0  0  0  0  0  0  0  0  0
    2.0352   -3.6531    1.2184 C   0  0  0  0  0  0  0  0  0  0  0  0
    3.1901   -3.4129    0.4754 C   0  0  0  0  0  0  0  0  0  0  0  0
    6.1987   -4.0563   -0.5815 C   0  0  0  0  0  0  0  0  0  0  0  0
    5.5418   -5.2873   -0.7420 C   0  0  0  0  0  0  0  0  0  0  0  0
    6.1084   -6.4355   -0.2007 C   0  0  0  0  0  0  0  0  0  0  0  0
    7.3158   -6.3713    0.4934 C   0  0  0  0  0  0  0  0  0  0  0  0
    7.9671   -5.1476    0.6411 C   0  0  0  0  0  0  0  0  0  0  0  0
    7.4192   -3.9860    0.1103 C   0  0  0  0  0  0  0  0  0  0  0  0
    5.8364   -2.0755    2.2968 H   0  0  0  0  0  0  0  0  0  0  0  0
    5.0185   -0.6220    2.9759 H   0  0  0  0  0  0  0  0  0  0  0  0
    6.3270   -0.4399    1.7317 H   0  0  0  0  0  0  0  0  0  0  0  0
    1.7555   -2.7318   -2.5370 H   0  0  0  0  0  0  0  0  0  0  0  0
   -0.2896   -3.1640   -1.2133 H   0  0  0  0  0  0  0  0  0  0  0  0
   -0.1184   -3.7245    1.2011 H   0  0  0  0  0  0  0  0  0  0  0  0
    2.1166   -3.9155    2.2717 H   0  0  0  0  0  0  0  0  0  0  0  0
    4.1652   -3.5025    0.9576 H   0  0  0  0  0  0  0  0  0  0  0  0
    4.5967   -5.3411   -1.2768 H   0  0  0  0  0  0  0  0  0  0  0  0
    5.6007   -7.3922   -0.3191 H   0  0  0  0  0  0  0  0  0  0  0  0
    7.7494   -7.2733    0.9155 H   0  0  0  0  0  0  0  0  0  0  0  0
    8.9147   -5.0988    1.1764 H   0  0  0  0  0  0  0  0  0  0  0  0
    7.9319   -3.0316    0.2220 H   0  0  0  0  0  0  0  0  0  0  0  0
  1  2  1  0  0  0  0
  2  3  2  0  0  0  0
  3  4  1  0  0  0  0
  5  6  1  1  0  0  0
  5  3  1  0  0  0  0
  5  7  1  0  0  0  0
  7  8  1  0  0  0  0
  8 31  1  0  0  0  0
  8 32  1  0  0  0  0
  9  5  1  0  0  0  0
 10  9  1  0  0  0  0
 10  2  1  0  0  0  0
 11 10  2  0  0  0  0
 12 17  1  0  0  0  0
 12 14  1  0  0  0  0
 12  9  1  0  0  0  0
 12 13  1  6  0  0  0
 14 15  2  0  0  0  0
 16 14  1  0  0  0  0
 16 25  1  0  0  0  0
 17 18  1  6  0  0  0
 17 16  1  0  0  0  0
 17 19  1  0  0  0  0
 19 24  1  0  0  0  0
 20 19  2  0  0  0  0
 20 21  1  0  0  0  0
 21 22  2  0  0  0  0
 22 36  1  0  0  0  0
 22 23  1  0  0  0  0
 23 37  1  0  0  0  0
 24 38  1  0  0  0  0
 24 23  2  0  0  0  0
 25 30  1  0  0  0  0
 26 25  2  0  0  0  0
 26 27  1  0  0  0  0
 27 28  2  0  0  0  0
 28 29  1  0  0  0  0
 28 41  1  0  0  0  0
 29 42  1  0  0  0  0
 30 43  1  0  0  0  0
 30 29  2  0  0  0  0
 33  8  1  0  0  0  0
 34 20  1  0  0  0  0
 35 21  1  0  0  0  0
 39 26  1  0  0  0  0
 40 27  1  0  0  0  0
M  END
$$$$
