rmsd223.gzmat
 OpenBabel08211713413D

 57 61  0  0  1  0  0  0  0  0999 V2000
    0.0000    0.0000    0.0000 F   0  0  0  0  0  0  0  0  0  0  0  0
    1.3230    0.0000    0.0000 C   0  0  0  0  0  0  0  0  0  0  0  0
    1.9744    0.0000    1.2481 C   0  0  0  0  0  0  0  0  0  0  0  0
    3.3627   -0.0019    1.2970 C   0  0  0  0  0  0  0  0  0  0  0  0
    4.0627   -0.0022    0.0952 C   0  0  0  0  0  0  0  0  0  0  0  0
    3.3615   -0.0060   -1.1370 C   0  0  0  0  0  0  0  0  0  0  0  0
    1.9762   -0.0029   -1.2286 C   0  0  0  0  0  0  0  0  0  0  0  0
    4.2601   -0.0188   -2.1787 O   0  0  0  0  0  0  0  0  0  0  0  0
    5.5362   -0.0216   -1.6262 N   0  0  0  0  0  0  0  0  0  0  0  0
    5.4692   -0.0078   -0.3074 C   0  0  0  0  0  0  0  0  0  0  0  0
    6.6270   -0.0095    0.6336 C   0  0  1  0  0  0  0  0  0  0  0  0
    6.4489   -0.8307    1.3813 H   0  0  0  0  0  0  0  0  0  0  0  0
    7.9672   -0.2871   -0.0669 C   0  0  0  0  0  0  0  0  0  0  0  0
    8.4431    0.9181   -0.9031 C   0  0  0  0  0  0  0  0  0  0  0  0
    8.4976    2.1923   -0.1598 N   0  0  0  0  0  0  0  0  0  0  0  0
    7.1931    2.4639    0.4734 C   0  0  0  0  0  0  0  0  0  0  0  0
    6.6897    1.3314    1.3913 C   0  0  0  0  0  0  0  0  0  0  0  0
    9.6136    2.2347    0.8136 C   0  0  0  0  0  0  0  0  0  0  0  0
   10.9187    2.5303    0.0387 C   0  0  0  0  0  0  0  0  0  0  0  0
   12.0451    2.6897    0.9967 C   0  0  2  0  0  0  0  0  0  0  0  0
   12.7529    1.4846    1.3552 C   0  0  0  0  0  0  0  0  0  0  0  0
   12.5237    0.3492    0.9960 O   0  0  0  0  0  0  0  0  0  0  0  0
   13.8622    1.6610    2.2539 N   0  0  0  0  0  0  0  0  0  0  0  0
   14.1715    2.9052    2.7562 C   0  0  0  0  0  0  0  0  0  0  0  0
   13.4757    3.9862    2.4267 N   0  0  0  0  0  0  0  0  0  0  0  0
   12.4180    3.8914    1.5474 C   0  0  0  0  0  0  0  0  0  0  0  0
   11.7363    5.1819    1.2459 C   0  0  0  0  0  0  0  0  0  0  0  0
   15.3400    3.1146    3.6812 C   0  0  0  0  0  0  0  0  0  0  0  0
   15.8729    1.8162    4.2852 C   0  0  0  0  0  0  0  0  0  0  0  0
   15.9881    0.7557    3.1902 C   0  0  0  0  0  0  0  0  0  0  0  0
   14.5963    0.4397    2.6364 C   0  0  0  0  0  0  0  0  0  0  0  0
    1.3904    0.0002    2.1672 H   0  0  0  0  0  0  0  0  0  0  0  0
    3.8904   -0.0065    2.2502 H   0  0  0  0  0  0  0  0  0  0  0  0
    1.4544   -0.0044   -2.1808 H   0  0  0  0  0  0  0  0  0  0  0  0
    7.8802   -1.1747   -0.7217 H   0  0  0  0  0  0  0  0  0  0  0  0
    8.7339   -0.5402    0.6906 H   0  0  0  0  0  0  0  0  0  0  0  0
    9.4459    0.7045   -1.3319 H   0  0  0  0  0  0  0  0  0  0  0  0
    7.7626    1.0742   -1.7730 H   0  0  0  0  0  0  0  0  0  0  0  0
    7.2572    3.4173    1.0381 H   0  0  0  0  0  0  0  0  0  0  0  0
    6.4603    2.6364   -0.3487 H   0  0  0  0  0  0  0  0  0  0  0  0
    7.3666    1.2269    2.2600 H   0  0  0  0  0  0  0  0  0  0  0  0
    5.6991    1.5946    1.8010 H   0  0  0  0  0  0  0  0  0  0  0  0
    9.7289    1.2948    1.3934 H   0  0  0  0  0  0  0  0  0  0  0  0
    9.4302    3.0447    1.5498 H   0  0  0  0  0  0  0  0  0  0  0  0
   10.7819    3.4291   -0.5962 H   0  0  0  0  0  0  0  0  0  0  0  0
   11.1293    1.7031   -0.6745 H   0  0  0  0  0  0  0  0  0  0  0  0
   12.0318    5.5560    0.2522 H   0  0  0  0  0  0  0  0  0  0  0  0
   11.9985    5.9662    1.9749 H   0  0  0  0  0  0  0  0  0  0  0  0
   10.6409    5.0754    1.2456 H   0  0  0  0  0  0  0  0  0  0  0  0
   16.1431    3.6395    3.1135 H   0  0  0  0  0  0  0  0  0  0  0  0
   15.0488    3.8319    4.4828 H   0  0  0  0  0  0  0  0  0  0  0  0
   16.8548    1.9934    4.7639 H   0  0  0  0  0  0  0  0  0  0  0  0
   15.2058    1.4623    5.0959 H   0  0  0  0  0  0  0  0  0  0  0  0
   16.4532   -0.1687    3.5832 H   0  0  0  0  0  0  0  0  0  0  0  0
   16.6570    1.1068    2.3800 H   0  0  0  0  0  0  0  0  0  0  0  0
   13.9844   -0.1184    3.3838 H   0  0  0  0  0  0  0  0  0  0  0  0
   14.6722   -0.2244    1.7383 H   0  0  0  0  0  0  0  0  0  0  0  0
  2  1  1  0  0  0  0
  2  3  2  0  0  0  0
  3  4  1  0  0  0  0
  3 32  1  0  0  0  0
  4 33  1  0  0  0  0
  5  4  2  0  0  0  0
  6  5  1  0  0  0  0
  7  6  2  0  0  0  0
  7  2  1  0  0  0  0
  8  9  1  0  0  0  0
  8  6  1  0  0  0  0
  9 10  2  0  0  0  0
 10  5  1  0  0  0  0
 10 11  1  0  0  0  0
 11 12  1  1  0  0  0
 11 17  1  0  0  0  0
 13 11  1  0  0  0  0
 13 36  1  0  0  0  0
 14 15  1  0  0  0  0
 14 13  1  0  0  0  0
 15 16  1  0  0  0  0
 15 18  1  0  0  0  0
 16 39  1  0  0  0  0
 16 17  1  0  0  0  0
 17 42  1  0  0  0  0
 17 41  1  0  0  0  0
 18 43  1  0  0  0  0
 18 44  1  0  0  0  0
 19 18  1  0  0  0  0
 20 19  1  1  0  0  0
 20 21  1  0  0  0  0
 20 26  1  0  0  0  0
 21 23  1  0  0  0  0
 22 21  2  0  0  0  0
 23 31  1  0  0  0  0
 23 24  1  0  0  0  0
 24 28  1  0  0  0  0
 25 24  2  0  0  0  0
 26 25  2  0  0  0  0
 27 26  1  0  0  0  0
 27 48  1  0  0  0  0
 28 29  1  0  0  0  0
 28 51  1  0  0  0  0
 29 52  1  0  0  0  0
 29 53  1  0  0  0  0
 30 54  1  0  0  0  0
 30 29  1  0  0  0  0
 31 30  1  0  0  0  0
 31 56  1  0  0  0  0
 34  7  1  0  0  0  0
 35 13  1  0  0  0  0
 37 14  1  0  0  0  0
 38 14  1  0  0  0  0
 40 16  1  0  0  0  0
 45 19  1  0  0  0  0
 46 19  1  0  0  0  0
 47 27  1  0  0  0  0
 49 27  1  0  0  0  0
 50 28  1  0  0  0  0
 55 30  1  0  0  0  0
 57 31  1  0  0  0  0
M  RAD  1  20   2
M  END
$$$$
