rmsd104.gzmat
 OpenBabel08211713413D

 57 61  0  0  1  0  0  0  0  0999 V2000
    0.0000    0.0000    0.0000 F   0  0  0  0  0  0  0  0  0  0  0  0
    1.3230    0.0000    0.0000 C   0  0  0  0  0  0  0  0  0  0  0  0
    1.9745    0.0000    1.2478 C   0  0  0  0  0  0  0  0  0  0  0  0
    3.3628    0.0036    1.2967 C   0  0  0  0  0  0  0  0  0  0  0  0
    4.0626    0.0052    0.0948 C   0  0  0  0  0  0  0  0  0  0  0  0
    3.3614   -0.0012   -1.1372 C   0  0  0  0  0  0  0  0  0  0  0  0
    1.9762   -0.0016   -1.2287 C   0  0  0  0  0  0  0  0  0  0  0  0
    4.2592   -0.0077   -2.1795 O   0  0  0  0  0  0  0  0  0  0  0  0
    5.5358   -0.0037   -1.6276 N   0  0  0  0  0  0  0  0  0  0  0  0
    5.4687    0.0078   -0.3090 C   0  0  0  0  0  0  0  0  0  0  0  0
    6.6240    0.0150    0.6345 C   0  0  1  0  0  0  0  0  0  0  0  0
    6.4349   -0.7898    1.3971 H   0  0  0  0  0  0  0  0  0  0  0  0
    7.9665   -0.2906   -0.0516 C   0  0  0  0  0  0  0  0  0  0  0  0
    8.4586    0.8957   -0.9053 C   0  0  0  0  0  0  0  0  0  0  0  0
    8.5382    2.1734   -0.1724 N   0  0  0  0  0  0  0  0  0  0  0  0
    7.2337    2.4810    0.4444 C   0  0  0  0  0  0  0  0  0  0  0  0
    6.6906    1.3704    1.3655 C   0  0  0  0  0  0  0  0  0  0  0  0
    9.6581    2.2096    0.7984 C   0  0  0  0  0  0  0  0  0  0  0  0
   10.3885    3.5681    0.6671 C   0  0  0  0  0  0  0  0  0  0  0  0
    9.6442    4.6599    1.3529 C   0  0  2  0  0  0  0  0  0  0  0  0
    9.7640    4.7051    2.7895 C   0  0  0  0  0  0  0  0  0  0  0  0
   10.3814    3.9482    3.5099 O   0  0  0  0  0  0  0  0  0  0  0  0
    9.0513    5.7701    3.4398 N   0  0  0  0  0  0  0  0  0  0  0  0
    8.2890    6.6552    2.7085 C   0  0  0  0  0  0  0  0  0  0  0  0
    8.1821    6.5646    1.3908 N   0  0  0  0  0  0  0  0  0  0  0  0
    8.8519    5.5744    0.7017 C   0  0  0  0  0  0  0  0  0  0  0  0
    8.6397    5.5843   -0.7714 C   0  0  0  0  0  0  0  0  0  0  0  0
    7.5627    7.7973    3.3663 C   0  0  0  0  0  0  0  0  0  0  0  0
    7.4047    7.6161    4.8746 C   0  0  0  0  0  0  0  0  0  0  0  0
    8.7404    7.1788    5.4765 C   0  0  0  0  0  0  0  0  0  0  0  0
    9.1367    5.8118    4.9118 C   0  0  0  0  0  0  0  0  0  0  0  0
    1.3901   -0.0038    2.1668 H   0  0  0  0  0  0  0  0  0  0  0  0
    3.8896    0.0030    2.2506 H   0  0  0  0  0  0  0  0  0  0  0  0
    1.4545   -0.0043   -2.1808 H   0  0  0  0  0  0  0  0  0  0  0  0
    7.8731   -1.1890   -0.6897 H   0  0  0  0  0  0  0  0  0  0  0  0
    8.7217   -0.5338    0.7184 H   0  0  0  0  0  0  0  0  0  0  0  0
    9.4514    0.6684   -1.3456 H   0  0  0  0  0  0  0  0  0  0  0  0
    7.7700    1.0538   -1.7697 H   0  0  0  0  0  0  0  0  0  0  0  0
    7.3224    3.4338    1.0094 H   0  0  0  0  0  0  0  0  0  0  0  0
    6.5136    2.6712   -0.3842 H   0  0  0  0  0  0  0  0  0  0  0  0
    7.3417    1.2729    2.2552 H   0  0  0  0  0  0  0  0  0  0  0  0
    5.6947    1.6577    1.7460 H   0  0  0  0  0  0  0  0  0  0  0  0
   10.3840    1.3956    0.5893 H   0  0  0  0  0  0  0  0  0  0  0  0
    9.3307    2.0648    1.8494 H   0  0  0  0  0  0  0  0  0  0  0  0
   10.5430    3.7987   -0.4069 H   0  0  0  0  0  0  0  0  0  0  0  0
   11.4042    3.4688    1.1088 H   0  0  0  0  0  0  0  0  0  0  0  0
    9.5419    5.9270   -1.2991 H   0  0  0  0  0  0  0  0  0  0  0  0
    7.8131    6.2489   -1.0686 H   0  0  0  0  0  0  0  0  0  0  0  0
    8.4075    4.5671   -1.1435 H   0  0  0  0  0  0  0  0  0  0  0  0
    8.1168    8.7378    3.1403 H   0  0  0  0  0  0  0  0  0  0  0  0
    6.5701    7.9313    2.8778 H   0  0  0  0  0  0  0  0  0  0  0  0
    7.0578    8.5589    5.3383 H   0  0  0  0  0  0  0  0  0  0  0  0
    6.6187    6.8672    5.0944 H   0  0  0  0  0  0  0  0  0  0  0  0
    8.6746    7.1204    6.5796 H   0  0  0  0  0  0  0  0  0  0  0  0
    9.5255    7.9301    5.2618 H   0  0  0  0  0  0  0  0  0  0  0  0
    8.4846    5.0055    5.3228 H   0  0  0  0  0  0  0  0  0  0  0  0
   10.1827    5.5504    5.2140 H   0  0  0  0  0  0  0  0  0  0  0  0
  1  2  1  0  0  0  0
  2  3  2  0  0  0  0
  3  4  1  0  0  0  0
  3 32  1  0  0  0  0
  4 33  1  0  0  0  0
  5  4  2  0  0  0  0
  6  5  1  0  0  0  0
  7  6  2  0  0  0  0
  7  2  1  0  0  0  0
  8  9  1  0  0  0  0
  8  6  1  0  0  0  0
  9 10  2  0  0  0  0
 10  5  1  0  0  0  0
 10 11  1  0  0  0  0
 11 17  1  0  0  0  0
 11 12  1  1  0  0  0
 13 11  1  0  0  0  0
 13 36  1  0  0  0  0
 14 15  1  0  0  0  0
 14 13  1  0  0  0  0
 15 16  1  0  0  0  0
 15 18  1  0  0  0  0
 16 39  1  0  0  0  0
 16 17  1  0  0  0  0
 17 42  1  0  0  0  0
 17 41  1  0  0  0  0
 18 44  1  0  0  0  0
 19 18  1  0  0  0  0
 19 46  1  0  0  0  0
 20 19  1  1  0  0  0
 20 21  1  0  0  0  0
 21 23  1  0  0  0  0
 21 22  2  0  0  0  0
 23 31  1  0  0  0  0
 24 28  1  0  0  0  0
 24 23  1  0  0  0  0
 25 24  2  0  0  0  0
 26 20  1  0  0  0  0
 26 25  2  0  0  0  0
 27 26  1  0  0  0  0
 28 29  1  0  0  0  0
 29 53  1  0  0  0  0
 29 52  1  0  0  0  0
 29 30  1  0  0  0  0
 30 54  1  0  0  0  0
 31 57  1  0  0  0  0
 31 56  1  0  0  0  0
 31 30  1  0  0  0  0
 34  7  1  0  0  0  0
 35 13  1  0  0  0  0
 37 14  1  0  0  0  0
 38 14  1  0  0  0  0
 40 16  1  0  0  0  0
 43 18  1  0  0  0  0
 45 19  1  0  0  0  0
 47 27  1  0  0  0  0
 48 27  1  0  0  0  0
 49 27  1  0  0  0  0
 50 28  1  0  0  0  0
 51 28  1  0  0  0  0
 55 30  1  0  0  0  0
M  RAD  1  20   2
M  END
$$$$
