
     RDKit          3D

 57 61  0  0  0  0  0  0  0  0999 V2000
    0.2024    0.9892    0.1264 F   0  0  0  0  0  0  0  0  0  0  0  0
    1.5175    0.7385    0.1257 C   0  0  0  0  0  0  0  0  0  0  0  0
    2.1583    0.5784    1.3702 C   0  0  0  0  0  0  0  0  0  0  0  0
    3.5225    0.3160    1.4187 C   0  0  0  0  0  0  0  0  0  0  0  0
    4.2242    0.2165    0.2063 C   0  0  0  0  0  0  0  0  0  0  0  0
    3.5458    0.3880   -1.0102 C   0  0  0  0  0  0  0  0  0  0  0  0
    2.1766    0.6524   -1.0942 C   0  0  0  0  0  0  0  0  0  0  0  0
    4.4129    0.2644   -2.0318 O   0  0  0  0  0  0  0  0  0  0  0  0
    5.6887    0.0075   -1.5064 N   0  0  0  0  0  0  0  0  0  0  0  0
    5.5903   -0.0223   -0.2039 C   0  0  0  0  0  0  0  0  0  0  0  0
    6.7656   -0.2816    0.7020 C   0  0  0  0  0  0  0  0  0  0  0  0
    6.7174    0.5047    1.4758 H   0  0  0  0  0  0  0  0  0  0  0  0
    6.6133   -1.6527    1.4088 C   0  0  0  0  0  0  0  0  0  0  0  0
    6.9713   -2.8099    0.4623 C   0  0  0  0  0  0  0  0  0  0  0  0
    8.3083   -2.6978   -0.1077 N   0  0  0  0  0  0  0  0  0  0  0  0
    8.4274   -1.4438   -0.8544 C   0  0  0  0  0  0  0  0  0  0  0  0
    8.1306   -0.1944   -0.0084 C   0  0  0  0  0  0  0  0  0  0  0  0
    9.3687   -2.9424    0.8601 C   0  0  0  0  0  0  0  0  0  0  0  0
   10.7314   -3.2013    0.2017 C   0  0  0  0  0  0  0  0  0  0  0  0
   11.8246   -3.3274    1.2239 C   0  0  0  0  0  0  0  0  0  0  0  0
   12.3006   -2.0854    1.7987 C   0  0  0  0  0  0  0  0  0  0  0  0
   11.8986   -0.9638    1.5045 O   0  0  0  0  0  0  0  0  0  0  0  0
   13.3211   -2.2294    2.7778 N   0  0  0  0  0  0  0  0  0  0  0  0
   13.8089   -3.4617    3.1184 C   0  0  0  0  0  0  0  0  0  0  0  0
   13.3637   -4.5681    2.5935 N   0  0  0  0  0  0  0  0  0  0  0  0
   12.3669   -4.5164    1.6565 C   0  0  0  0  0  0  0  0  0  0  0  0
   11.9172   -5.8498    1.1187 C   0  0  0  0  0  0  0  0  0  0  0  0
   14.8768   -3.5731    4.1834 C   0  0  0  0  0  0  0  0  0  0  0  0
   15.6388   -2.2790    4.4495 C   0  0  0  0  0  0  0  0  0  0  0  0
   14.6322   -1.1434    4.6058 C   0  0  0  0  0  0  0  0  0  0  0  0
   13.8392   -0.9603    3.3227 C   0  0  0  0  0  0  0  0  0  0  0  0
    1.5580    0.6667    2.2768 H   0  0  0  0  0  0  0  0  0  0  0  0
    4.0293    0.1930    2.3775 H   0  0  0  0  0  0  0  0  0  0  0  0
    1.6507    0.7859   -2.0389 H   0  0  0  0  0  0  0  0  0  0  0  0
    5.5886   -1.7805    1.7935 H   0  0  0  0  0  0  0  0  0  0  0  0
    7.2836   -1.6683    2.2834 H   0  0  0  0  0  0  0  0  0  0  0  0
    6.8845   -3.7716    0.9941 H   0  0  0  0  0  0  0  0  0  0  0  0
    6.2449   -2.8377   -0.3689 H   0  0  0  0  0  0  0  0  0  0  0  0
    9.4358   -1.3649   -1.2841 H   0  0  0  0  0  0  0  0  0  0  0  0
    7.7251   -1.4849   -1.7001 H   0  0  0  0  0  0  0  0  0  0  0  0
    8.9178   -0.0773    0.7535 H   0  0  0  0  0  0  0  0  0  0  0  0
    8.1660    0.7016   -0.6464 H   0  0  0  0  0  0  0  0  0  0  0  0
    9.0869   -3.8349    1.4440 H   0  0  0  0  0  0  0  0  0  0  0  0
    9.4980   -2.1208    1.5933 H   0  0  0  0  0  0  0  0  0  0  0  0
   10.9815   -2.3489   -0.4466 H   0  0  0  0  0  0  0  0  0  0  0  0
   10.6614   -4.0935   -0.4355 H   0  0  0  0  0  0  0  0  0  0  0  0
   10.8227   -5.9577    1.1593 H   0  0  0  0  0  0  0  0  0  0  0  0
   12.3820   -6.6521    1.7053 H   0  0  0  0  0  0  0  0  0  0  0  0
   12.2155   -5.9715    0.0640 H   0  0  0  0  0  0  0  0  0  0  0  0
   14.3688   -3.9012    5.1083 H   0  0  0  0  0  0  0  0  0  0  0  0
   15.5326   -4.4048    3.8904 H   0  0  0  0  0  0  0  0  0  0  0  0
   16.2647   -2.3867    5.3483 H   0  0  0  0  0  0  0  0  0  0  0  0
   16.3205   -2.0569    3.6097 H   0  0  0  0  0  0  0  0  0  0  0  0
   15.1271   -0.1898    4.8466 H   0  0  0  0  0  0  0  0  0  0  0  0
   13.9484   -1.3689    5.4430 H   0  0  0  0  0  0  0  0  0  0  0  0
   14.4633   -0.4935    2.5416 H   0  0  0  0  0  0  0  0  0  0  0  0
   12.9758   -0.2954    3.4522 H   0  0  0  0  0  0  0  0  0  0  0  0
  1  2  1  0
  2  3  2  0
  2  7  1  0
  3  4  1  0
  3 32  1  0
  4  5  2  0
  4 33  1  0
  5  6  1  0
  5 10  1  0
  6  7  2  0
  6  8  1  0
  7 34  1  0
  8  9  1  0
  9 10  2  0
 10 11  1  0
 11 12  1  0
 11 13  1  0
 11 17  1  0
 13 14  1  0
 13 35  1  0
 13 36  1  0
 14 15  1  0
 14 37  1  0
 14 38  1  0
 15 16  1  0
 15 18  1  0
 16 17  1  0
 16 39  1  0
 16 40  1  0
 17 41  1  0
 17 42  1  0
 18 19  1  0
 18 43  1  0
 18 44  1  0
 19 20  1  0
 19 45  1  0
 19 46  1  0
 20 21  1  0
 20 26  2  0
 21 22  2  0
 21 23  1  0
 23 24  1  0
 23 31  1  0
 24 25  2  0
 24 28  1  0
 25 26  1  0
 26 27  1  0
 27 47  1  0
 27 48  1  0
 27 49  1  0
 28 29  1  0
 28 50  1  0
 28 51  1  0
 29 30  1  0
 29 52  1  0
 29 53  1  0
 30 31  1  0
 30 54  1  0
 30 55  1  0
 31 56  1  0
 31 57  1  0
M  END

