rmsd250.gzmat
 OpenBabel08211713413D

 57 61  0  0  1  0  0  0  0  0999 V2000
    0.0000    0.0000    0.0000 F   0  0  0  0  0  0  0  0  0  0  0  0
    1.3230    0.0000    0.0000 C   0  0  0  0  0  0  0  0  0  0  0  0
    1.9747    0.0000    1.2476 C   0  0  0  0  0  0  0  0  0  0  0  0
    3.3630   -0.0004    1.2969 C   0  0  0  0  0  0  0  0  0  0  0  0
    4.0644   -0.0055    0.0957 C   0  0  0  0  0  0  0  0  0  0  0  0
    3.3620   -0.0007   -1.1361 C   0  0  0  0  0  0  0  0  0  0  0  0
    1.9767    0.0022   -1.2284 C   0  0  0  0  0  0  0  0  0  0  0  0
    4.2593    0.0057   -2.1788 O   0  0  0  0  0  0  0  0  0  0  0  0
    5.5359    0.0027   -1.6279 N   0  0  0  0  0  0  0  0  0  0  0  0
    5.4706   -0.0084   -0.3088 C   0  0  0  0  0  0  0  0  0  0  0  0
    6.6342   -0.0062    0.6255 C   0  0  1  0  0  0  0  0  0  0  0  0
    6.5002    0.8667    1.3217 H   0  0  0  0  0  0  0  0  0  0  0  0
    6.6418   -1.3015    1.4603 C   0  0  0  0  0  0  0  0  0  0  0  0
    7.0642   -2.5080    0.5972 C   0  0  0  0  0  0  0  0  0  0  0  0
    8.3761   -2.3471   -0.0579 N   0  0  0  0  0  0  0  0  0  0  0  0
    8.3925   -1.1111   -0.8644 C   0  0  0  0  0  0  0  0  0  0  0  0
    7.9813    0.1633   -0.0977 C   0  0  0  0  0  0  0  0  0  0  0  0
    9.4960   -2.4133    0.9093 C   0  0  0  0  0  0  0  0  0  0  0  0
   10.7641   -2.8746    0.1523 C   0  0  0  0  0  0  0  0  0  0  0  0
   11.8184   -3.2392    1.1365 C   0  0  1  0  0  0  0  0  0  0  0  0
   12.5537   -2.1401    1.7141 C   0  0  0  0  0  0  0  0  0  0  0  0
   12.4275   -0.9557    1.4847 O   0  0  0  0  0  0  0  0  0  0  0  0
   13.5467   -2.5026    2.6890 N   0  0  0  0  0  0  0  0  0  0  0  0
   13.7694   -3.8228    3.0112 C   0  0  0  0  0  0  0  0  0  0  0  0
   13.0741   -4.8062    2.4545 N   0  0  0  0  0  0  0  0  0  0  0  0
   12.0956   -4.5271    1.5246 C   0  0  0  0  0  0  0  0  0  0  0  0
   11.3768   -5.7206    0.9956 C   0  0  0  0  0  0  0  0  0  0  0  0
   14.7879   -4.2234    4.0441 C   0  0  0  0  0  0  0  0  0  0  0  0
   15.7647   -3.1022    4.3939 C   0  0  0  0  0  0  0  0  0  0  0  0
   14.9920   -1.7981    4.5925 C   0  0  0  0  0  0  0  0  0  0  0  0
   14.3262   -1.3951    3.2739 C   0  0  0  0  0  0  0  0  0  0  0  0
    1.3908    0.0025    2.1670 H   0  0  0  0  0  0  0  0  0  0  0  0
    3.8886    0.0069    2.2513 H   0  0  0  0  0  0  0  0  0  0  0  0
    1.4558    0.0084   -2.1808 H   0  0  0  0  0  0  0  0  0  0  0  0
    5.6492   -1.4890    1.9041 H   0  0  0  0  0  0  0  0  0  0  0  0
    7.3426   -1.1847    2.3083 H   0  0  0  0  0  0  0  0  0  0  0  0
    7.0765   -3.4345    1.2086 H   0  0  0  0  0  0  0  0  0  0  0  0
    6.3140   -2.6764   -0.2094 H   0  0  0  0  0  0  0  0  0  0  0  0
    9.4063   -0.9775   -1.2986 H   0  0  0  0  0  0  0  0  0  0  0  0
    7.7036   -1.2742   -1.7268 H   0  0  0  0  0  0  0  0  0  0  0  0
    8.7646    0.4248    0.6392 H   0  0  0  0  0  0  0  0  0  0  0  0
    7.9300    1.0132   -0.8051 H   0  0  0  0  0  0  0  0  0  0  0  0
    9.2556   -3.1518    1.7027 H   0  0  0  0  0  0  0  0  0  0  0  0
    9.6981   -1.4477    1.4193 H   0  0  0  0  0  0  0  0  0  0  0  0
   11.1212   -2.0633   -0.5179 H   0  0  0  0  0  0  0  0  0  0  0  0
   10.5091   -3.7189   -0.5202 H   0  0  0  0  0  0  0  0  0  0  0  0
   10.2878   -5.6191    1.1248 H   0  0  0  0  0  0  0  0  0  0  0  0
   11.6873   -6.6484    1.5039 H   0  0  0  0  0  0  0  0  0  0  0  0
   11.5703   -5.8575   -0.0797 H   0  0  0  0  0  0  0  0  0  0  0  0
   14.2441   -4.5667    4.9544 H   0  0  0  0  0  0  0  0  0  0  0  0
   15.3359   -5.1259    3.6876 H   0  0  0  0  0  0  0  0  0  0  0  0
   16.3327   -3.3642    5.3065 H   0  0  0  0  0  0  0  0  0  0  0  0
   16.5216   -2.9830    3.5933 H   0  0  0  0  0  0  0  0  0  0  0  0
   15.6645   -0.9884    4.9341 H   0  0  0  0  0  0  0  0  0  0  0  0
   14.2330   -1.9163    5.3905 H   0  0  0  0  0  0  0  0  0  0  0  0
   15.0856   -1.0661    2.5255 H   0  0  0  0  0  0  0  0  0  0  0  0
   13.6424   -0.5222    3.4279 H   0  0  0  0  0  0  0  0  0  0  0  0
  1  2  1  0  0  0  0
  2  3  2  0  0  0  0
  3  4  1  0  0  0  0
  3 32  1  0  0  0  0
  4 33  1  0  0  0  0
  5  4  2  0  0  0  0
  6  5  1  0  0  0  0
  7  6  2  0  0  0  0
  7  2  1  0  0  0  0
  8  9  1  0  0  0  0
  8  6  1  0  0  0  0
  9 10  2  0  0  0  0
 10  5  1  0  0  0  0
 10 11  1  0  0  0  0
 11 12  1  1  0  0  0
 11 13  1  0  0  0  0
 13 35  1  0  0  0  0
 13 36  1  0  0  0  0
 14 37  1  0  0  0  0
 14 13  1  0  0  0  0
 15 14  1  0  0  0  0
 15 18  1  0  0  0  0
 16 17  1  0  0  0  0
 16 15  1  0  0  0  0
 17 11  1  0  0  0  0
 17 41  1  0  0  0  0
 18 44  1  0  0  0  0
 18 43  1  0  0  0  0
 19 18  1  0  0  0  0
 20 19  1  1  0  0  0
 20 26  1  0  0  0  0
 20 21  1  0  0  0  0
 21 23  1  0  0  0  0
 22 21  2  0  0  0  0
 23 24  1  0  0  0  0
 23 31  1  0  0  0  0
 24 28  1  0  0  0  0
 25 24  2  0  0  0  0
 26 25  2  0  0  0  0
 27 47  1  0  0  0  0
 27 48  1  0  0  0  0
 27 26  1  0  0  0  0
 28 29  1  0  0  0  0
 28 50  1  0  0  0  0
 29 30  1  0  0  0  0
 29 52  1  0  0  0  0
 30 54  1  0  0  0  0
 30 55  1  0  0  0  0
 31 57  1  0  0  0  0
 31 30  1  0  0  0  0
 34  7  1  0  0  0  0
 38 14  1  0  0  0  0
 39 16  1  0  0  0  0
 40 16  1  0  0  0  0
 42 17  1  0  0  0  0
 45 19  1  0  0  0  0
 46 19  1  0  0  0  0
 49 27  1  0  0  0  0
 51 28  1  0  0  0  0
 53 29  1  0  0  0  0
 56 31  1  0  0  0  0
M  RAD  1  20   2
M  END
$$$$
