rmsd208.gzmat
 OpenBabel08211713413D

 57 61  0  0  1  0  0  0  0  0999 V2000
    0.0000    0.0000    0.0000 F   0  0  0  0  0  0  0  0  0  0  0  0
    1.3230    0.0000    0.0000 C   0  0  0  0  0  0  0  0  0  0  0  0
    1.9756    0.0000    1.2472 C   0  0  0  0  0  0  0  0  0  0  0  0
    3.3641   -0.0027    1.2959 C   0  0  0  0  0  0  0  0  0  0  0  0
    4.0650   -0.0084    0.0946 C   0  0  0  0  0  0  0  0  0  0  0  0
    3.3618   -0.0014   -1.1368 C   0  0  0  0  0  0  0  0  0  0  0  0
    1.9764    0.0015   -1.2286 C   0  0  0  0  0  0  0  0  0  0  0  0
    4.2581    0.0033   -2.1800 O   0  0  0  0  0  0  0  0  0  0  0  0
    5.5350   -0.0041   -1.6300 N   0  0  0  0  0  0  0  0  0  0  0  0
    5.4711   -0.0152   -0.3110 C   0  0  0  0  0  0  0  0  0  0  0  0
    6.6373   -0.0160    0.6203 C   0  0  1  0  0  0  0  0  0  0  0  0
    6.5052    0.8557    1.3191 H   0  0  0  0  0  0  0  0  0  0  0  0
    6.6474   -1.3117    1.4545 C   0  0  0  0  0  0  0  0  0  0  0  0
    7.0883   -2.5188    0.6017 C   0  0  0  0  0  0  0  0  0  0  0  0
    8.3992   -2.3465   -0.0513 N   0  0  0  0  0  0  0  0  0  0  0  0
    8.3966   -1.1176   -0.8691 C   0  0  0  0  0  0  0  0  0  0  0  0
    7.9820    0.1576   -0.1064 C   0  0  0  0  0  0  0  0  0  0  0  0
    9.5256   -2.3883    0.9110 C   0  0  0  0  0  0  0  0  0  0  0  0
   10.7672   -2.9282    0.1626 C   0  0  0  0  0  0  0  0  0  0  0  0
   11.9100   -3.0713    1.1044 C   0  0  2  0  0  0  0  0  0  0  0  0
   12.6421   -1.8638    1.4035 C   0  0  0  0  0  0  0  0  0  0  0  0
   12.4243   -0.7406    1.0013 O   0  0  0  0  0  0  0  0  0  0  0  0
   13.7598   -2.0194    2.2957 N   0  0  0  0  0  0  0  0  0  0  0  0
   14.0890   -3.2560    2.8037 C   0  0  0  0  0  0  0  0  0  0  0  0
   13.3788   -4.3401    2.5206 N   0  0  0  0  0  0  0  0  0  0  0  0
   12.2891   -4.2592    1.6802 C   0  0  0  0  0  0  0  0  0  0  0  0
   11.5792   -5.5510    1.4597 C   0  0  0  0  0  0  0  0  0  0  0  0
   15.2526   -3.4436    3.7392 C   0  0  0  0  0  0  0  0  0  0  0  0
   16.2063   -2.2504    3.7597 C   0  0  0  0  0  0  0  0  0  0  0  0
   15.3977   -0.9557    3.8449 C   0  0  0  0  0  0  0  0  0  0  0  0
   14.5463   -0.8043    2.5816 C   0  0  0  0  0  0  0  0  0  0  0  0
    1.3929    0.0038    2.1672 H   0  0  0  0  0  0  0  0  0  0  0  0
    3.8910    0.0021    2.2495 H   0  0  0  0  0  0  0  0  0  0  0  0
    1.4548    0.0051   -2.1810 H   0  0  0  0  0  0  0  0  0  0  0  0
    5.6518   -1.5053    1.8891 H   0  0  0  0  0  0  0  0  0  0  0  0
    7.3393   -1.1891    2.3086 H   0  0  0  0  0  0  0  0  0  0  0  0
    7.1100   -3.4401    1.2203 H   0  0  0  0  0  0  0  0  0  0  0  0
    6.3420   -2.7028   -0.2056 H   0  0  0  0  0  0  0  0  0  0  0  0
    9.4048   -0.9781   -1.3144 H   0  0  0  0  0  0  0  0  0  0  0  0
    7.6997   -1.2923   -1.7227 H   0  0  0  0  0  0  0  0  0  0  0  0
    8.7669    0.4251    0.6268 H   0  0  0  0  0  0  0  0  0  0  0  0
    7.9265    1.0046   -0.8170 H   0  0  0  0  0  0  0  0  0  0  0  0
    9.2806   -3.0678    1.7525 H   0  0  0  0  0  0  0  0  0  0  0  0
    9.7600   -1.3981    1.3563 H   0  0  0  0  0  0  0  0  0  0  0  0
   11.0339   -2.2369   -0.6672 H   0  0  0  0  0  0  0  0  0  0  0  0
   10.5128   -3.8867   -0.3329 H   0  0  0  0  0  0  0  0  0  0  0  0
   10.5039   -5.4585    1.6745 H   0  0  0  0  0  0  0  0  0  0  0  0
   11.9791   -6.3535    2.1019 H   0  0  0  0  0  0  0  0  0  0  0  0
   11.6820   -5.8887    0.4166 H   0  0  0  0  0  0  0  0  0  0  0  0
   14.8511   -3.6438    4.7592 H   0  0  0  0  0  0  0  0  0  0  0  0
   15.7956   -4.3774    3.4645 H   0  0  0  0  0  0  0  0  0  0  0  0
   16.9050   -2.3356    4.6134 H   0  0  0  0  0  0  0  0  0  0  0  0
   16.8426   -2.2470    2.8526 H   0  0  0  0  0  0  0  0  0  0  0  0
   16.0645   -0.0792    3.9525 H   0  0  0  0  0  0  0  0  0  0  0  0
   14.7573   -0.9583    4.7485 H   0  0  0  0  0  0  0  0  0  0  0  0
   15.1859   -0.5829    1.6945 H   0  0  0  0  0  0  0  0  0  0  0  0
   13.8409    0.0591    2.6814 H   0  0  0  0  0  0  0  0  0  0  0  0
  2  1  1  0  0  0  0
  2  3  2  0  0  0  0
  3  4  1  0  0  0  0
  3 32  1  0  0  0  0
  4 33  1  0  0  0  0
  5  4  2  0  0  0  0
  6  5  1  0  0  0  0
  7  6  2  0  0  0  0
  7  2  1  0  0  0  0
  8  9  1  0  0  0  0
  8  6  1  0  0  0  0
  9 10  2  0  0  0  0
 10  5  1  0  0  0  0
 10 11  1  0  0  0  0
 11 12  1  1  0  0  0
 11 13  1  0  0  0  0
 13 35  1  0  0  0  0
 13 36  1  0  0  0  0
 14 37  1  0  0  0  0
 14 13  1  0  0  0  0
 15 14  1  0  0  0  0
 15 18  1  0  0  0  0
 16 17  1  0  0  0  0
 16 15  1  0  0  0  0
 17 11  1  0  0  0  0
 17 41  1  0  0  0  0
 18 44  1  0  0  0  0
 18 43  1  0  0  0  0
 19 18  1  0  0  0  0
 20 19  1  6  0  0  0
 20 21  1  0  0  0  0
 20 26  1  0  0  0  0
 21 23  1  0  0  0  0
 22 21  2  0  0  0  0
 23 31  1  0  0  0  0
 23 24  1  0  0  0  0
 24 28  1  0  0  0  0
 25 24  2  0  0  0  0
 26 25  2  0  0  0  0
 27 47  1  0  0  0  0
 27 26  1  0  0  0  0
 27 48  1  0  0  0  0
 28 29  1  0  0  0  0
 28 50  1  0  0  0  0
 29 30  1  0  0  0  0
 29 52  1  0  0  0  0
 30 54  1  0  0  0  0
 30 55  1  0  0  0  0
 31 57  1  0  0  0  0
 31 30  1  0  0  0  0
 34  7  1  0  0  0  0
 38 14  1  0  0  0  0
 39 16  1  0  0  0  0
 40 16  1  0  0  0  0
 42 17  1  0  0  0  0
 45 19  1  0  0  0  0
 46 19  1  0  0  0  0
 49 27  1  0  0  0  0
 51 28  1  0  0  0  0
 53 29  1  0  0  0  0
 56 31  1  0  0  0  0
M  RAD  1  20   2
M  END
$$$$
