rmsd60.gzmat
 OpenBabel08211713413D

 57 61  0  0  1  0  0  0  0  0999 V2000
    0.0000    0.0000    0.0000 F   0  0  0  0  0  0  0  0  0  0  0  0
    1.3230    0.0000    0.0000 C   0  0  0  0  0  0  0  0  0  0  0  0
    1.9750    0.0000    1.2476 C   0  0  0  0  0  0  0  0  0  0  0  0
    3.3632    0.0019    1.2961 C   0  0  0  0  0  0  0  0  0  0  0  0
    4.0618    0.0008    0.0938 C   0  0  0  0  0  0  0  0  0  0  0  0
    3.3608   -0.0016   -1.1382 C   0  0  0  0  0  0  0  0  0  0  0  0
    1.9755   -0.0005   -1.2290 C   0  0  0  0  0  0  0  0  0  0  0  0
    4.2595   -0.0094   -2.1797 O   0  0  0  0  0  0  0  0  0  0  0  0
    5.5360   -0.0106   -1.6273 N   0  0  0  0  0  0  0  0  0  0  0  0
    5.4681   -0.0030   -0.3088 C   0  0  0  0  0  0  0  0  0  0  0  0
    6.6189   -0.0072    0.6403 C   0  0  1  0  0  0  0  0  0  0  0  0
    6.3883   -0.7650    1.4387 H   0  0  0  0  0  0  0  0  0  0  0  0
    7.9449   -0.4139   -0.0244 C   0  0  0  0  0  0  0  0  0  0  0  0
    8.5051    0.7070   -0.9230 C   0  0  0  0  0  0  0  0  0  0  0  0
    8.6444    2.0102   -0.2470 N   0  0  0  0  0  0  0  0  0  0  0  0
    7.3541    2.4136    0.3429 C   0  0  0  0  0  0  0  0  0  0  0  0
    6.7485    1.3754    1.3086 C   0  0  0  0  0  0  0  0  0  0  0  0
    9.7572    2.0314    0.7324 C   0  0  0  0  0  0  0  0  0  0  0  0
   10.5788    3.3254    0.5192 C   0  0  0  0  0  0  0  0  0  0  0  0
    9.9382    4.4995    1.1734 C   0  0  2  0  0  0  0  0  0  0  0  0
   10.1116    4.6022    2.6016 C   0  0  0  0  0  0  0  0  0  0  0  0
   10.6745    3.8224    3.3420 O   0  0  0  0  0  0  0  0  0  0  0  0
    9.5328    5.7650    3.2162 N   0  0  0  0  0  0  0  0  0  0  0  0
    8.8303    6.6822    2.4646 C   0  0  0  0  0  0  0  0  0  0  0  0
    8.6535    6.5290    1.1601 N   0  0  0  0  0  0  0  0  0  0  0  0
    9.2015    5.4458    0.5030 C   0  0  0  0  0  0  0  0  0  0  0  0
    8.9319    5.4016   -0.9604 C   0  0  0  0  0  0  0  0  0  0  0  0
    8.2555    7.9298    3.0794 C   0  0  0  0  0  0  0  0  0  0  0  0
    8.1792    7.8728    4.6040 C   0  0  0  0  0  0  0  0  0  0  0  0
    9.4929    7.3234    5.1606 C   0  0  0  0  0  0  0  0  0  0  0  0
    9.6895    5.8836    4.6778 C   0  0  0  0  0  0  0  0  0  0  0  0
    1.3919   -0.0020    2.1675 H   0  0  0  0  0  0  0  0  0  0  0  0
    3.8915    0.0029    2.2491 H   0  0  0  0  0  0  0  0  0  0  0  0
    1.4529   -0.0019   -2.1804 H   0  0  0  0  0  0  0  0  0  0  0  0
    7.8025   -1.3305   -0.6272 H   0  0  0  0  0  0  0  0  0  0  0  0
    8.6826   -0.6685    0.7590 H   0  0  0  0  0  0  0  0  0  0  0  0
    9.4891    0.4099   -1.3410 H   0  0  0  0  0  0  0  0  0  0  0  0
    7.8336    0.8615   -1.8014 H   0  0  0  0  0  0  0  0  0  0  0  0
    7.4902    3.3857    0.8647 H   0  0  0  0  0  0  0  0  0  0  0  0
    6.6494    2.6017   -0.4992 H   0  0  0  0  0  0  0  0  0  0  0  0
    7.3869    1.2870    2.2086 H   0  0  0  0  0  0  0  0  0  0  0  0
    5.7649    1.7294    1.6648 H   0  0  0  0  0  0  0  0  0  0  0  0
   10.4259    1.1572    0.5864 H   0  0  0  0  0  0  0  0  0  0  0  0
    9.4131    1.9783    1.7867 H   0  0  0  0  0  0  0  0  0  0  0  0
   10.7177    3.4963   -0.5683 H   0  0  0  0  0  0  0  0  0  0  0  0
   11.5981    3.1723    0.9367 H   0  0  0  0  0  0  0  0  0  0  0  0
    9.8243    5.6901   -1.5351 H   0  0  0  0  0  0  0  0  0  0  0  0
    8.1196    6.0855   -1.2536 H   0  0  0  0  0  0  0  0  0  0  0  0
    8.6469    4.3808   -1.2813 H   0  0  0  0  0  0  0  0  0  0  0  0
    8.8781    8.7948    2.7523 H   0  0  0  0  0  0  0  0  0  0  0  0
    7.2498    8.1252    2.6411 H   0  0  0  0  0  0  0  0  0  0  0  0
    7.9727    8.8801    5.0126 H   0  0  0  0  0  0  0  0  0  0  0  0
    7.3295    7.2395    4.9267 H   0  0  0  0  0  0  0  0  0  0  0  0
    9.4940    7.3484    6.2669 H   0  0  0  0  0  0  0  0  0  0  0  0
   10.3431    7.9591    4.8445 H   0  0  0  0  0  0  0  0  0  0  0  0
    8.9596    5.1957    5.1658 H   0  0  0  0  0  0  0  0  0  0  0  0
   10.7063    5.5087    4.9589 H   0  0  0  0  0  0  0  0  0  0  0  0
  1  2  1  0  0  0  0
  2  3  2  0  0  0  0
  3  4  1  0  0  0  0
  3 32  1  0  0  0  0
  4 33  1  0  0  0  0
  5  4  2  0  0  0  0
  6  5  1  0  0  0  0
  7  6  2  0  0  0  0
  7  2  1  0  0  0  0
  8  9  1  0  0  0  0
  8  6  1  0  0  0  0
  9 10  2  0  0  0  0
 10  5  1  0  0  0  0
 10 11  1  0  0  0  0
 11 17  1  0  0  0  0
 11 12  1  1  0  0  0
 13 11  1  0  0  0  0
 13 36  1  0  0  0  0
 14 15  1  0  0  0  0
 14 13  1  0  0  0  0
 15 16  1  0  0  0  0
 15 18  1  0  0  0  0
 16 39  1  0  0  0  0
 16 17  1  0  0  0  0
 17 42  1  0  0  0  0
 17 41  1  0  0  0  0
 18 44  1  0  0  0  0
 19 18  1  0  0  0  0
 19 46  1  0  0  0  0
 20 19  1  1  0  0  0
 20 21  1  0  0  0  0
 21 23  1  0  0  0  0
 21 22  2  0  0  0  0
 23 31  1  0  0  0  0
 24 28  1  0  0  0  0
 24 23  1  0  0  0  0
 25 24  2  0  0  0  0
 26 25  2  0  0  0  0
 26 20  1  0  0  0  0
 27 26  1  0  0  0  0
 28 29  1  0  0  0  0
 29 53  1  0  0  0  0
 29 52  1  0  0  0  0
 29 30  1  0  0  0  0
 30 54  1  0  0  0  0
 31 57  1  0  0  0  0
 31 30  1  0  0  0  0
 31 56  1  0  0  0  0
 34  7  1  0  0  0  0
 35 13  1  0  0  0  0
 37 14  1  0  0  0  0
 38 14  1  0  0  0  0
 40 16  1  0  0  0  0
 43 18  1  0  0  0  0
 45 19  1  0  0  0  0
 47 27  1  0  0  0  0
 48 27  1  0  0  0  0
 49 27  1  0  0  0  0
 50 28  1  0  0  0  0
 51 28  1  0  0  0  0
 55 30  1  0  0  0  0
M  RAD  1  20   2
M  END
$$$$
