57
rmsd232.gzmat
F          0.00000        0.00000        0.00000
C          1.32300        0.00000        0.00000
C          1.97490        0.00000        1.24750
C          3.36350       -0.00440        1.29580
C          4.06280       -0.00660        0.09370
C          3.36110       -0.00750       -1.13800
C          1.97570       -0.00330       -1.22880
O          4.25900       -0.01920       -2.18010
N          5.53590       -0.02650       -1.62850
C          5.46920       -0.01670       -0.31000
C          6.62500       -0.03790        0.63310
H          6.43900       -0.87440        1.36210
C          7.96630       -0.31120       -0.06730
C          8.47400        0.91250       -0.85750
N          8.52160        2.16870       -0.08300
C          7.20540        2.43370        0.52730
C          6.68820        1.28660        1.41900
C          9.61650        2.17890        0.91510
C         10.92240        2.58330        0.19130
C         12.04690        2.61120        1.16490
C         12.59710        1.32670        1.52700
O         12.23710        0.22980        1.15420
N         13.69530        1.35930        2.45380
C         14.15820        2.55500        2.95660
N         13.61170        3.71470        2.61650
C         12.55670        3.75450        1.72950
C         12.03170        5.12110        1.45090
C         15.33430        2.61290        3.89360
C         15.65630        1.26340        4.53330
C         15.64300        0.17390        3.46100
C         14.23480        0.05230        2.87410
H          1.39130        0.00160        2.16680
H          3.89130       -0.00940        2.24890
H          1.45350       -0.00500       -2.18060
H          7.87000       -1.17380       -0.75430
H          8.72230       -0.60670        0.68560
H          9.48780        0.70100       -1.26150
H          7.81610        1.09560       -1.73920
H          7.25880        3.37980        1.10480
H          6.48850        2.61740       -0.30620
H          7.35850        1.16130        2.29040
H          5.69630        1.54720        1.82680
H          9.75770        1.19760        1.41690
H          9.39530        2.92010        1.71010
H         10.78000        3.55760       -0.31640
H         11.13690        1.85920       -0.62570
H         12.12810        5.37570        0.38430
H         12.57260        5.89380        2.02340
H         10.96640        5.19930        1.71800
H         16.21330        2.99770        3.32630
H         15.14440        3.38480        4.67460
H         16.64130        1.30530        5.03560
H         14.92280        1.02790        5.32940
H         15.95540       -0.80000        3.88400
H         16.37720        0.40490        2.66430
H         13.52950       -0.39520        3.61380
H         14.23390       -0.63370        1.98930
