rmsd226.gzmat
 OpenBabel08211713413D

 57 61  0  0  1  0  0  0  0  0999 V2000
    0.0000    0.0000    0.0000 F   0  0  0  0  0  0  0  0  0  0  0  0
    1.3231    0.0000    0.0000 C   0  0  0  0  0  0  0  0  0  0  0  0
    1.9752    0.0000    1.2474 C   0  0  0  0  0  0  0  0  0  0  0  0
    3.3637   -0.0023    1.2961 C   0  0  0  0  0  0  0  0  0  0  0  0
    4.0634   -0.0056    0.0944 C   0  0  0  0  0  0  0  0  0  0  0  0
    3.3617    0.0005   -1.1374 C   0  0  0  0  0  0  0  0  0  0  0  0
    1.9763    0.0022   -1.2290 C   0  0  0  0  0  0  0  0  0  0  0  0
    4.2597    0.0060   -2.1796 O   0  0  0  0  0  0  0  0  0  0  0  0
    5.5365    0.0005   -1.6281 N   0  0  0  0  0  0  0  0  0  0  0  0
    5.4699   -0.0109   -0.3094 C   0  0  0  0  0  0  0  0  0  0  0  0
    6.6265   -0.0207    0.6329 C   0  0  1  0  0  0  0  0  0  0  0  0
    6.4639    0.8129    1.3702 H   0  0  0  0  0  0  0  0  0  0  0  0
    6.6550   -1.3553    1.4039 C   0  0  0  0  0  0  0  0  0  0  0  0
    7.1351   -2.5052    0.4953 C   0  0  0  0  0  0  0  0  0  0  0  0
    8.4576   -2.2712   -0.1169 N   0  0  0  0  0  0  0  0  0  0  0  0
    8.4396   -1.0048   -0.8764 C   0  0  0  0  0  0  0  0  0  0  0  0
    7.9746    0.2218   -0.0657 C   0  0  0  0  0  0  0  0  0  0  0  0
    9.5491   -2.3218    0.8840 C   0  0  0  0  0  0  0  0  0  0  0  0
   10.8764   -2.6254    0.1505 C   0  0  0  0  0  0  0  0  0  0  0  0
   11.9711   -2.7701    1.1473 C   0  0  1  0  0  0  0  0  0  0  0  0
   12.5197   -1.5398    1.6652 C   0  0  0  0  0  0  0  0  0  0  0  0
   12.1966   -0.4043    1.3861 O   0  0  0  0  0  0  0  0  0  0  0  0
   13.5691   -1.6882    2.6365 N   0  0  0  0  0  0  0  0  0  0  0  0
   14.0062   -2.9373    3.0170 C   0  0  0  0  0  0  0  0  0  0  0  0
   13.4730   -4.0463    2.5207 N   0  0  0  0  0  0  0  0  0  0  0  0
   12.4566   -3.9753    1.5916 C   0  0  0  0  0  0  0  0  0  0  0  0
   11.9471   -5.2950    1.1230 C   0  0  0  0  0  0  0  0  0  0  0  0
   15.0876   -3.1187    4.0479 C   0  0  0  0  0  0  0  0  0  0  0  0
   15.8536   -1.8346    4.3626 C   0  0  0  0  0  0  0  0  0  0  0  0
   14.8722   -0.6701    4.4958 C   0  0  0  0  0  0  0  0  0  0  0  0
   14.1670   -0.4438    3.1558 C   0  0  0  0  0  0  0  0  0  0  0  0
    1.3928    0.0030    2.1676 H   0  0  0  0  0  0  0  0  0  0  0  0
    3.8913   -0.0003    2.2496 H   0  0  0  0  0  0  0  0  0  0  0  0
    1.4543    0.0061   -2.1809 H   0  0  0  0  0  0  0  0  0  0  0  0
    5.6574   -1.5929    1.8115 H   0  0  0  0  0  0  0  0  0  0  0  0
    7.3306   -1.2596    2.2749 H   0  0  0  0  0  0  0  0  0  0  0  0
    7.1609   -3.4598    1.0607 H   0  0  0  0  0  0  0  0  0  0  0  0
    6.4100   -2.6561   -0.3377 H   0  0  0  0  0  0  0  0  0  0  0  0
    9.4536   -0.8171   -1.2907 H   0  0  0  0  0  0  0  0  0  0  0  0
    7.7679   -1.1585   -1.7539 H   0  0  0  0  0  0  0  0  0  0  0  0
    8.7412    0.4785    0.6912 H   0  0  0  0  0  0  0  0  0  0  0  0
    7.9046    1.0984   -0.7374 H   0  0  0  0  0  0  0  0  0  0  0  0
    9.3406   -3.1338    1.6118 H   0  0  0  0  0  0  0  0  0  0  0  0
    9.6540   -1.3820    1.4679 H   0  0  0  0  0  0  0  0  0  0  0  0
   11.1106   -1.8048   -0.5630 H   0  0  0  0  0  0  0  0  0  0  0  0
   10.7573   -3.5306   -0.4775 H   0  0  0  0  0  0  0  0  0  0  0  0
   10.8479   -5.3401    1.1606 H   0  0  0  0  0  0  0  0  0  0  0  0
   12.3378   -6.1261    1.7338 H   0  0  0  0  0  0  0  0  0  0  0  0
   12.2526   -5.4871    0.0824 H   0  0  0  0  0  0  0  0  0  0  0  0
   14.6190   -3.5316    4.9713 H   0  0  0  0  0  0  0  0  0  0  0  0
   15.7852   -3.9187    3.7073 H   0  0  0  0  0  0  0  0  0  0  0  0
   16.4387   -1.9609    5.2935 H   0  0  0  0  0  0  0  0  0  0  0  0
   16.5979   -1.6212    3.5699 H   0  0  0  0  0  0  0  0  0  0  0  0
   15.3955    0.2554    4.8027 H   0  0  0  0  0  0  0  0  0  0  0  0
   14.1327   -0.8772    5.2939 H   0  0  0  0  0  0  0  0  0  0  0  0
   14.8773   -0.0486    2.3917 H   0  0  0  0  0  0  0  0  0  0  0  0
   13.3586    0.3240    3.2594 H   0  0  0  0  0  0  0  0  0  0  0  0
  1  2  1  0  0  0  0
  2  3  2  0  0  0  0
  3  4  1  0  0  0  0
  3 32  1  0  0  0  0
  4 33  1  0  0  0  0
  5  4  2  0  0  0  0
  6  5  1  0  0  0  0
  7  6  2  0  0  0  0
  7  2  1  0  0  0  0
  8  9  1  0  0  0  0
  8  6  1  0  0  0  0
  9 10  2  0  0  0  0
 10  5  1  0  0  0  0
 10 11  1  0  0  0  0
 11 12  1  1  0  0  0
 11 13  1  0  0  0  0
 13 35  1  0  0  0  0
 13 36  1  0  0  0  0
 14 37  1  0  0  0  0
 14 13  1  0  0  0  0
 15 14  1  0  0  0  0
 15 18  1  0  0  0  0
 16 15  1  0  0  0  0
 16 17  1  0  0  0  0
 17 11  1  0  0  0  0
 17 41  1  0  0  0  0
 18 44  1  0  0  0  0
 18 43  1  0  0  0  0
 19 18  1  0  0  0  0
 20 19  1  1  0  0  0
 20 26  1  0  0  0  0
 20 21  1  0  0  0  0
 21 23  1  0  0  0  0
 22 21  2  0  0  0  0
 23 24  1  0  0  0  0
 23 31  1  0  0  0  0
 24 28  1  0  0  0  0
 25 24  2  0  0  0  0
 26 25  2  0  0  0  0
 27 47  1  0  0  0  0
 27 26  1  0  0  0  0
 27 48  1  0  0  0  0
 28 29  1  0  0  0  0
 28 50  1  0  0  0  0
 29 30  1  0  0  0  0
 29 52  1  0  0  0  0
 30 54  1  0  0  0  0
 30 55  1  0  0  0  0
 31 57  1  0  0  0  0
 31 30  1  0  0  0  0
 34  7  1  0  0  0  0
 38 14  1  0  0  0  0
 39 16  1  0  0  0  0
 40 16  1  0  0  0  0
 42 17  1  0  0  0  0
 45 19  1  0  0  0  0
 46 19  1  0  0  0  0
 49 27  1  0  0  0  0
 51 28  1  0  0  0  0
 53 29  1  0  0  0  0
 56 31  1  0  0  0  0
M  RAD  1  20   2
M  END
$$$$
