57
rmsd225.gzmat
F          0.00000        0.00000        0.00000
C          1.32300        0.00000        0.00000
C          1.97480        0.00000        1.24770
C          3.36310        0.00020        1.29650
C          4.06430       -0.00540        0.09510
C          3.36180        0.00160       -1.13660
C          1.97640        0.00190       -1.22850
O          4.25850        0.01070       -2.17970
N          5.53510        0.00390       -1.62940
C          5.47030       -0.01120       -0.31010
C          6.63610       -0.01160        0.62110
H          6.52770        0.88770        1.28780
C          6.61440       -1.27730        1.50010
C          7.00160       -2.52430        0.67920
N          8.31400       -2.41920        0.01400
C          8.35520       -1.21350       -0.83730
C          7.98520        0.09650       -0.11060
C          9.44010       -2.47250        0.97610
C         10.67530       -3.03320        0.23340
C         11.80090       -3.22550        1.18700
C         12.67690       -2.09540        1.38010
O         12.60050       -0.99610        0.87410
N         13.77290       -2.30670        2.28870
C         13.94860       -3.52260        2.91030
N         13.10980       -4.53330        2.72050
C         12.03730       -4.39610        1.86600
C         11.18020       -5.60880        1.74080
C         15.08370       -3.76460        3.86820
C         16.18770       -2.71310        3.77030
C         15.56000       -1.31980        3.72240
C         14.71340       -1.18190        2.45410
H          1.39140        0.00050        2.16760
H          3.88870        0.00790        2.25100
H          1.45480        0.00470       -2.18090
H          5.62030       -1.42360        1.95570
H          7.32260       -1.14970        2.34050
H          6.99330       -3.42790        1.32370
H          6.24300       -2.70260       -0.11750
H          9.36860       -1.12220       -1.28450
H          7.65480       -1.38710       -1.68770
H          8.77850        0.35800        0.61510
H          7.95850        0.92510       -0.84420
H          9.18150       -3.14500        1.81970
H          9.68580       -1.48440        1.41820
H         10.97020       -2.33680       -0.58250
H         10.40350       -3.97830       -0.27960
H         10.11400       -5.36400        1.86200
H         11.43630       -6.37360        2.49300
H         11.30250       -6.07530        0.75020
H         14.66800       -3.80040        4.90170
H         15.49480       -4.78640        3.69580
H         16.87610       -2.80360        4.63200
H         16.81170       -2.88620        2.87100
H         16.34060       -0.53520        3.73540
H         14.94190       -1.14350        4.62420
H         15.36040       -1.12970        1.54620
H         14.12630       -0.22870        2.47410
