rmsd232.gzmat
 OpenBabel08211713413D

 57 61  0  0  1  0  0  0  0  0999 V2000
    0.0000    0.0000    0.0000 F   0  0  0  0  0  0  0  0  0  0  0  0
    1.3230    0.0000    0.0000 C   0  0  0  0  0  0  0  0  0  0  0  0
    1.9749    0.0000    1.2475 C   0  0  0  0  0  0  0  0  0  0  0  0
    3.3635   -0.0044    1.2958 C   0  0  0  0  0  0  0  0  0  0  0  0
    4.0628   -0.0066    0.0937 C   0  0  0  0  0  0  0  0  0  0  0  0
    3.3611   -0.0075   -1.1380 C   0  0  0  0  0  0  0  0  0  0  0  0
    1.9757   -0.0033   -1.2288 C   0  0  0  0  0  0  0  0  0  0  0  0
    4.2590   -0.0192   -2.1801 O   0  0  0  0  0  0  0  0  0  0  0  0
    5.5359   -0.0265   -1.6285 N   0  0  0  0  0  0  0  0  0  0  0  0
    5.4692   -0.0167   -0.3100 C   0  0  0  0  0  0  0  0  0  0  0  0
    6.6250   -0.0379    0.6331 C   0  0  1  0  0  0  0  0  0  0  0  0
    6.4390   -0.8744    1.3621 H   0  0  0  0  0  0  0  0  0  0  0  0
    7.9663   -0.3112   -0.0673 C   0  0  0  0  0  0  0  0  0  0  0  0
    8.4740    0.9125   -0.8575 C   0  0  0  0  0  0  0  0  0  0  0  0
    8.5216    2.1687   -0.0830 N   0  0  0  0  0  0  0  0  0  0  0  0
    7.2054    2.4337    0.5273 C   0  0  0  0  0  0  0  0  0  0  0  0
    6.6882    1.2866    1.4190 C   0  0  0  0  0  0  0  0  0  0  0  0
    9.6165    2.1789    0.9151 C   0  0  0  0  0  0  0  0  0  0  0  0
   10.9224    2.5833    0.1913 C   0  0  0  0  0  0  0  0  0  0  0  0
   12.0469    2.6112    1.1649 C   0  0  2  0  0  0  0  0  0  0  0  0
   12.5971    1.3267    1.5270 C   0  0  0  0  0  0  0  0  0  0  0  0
   12.2371    0.2298    1.1542 O   0  0  0  0  0  0  0  0  0  0  0  0
   13.6953    1.3593    2.4538 N   0  0  0  0  0  0  0  0  0  0  0  0
   14.1582    2.5550    2.9566 C   0  0  0  0  0  0  0  0  0  0  0  0
   13.6117    3.7147    2.6165 N   0  0  0  0  0  0  0  0  0  0  0  0
   12.5567    3.7545    1.7295 C   0  0  0  0  0  0  0  0  0  0  0  0
   12.0317    5.1211    1.4509 C   0  0  0  0  0  0  0  0  0  0  0  0
   15.3343    2.6129    3.8936 C   0  0  0  0  0  0  0  0  0  0  0  0
   15.6563    1.2634    4.5333 C   0  0  0  0  0  0  0  0  0  0  0  0
   15.6430    0.1739    3.4610 C   0  0  0  0  0  0  0  0  0  0  0  0
   14.2348    0.0523    2.8741 C   0  0  0  0  0  0  0  0  0  0  0  0
    1.3913    0.0016    2.1668 H   0  0  0  0  0  0  0  0  0  0  0  0
    3.8913   -0.0094    2.2489 H   0  0  0  0  0  0  0  0  0  0  0  0
    1.4535   -0.0050   -2.1806 H   0  0  0  0  0  0  0  0  0  0  0  0
    7.8700   -1.1738   -0.7543 H   0  0  0  0  0  0  0  0  0  0  0  0
    8.7223   -0.6067    0.6856 H   0  0  0  0  0  0  0  0  0  0  0  0
    9.4878    0.7010   -1.2615 H   0  0  0  0  0  0  0  0  0  0  0  0
    7.8161    1.0956   -1.7392 H   0  0  0  0  0  0  0  0  0  0  0  0
    7.2588    3.3798    1.1048 H   0  0  0  0  0  0  0  0  0  0  0  0
    6.4885    2.6174   -0.3062 H   0  0  0  0  0  0  0  0  0  0  0  0
    7.3585    1.1613    2.2904 H   0  0  0  0  0  0  0  0  0  0  0  0
    5.6963    1.5472    1.8268 H   0  0  0  0  0  0  0  0  0  0  0  0
    9.7577    1.1976    1.4169 H   0  0  0  0  0  0  0  0  0  0  0  0
    9.3953    2.9201    1.7101 H   0  0  0  0  0  0  0  0  0  0  0  0
   10.7800    3.5576   -0.3164 H   0  0  0  0  0  0  0  0  0  0  0  0
   11.1369    1.8592   -0.6257 H   0  0  0  0  0  0  0  0  0  0  0  0
   12.1281    5.3757    0.3843 H   0  0  0  0  0  0  0  0  0  0  0  0
   12.5726    5.8938    2.0234 H   0  0  0  0  0  0  0  0  0  0  0  0
   10.9664    5.1993    1.7180 H   0  0  0  0  0  0  0  0  0  0  0  0
   16.2133    2.9977    3.3263 H   0  0  0  0  0  0  0  0  0  0  0  0
   15.1444    3.3848    4.6746 H   0  0  0  0  0  0  0  0  0  0  0  0
   16.6413    1.3053    5.0356 H   0  0  0  0  0  0  0  0  0  0  0  0
   14.9228    1.0279    5.3294 H   0  0  0  0  0  0  0  0  0  0  0  0
   15.9554   -0.8000    3.8840 H   0  0  0  0  0  0  0  0  0  0  0  0
   16.3772    0.4049    2.6643 H   0  0  0  0  0  0  0  0  0  0  0  0
   13.5295   -0.3952    3.6138 H   0  0  0  0  0  0  0  0  0  0  0  0
   14.2339   -0.6337    1.9893 H   0  0  0  0  0  0  0  0  0  0  0  0
  2  1  1  0  0  0  0
  2  3  2  0  0  0  0
  3  4  1  0  0  0  0
  3 32  1  0  0  0  0
  4 33  1  0  0  0  0
  5  4  2  0  0  0  0
  6  5  1  0  0  0  0
  7  6  2  0  0  0  0
  7  2  1  0  0  0  0
  8  9  1  0  0  0  0
  8  6  1  0  0  0  0
  9 10  2  0  0  0  0
 10  5  1  0  0  0  0
 10 11  1  0  0  0  0
 11 12  1  1  0  0  0
 11 17  1  0  0  0  0
 13 11  1  0  0  0  0
 13 36  1  0  0  0  0
 14 15  1  0  0  0  0
 14 13  1  0  0  0  0
 15 16  1  0  0  0  0
 15 18  1  0  0  0  0
 16 39  1  0  0  0  0
 16 17  1  0  0  0  0
 17 42  1  0  0  0  0
 17 41  1  0  0  0  0
 18 43  1  0  0  0  0
 18 44  1  0  0  0  0
 19 18  1  0  0  0  0
 20 19  1  1  0  0  0
 20 21  1  0  0  0  0
 20 26  1  0  0  0  0
 21 23  1  0  0  0  0
 22 21  2  0  0  0  0
 23 31  1  0  0  0  0
 23 24  1  0  0  0  0
 24 28  1  0  0  0  0
 25 24  2  0  0  0  0
 26 25  2  0  0  0  0
 27 49  1  0  0  0  0
 27 26  1  0  0  0  0
 27 48  1  0  0  0  0
 28 29  1  0  0  0  0
 28 51  1  0  0  0  0
 29 52  1  0  0  0  0
 29 53  1  0  0  0  0
 30 54  1  0  0  0  0
 30 29  1  0  0  0  0
 31 30  1  0  0  0  0
 31 56  1  0  0  0  0
 34  7  1  0  0  0  0
 35 13  1  0  0  0  0
 37 14  1  0  0  0  0
 38 14  1  0  0  0  0
 40 16  1  0  0  0  0
 45 19  1  0  0  0  0
 46 19  1  0  0  0  0
 47 27  1  0  0  0  0
 50 28  1  0  0  0  0
 55 30  1  0  0  0  0
 57 31  1  0  0  0  0
M  RAD  1  20   2
M  END
$$$$
