57
rmsd60.gzmat
F          0.00000        0.00000        0.00000
C          1.32300        0.00000        0.00000
C          1.97500        0.00000        1.24760
C          3.36320        0.00190        1.29610
C          4.06180        0.00080        0.09380
C          3.36080       -0.00160       -1.13820
C          1.97550       -0.00050       -1.22900
O          4.25950       -0.00940       -2.17970
N          5.53600       -0.01060       -1.62730
C          5.46810       -0.00300       -0.30880
C          6.61890       -0.00720        0.64030
H          6.38830       -0.76500        1.43870
C          7.94490       -0.41390       -0.02440
C          8.50510        0.70700       -0.92300
N          8.64440        2.01020       -0.24700
C          7.35410        2.41360        0.34290
C          6.74850        1.37540        1.30860
C          9.75720        2.03140        0.73240
C         10.57880        3.32540        0.51920
C          9.93820        4.49950        1.17340
C         10.11160        4.60220        2.60160
O         10.67450        3.82240        3.34200
N          9.53280        5.76500        3.21620
C          8.83030        6.68220        2.46460
N          8.65350        6.52900        1.16010
C          9.20150        5.44580        0.50300
C          8.93190        5.40160       -0.96040
C          8.25550        7.92980        3.07940
C          8.17920        7.87280        4.60400
C          9.49290        7.32340        5.16060
C          9.68950        5.88360        4.67780
H          1.39190       -0.00200        2.16750
H          3.89150        0.00290        2.24910
H          1.45290       -0.00190       -2.18040
H          7.80250       -1.33050       -0.62720
H          8.68260       -0.66850        0.75900
H          9.48910        0.40990       -1.34100
H          7.83360        0.86150       -1.80140
H          7.49020        3.38570        0.86470
H          6.64940        2.60170       -0.49920
H          7.38690        1.28700        2.20860
H          5.76490        1.72940        1.66480
H         10.42590        1.15720        0.58640
H          9.41310        1.97830        1.78670
H         10.71770        3.49630       -0.56830
H         11.59810        3.17230        0.93670
H          9.82430        5.69010       -1.53510
H          8.11960        6.08550       -1.25360
H          8.64690        4.38080       -1.28130
H          8.87810        8.79480        2.75230
H          7.24980        8.12520        2.64110
H          7.97270        8.88010        5.01260
H          7.32950        7.23950        4.92670
H          9.49400        7.34840        6.26690
H         10.34310        7.95910        4.84450
H          8.95960        5.19570        5.16580
H         10.70630        5.50870        4.95890
