57
rmsd226.gzmat
F          0.00000        0.00000        0.00000
C          1.32310        0.00000        0.00000
C          1.97520        0.00000        1.24740
C          3.36370       -0.00230        1.29610
C          4.06340       -0.00560        0.09440
C          3.36170        0.00050       -1.13740
C          1.97630        0.00220       -1.22900
O          4.25970        0.00600       -2.17960
N          5.53650        0.00050       -1.62810
C          5.46990       -0.01090       -0.30940
C          6.62650       -0.02070        0.63290
H          6.46390        0.81290        1.37020
C          6.65500       -1.35530        1.40390
C          7.13510       -2.50520        0.49530
N          8.45760       -2.27120       -0.11690
C          8.43960       -1.00480       -0.87640
C          7.97460        0.22180       -0.06570
C          9.54910       -2.32180        0.88400
C         10.87640       -2.62540        0.15050
C         11.97110       -2.77010        1.14730
C         12.51970       -1.53980        1.66520
O         12.19660       -0.40430        1.38610
N         13.56910       -1.68820        2.63650
C         14.00620       -2.93730        3.01700
N         13.47300       -4.04630        2.52070
C         12.45660       -3.97530        1.59160
C         11.94710       -5.29500        1.12300
C         15.08760       -3.11870        4.04790
C         15.85360       -1.83460        4.36260
C         14.87220       -0.67010        4.49580
C         14.16700       -0.44380        3.15580
H          1.39280        0.00300        2.16760
H          3.89130       -0.00030        2.24960
H          1.45430        0.00610       -2.18090
H          5.65740       -1.59290        1.81150
H          7.33060       -1.25960        2.27490
H          7.16090       -3.45980        1.06070
H          6.41000       -2.65610       -0.33770
H          9.45360       -0.81710       -1.29070
H          7.76790       -1.15850       -1.75390
H          8.74120        0.47850        0.69120
H          7.90460        1.09840       -0.73740
H          9.34060       -3.13380        1.61180
H          9.65400       -1.38200        1.46790
H         11.11060       -1.80480       -0.56300
H         10.75730       -3.53060       -0.47750
H         10.84790       -5.34010        1.16060
H         12.33780       -6.12610        1.73380
H         12.25260       -5.48710        0.08240
H         14.61900       -3.53160        4.97130
H         15.78520       -3.91870        3.70730
H         16.43870       -1.96090        5.29350
H         16.59790       -1.62120        3.56990
H         15.39550        0.25540        4.80270
H         14.13270       -0.87720        5.29390
H         14.87730       -0.04860        2.39170
H         13.35860        0.32400        3.25940
