57

F          0.17610       -0.74910        0.33360
C          1.50020       -0.56580        0.26090
C          2.22420       -0.50580        1.46810
C          3.60100       -0.31600        1.44190
C          4.23100       -0.18720        0.19330
C          3.47060       -0.25810       -0.98400
C          2.08660       -0.44770       -0.99300
O          4.27840       -0.12380       -2.05190
N          5.59630        0.03900       -1.59730
C          5.58020        0.00350       -0.29140
C          6.82160        0.15240        0.54870
H          6.77870       -0.67180        1.28240
C          8.13310        0.03460       -0.25230
C          8.44450        1.31220       -1.04950
N          8.44220        2.52690       -0.23180
C          7.15090        2.67640        0.42820
C          6.78830        1.48840        1.33400
C          9.57080        2.65970        0.67930
C         10.90650        2.87130       -0.04790
C         12.06170        2.89090        0.91180
C         12.50530        1.59980        1.39690
O         12.00760        0.51760        1.10130
N         13.61080        1.64180        2.28900
C         14.15150        2.83230        2.69320
N         13.70720        3.98620        2.28200
C         12.66470        4.02990        1.39560
C         12.22960        5.41030        0.97820
C         15.34510        2.83160        3.62160
C         15.53960        1.53300        4.39760
C         15.42830        0.36170        3.42620
C         14.04550        0.32730        2.79740
H          1.67710       -0.61210        2.40580
H          4.17190       -0.27080        2.37100
H          1.49700       -0.50310       -1.90740
H          8.07940       -0.82530       -0.93710
H          8.95850       -0.16500        0.44970
H          9.41750        1.20550       -1.54900
H          7.69330        1.43700       -1.84340
H          7.15030        3.61030        1.01410
H          6.37750        2.78800       -0.35190
H          7.51050        1.42100        2.16370
H          5.79750        1.64750        1.78950
H          9.69280        1.79610        1.36360
H          9.37840        3.53640        1.32060
H         10.85290        3.79380       -0.64240
H         11.06910        2.03570       -0.74410
H         12.48650        5.60210       -0.07700
H         12.74180        6.15500        1.60020
H         11.14140        5.54260        1.07470
H         16.23410        3.02410        2.99380
H         15.24180        3.71020        4.27350
H         16.51490        1.53970        4.90750
H         14.76880        1.43760        5.18260
H         15.60550       -0.60220        3.92790
H         16.19750        0.45930        2.64010
H         13.29260       -0.01270        3.52900
H         13.98240       -0.37430        1.95590
