rmsd173.gzmat
 OpenBabel08211713403D

 34 36  0  0  1  0  0  0  0  0999 V2000
    0.0000    0.0000    0.0000 C   0  0  0  0  0  0  0  0  0  0  0  0
    1.3557    0.0000    0.0000 C   0  0  0  0  0  0  0  0  0  0  0  0
    2.2627    0.0000    1.1510 C   0  0  0  0  0  0  0  0  0  0  0  0
    2.0334   -0.0170   -1.6539 S   0  0  0  0  0  0  0  0  0  0  0  0
    0.3529    0.1550   -2.4074 C   0  0  1  0  0  0  0  0  0  0  0  0
    0.2491    1.1185   -2.9358 H   0  0  0  0  0  0  0  0  0  0  0  0
   -0.2848   -1.0733   -3.1035 C   0  0  0  0  0  0  0  0  0  0  0  0
   -1.1929   -1.2036   -1.8667 C   0  0  0  0  0  0  0  0  0  0  0  0
   -2.0448   -1.9364   -1.4969 O   0  0  0  0  0  0  0  0  0  0  0  0
   -0.6333    0.0038   -1.2707 N   0  0  0  0  0  0  0  0  0  0  0  0
   -0.8346    0.0431    1.2108 C   0  0  0  0  0  0  0  0  0  0  0  0
   -0.4248    0.0467    2.3463 O   0  0  0  0  0  0  0  0  0  0  0  0
   -2.1546    0.0930    0.9063 O   0  0  0  0  0  0  0  0  0  0  0  0
   -3.0545    0.0208    2.0148 C   0  0  0  0  0  0  0  0  0  0  0  0
   -3.2392   -1.4123    2.4126 C   0  0  0  0  0  0  0  0  0  0  0  0
   -3.2854   -1.7696    3.7619 C   0  0  0  0  0  0  0  0  0  0  0  0
   -3.4473   -3.1034    4.1215 C   0  0  0  0  0  0  0  0  0  0  0  0
   -3.5572   -4.0689    3.1167 C   0  0  0  0  0  0  0  0  0  0  0  0
   -3.5104   -3.7226    1.7632 C   0  0  0  0  0  0  0  0  0  0  0  0
   -3.3587   -2.3847    1.4174 C   0  0  0  0  0  0  0  0  0  0  0  0
   -3.7220   -5.4652    3.4880 N   0  0  0  0  0  0  0  0  0  0  0  0
   -3.8116   -6.2948    2.5967 O   0  0  0  0  0  0  0  0  0  0  0  0
   -3.7656   -5.7466    4.6755 O   0  0  0  0  0  0  0  0  0  0  0  0
    1.7928    0.4465    2.0535 H   0  0  0  0  0  0  0  0  0  0  0  0
    3.2015    0.5518    0.9870 H   0  0  0  0  0  0  0  0  0  0  0  0
    2.5390   -1.0306    1.4478 H   0  0  0  0  0  0  0  0  0  0  0  0
   -0.8107   -0.8627   -4.0420 H   0  0  0  0  0  0  0  0  0  0  0  0
    0.3612   -1.9435   -3.2730 H   0  0  0  0  0  0  0  0  0  0  0  0
   -3.9799    0.4562    1.5800 H   0  0  0  0  0  0  0  0  0  0  0  0
   -2.6990    0.6652    2.8420 H   0  0  0  0  0  0  0  0  0  0  0  0
   -3.1801   -1.0097    4.5360 H   0  0  0  0  0  0  0  0  0  0  0  0
   -3.4818   -3.3969    5.1750 H   0  0  0  0  0  0  0  0  0  0  0  0
   -3.5911   -4.4921    0.9888 H   0  0  0  0  0  0  0  0  0  0  0  0
   -3.3220   -2.0920    0.3625 H   0  0  0  0  0  0  0  0  0  0  0  0
  1 11  1  0  0  0  0
  2  1  2  0  0  0  0
  2  3  1  0  0  0  0
  3 26  1  0  0  0  0
  3 24  1  0  0  0  0
  4  2  1  0  0  0  0
  5  6  1  6  0  0  0
  5  4  1  0  0  0  0
  5 10  1  0  0  0  0
  7  5  1  0  0  0  0
  7  8  1  0  0  0  0
  8  9  2  0  0  0  0
  8 10  1  0  0  0  0
 10  1  1  0  0  0  0
 11 12  2  0  0  0  0
 13 11  1  0  0  0  0
 13 14  1  0  0  0  0
 14 15  1  0  0  0  0
 14 30  1  0  0  0  0
 15 16  2  0  0  0  0
 16 17  1  0  0  0  0
 16 31  1  0  0  0  0
 17 32  1  0  0  0  0
 18 21  1  0  0  0  0
 18 17  2  0  0  0  0
 19 18  1  0  0  0  0
 20 19  2  0  0  0  0
 20 15  1  0  0  0  0
 21 23  2  0  0  0  0
 22 21  2  0  0  0  0
 25  3  1  0  0  0  0
 27  7  1  0  0  0  0
 28  7  1  0  0  0  0
 29 14  1  0  0  0  0
 33 19  1  0  0  0  0
 34 20  1  0  0  0  0
M  END
$$$$
