34

C         -0.04750        0.02660        0.02130
C          1.29560       -0.20110        0.06150
C          2.17880       -0.35130        1.25390
S          2.03710       -0.32900       -1.54960
C          0.45680        0.23150       -2.35240
H          0.59020        1.25630       -2.73030
C         -0.33830       -0.74990       -3.24610
C         -1.24600       -0.93140       -2.01240
O         -2.14900       -1.65400       -1.70250
N         -0.55520        0.07450       -1.30780
C         -0.94890        0.16850        1.17800
O         -0.63210        0.06700        2.34260
O         -2.21030        0.42460        0.77110
C         -3.21040        0.44800        1.78960
C         -3.62990       -0.93890        2.21820
C         -3.57850       -2.01260        1.31640
C         -4.00260       -3.28020        1.71240
C         -4.48280       -3.45840        3.00950
C         -4.54440       -2.40700        3.92390
C         -4.10970       -1.14720        3.51930
N         -4.93330       -4.79840        3.43140
O         -5.35410       -4.92020        4.57130
O         -4.85890       -5.70300        2.61540
H          1.58290       -0.31500        2.17260
H          2.94040        0.44530        1.27510
H          2.71690       -1.31240        1.20280
H         -0.81970       -0.30710       -4.13060
H          0.19070       -1.67100       -3.52470
H         -4.05860        0.98010        1.33270
H         -2.85170        1.02210        2.65590
H         -3.19510       -1.86080        0.30520
H         -3.96940       -4.13130        1.03340
H         -4.91760       -2.59480        4.92970
H         -4.13450       -0.31640        4.22890
