
     RDKit          3D

 34 36  0  0  0  0  0  0  0  0999 V2000
    0.0652   -0.0291   -0.0307 C   0  0  0  0  0  0  0  0  0  0  0  0
    1.4236    0.0208   -0.1278 C   0  0  0  0  0  0  0  0  0  0  0  0
    2.4345    0.0533    0.9683 C   0  0  0  0  0  0  0  0  0  0  0  0
    2.0096    0.0460   -1.8065 S   0  0  0  0  0  0  0  0  0  0  0  0
    0.2759    0.2743   -2.4378 C   0  0  1  0  0  0  0  0  0  0  0  0
    0.1609    1.3049   -2.8056 H   0  0  0  0  0  0  0  0  0  0  0  0
   -0.3903   -0.8478   -3.2690 C   0  0  0  0  0  0  0  0  0  0  0  0
   -1.1135   -1.2105   -1.9558 C   0  0  0  0  0  0  0  0  0  0  0  0
   -1.8158   -2.1017   -1.5735 O   0  0  0  0  0  0  0  0  0  0  0  0
   -0.5729   -0.0853   -1.3020 N   0  0  0  0  0  0  0  0  0  0  0  0
   -0.7249   -0.0733    1.2120 C   0  0  0  0  0  0  0  0  0  0  0  0
   -0.2783   -0.1075    2.3373 O   0  0  0  0  0  0  0  0  0  0  0  0
   -2.0466   -0.0800    0.9369 O   0  0  0  0  0  0  0  0  0  0  0  0
   -2.9226   -0.2612    2.0496 C   0  0  0  0  0  0  0  0  0  0  0  0
   -3.0053   -1.7044    2.4896 C   0  0  0  0  0  0  0  0  0  0  0  0
   -3.2972   -2.0060    3.8275 C   0  0  0  0  0  0  0  0  0  0  0  0
   -3.4228   -3.3280    4.2476 C   0  0  0  0  0  0  0  0  0  0  0  0
   -3.2423   -4.3448    3.3101 C   0  0  0  0  0  0  0  0  0  0  0  0
   -2.9435   -4.0726    1.9754 C   0  0  0  0  0  0  0  0  0  0  0  0
   -2.8289   -2.7452    1.5652 C   0  0  0  0  0  0  0  0  0  0  0  0
   -3.3651   -5.7485    3.7474 N   0  0  0  0  0  0  0  0  0  0  0  0
   -3.1921   -6.6190    2.9095 O   0  0  0  0  0  0  0  0  0  0  0  0
   -3.6334   -5.9535    4.9209 O   0  0  0  0  0  0  0  0  0  0  0  0
    1.9394   -0.0339    1.9418 H   0  0  0  0  0  0  0  0  0  0  0  0
    3.0161    0.9890    0.9317 H   0  0  0  0  0  0  0  0  0  0  0  0
    3.1491   -0.7772    0.8437 H   0  0  0  0  0  0  0  0  0  0  0  0
   -1.0381   -0.5116   -4.0922 H   0  0  0  0  0  0  0  0  0  0  0  0
    0.2830   -1.6421   -3.6177 H   0  0  0  0  0  0  0  0  0  0  0  0
   -3.9031    0.0856    1.6894 H   0  0  0  0  0  0  0  0  0  0  0  0
   -2.6029    0.3746    2.8876 H   0  0  0  0  0  0  0  0  0  0  0  0
   -3.4178   -1.1977    4.5530 H   0  0  0  0  0  0  0  0  0  0  0  0
   -3.6450   -3.5879    5.2816 H   0  0  0  0  0  0  0  0  0  0  0  0
   -2.8074   -4.8991    1.2791 H   0  0  0  0  0  0  0  0  0  0  0  0
   -2.5897   -2.5183    0.5242 H   0  0  0  0  0  0  0  0  0  0  0  0
  1  2  2  0
  1 10  1  0
  1 11  1  0
  2  3  1  0
  2  4  1  0
  3 24  1  0
  3 25  1  0
  3 26  1  0
  4  5  1  0
  5  6  1  6
  5  7  1  0
  5 10  1  0
  7  8  1  0
  7 27  1  0
  7 28  1  0
  8  9  2  0
  8 10  1  0
 11 12  2  0
 11 13  1  0
 13 14  1  0
 14 15  1  0
 14 29  1  0
 14 30  1  0
 15 16  2  0
 15 20  1  0
 16 17  1  0
 16 31  1  0
 17 18  2  0
 17 32  1  0
 18 19  1  0
 18 21  1  0
 19 20  2  0
 19 33  1  0
 20 34  1  0
 21 22  1  0
 21 23  2  0
M  CHG  2  21   1  22  -1
M  END

