34
rmsd36.gzmat
C          0.00000        0.00000        0.00000
C          1.35490        0.00000        0.00000
C          2.27530        0.00000        1.14020
S          2.03220        0.02750       -1.65710
C          0.35200        0.22870       -2.40410
H          0.25000        1.21040       -2.89780
C         -0.29020       -0.97270       -3.14210
C         -1.18880       -1.15100       -1.90410
O         -2.03150       -1.90250       -1.55080
N         -0.63160        0.03820       -1.27180
C         -0.84780        0.01910        1.20350
O         -0.45730        0.01660        2.34530
O         -2.16350        0.05740        0.87760
C         -3.08400        0.02750        1.96910
C         -3.31040       -1.38480        2.41520
C         -3.31990       -2.41310        1.47050
C         -3.53190       -3.72750        1.87190
C         -3.74430       -3.99440        3.22770
C         -3.74330       -2.97200        4.18170
C         -3.52360       -1.66290        3.76800
N         -3.96900       -5.36440        3.66020
O         -4.16550       -5.56930        4.84810
O         -3.95150       -6.24940        2.81940
H          1.74730       -0.11930        2.11040
H          2.84370        0.94380        1.22200
H          3.01360       -0.81990        1.09680
H         -0.82420       -0.72610       -4.06720
H          0.35470       -1.83440       -3.35200
H         -3.99470        0.46260        1.50170
H         -2.73550        0.69280        2.78290
H         -3.15550       -2.18270        0.41230
H         -3.53480       -4.53980        1.13810
H         -3.90850       -3.20410        5.23860
H         -3.50800       -0.85920        4.50340
