34
rmsd43.gzmat
C          0.00000        0.00000        0.00000
C          1.35480        0.00000        0.00000
C          2.27520        0.00000        1.14020
S          2.03130        0.00720       -1.65770
C          0.34880        0.18010       -2.40840
H          0.23740        1.15080       -2.92120
C         -0.28060       -1.04290       -3.12170
C         -1.16920       -1.21220       -1.87540
O         -1.99370       -1.97200       -1.49780
N         -0.63160        0.00110       -1.27240
C         -0.84860        0.05810        1.20150
O         -0.46680       -0.01670        2.34360
O         -2.15260        0.23700        0.87390
C         -3.07340        0.27200        1.96470
C         -3.39550       -1.11710        2.42350
C         -3.41540       -2.16440        1.50080
C         -3.71430       -3.45650        1.91860
C         -4.00330       -3.68140        3.26760
C         -3.98980       -2.63980        4.19990
C         -3.68440       -1.35330        3.77040
N         -4.32850       -5.02710        3.71120
O         -4.62040       -5.19420        4.88530
O         -4.30120       -5.92990        2.88990
H          1.74230        0.02690        2.11500
H          2.95850        0.86700        1.14290
H          2.90330       -0.90930        1.17190
H         -0.82380       -0.81790       -4.04750
H          0.37510       -1.89850       -3.32220
H         -3.95220        0.76520        1.49450
H         -2.67790        0.91680        2.77400
H         -3.19020       -1.96870        0.44680
H         -3.72550       -4.28450        1.20240
H         -4.21160       -2.83940        5.25270
H         -3.66000       -0.53510        4.48880
