34
rmsd28.gzmat
C          0.00000        0.00000        0.00000
C          1.35580        0.00000        0.00000
C          2.25210        0.00000        1.15930
S          2.03220        0.03950       -1.65280
C          0.35090        0.24890       -2.39800
H          0.25030        1.23560       -2.88130
C         -0.29230       -0.94360       -3.14910
C         -1.18970       -1.13640       -1.91210
O         -2.03060       -1.89330       -1.56650
N         -0.63430        0.04780       -1.26860
C         -0.82850        0.00420        1.21500
O         -0.41320        0.01040        2.34820
O         -2.15050        0.00870        0.91460
C         -3.04360       -0.07630        2.02540
C         -3.17630       -1.50000        2.47320
C         -3.39000       -1.78640        3.82380
C         -3.52170       -3.10610        4.24140
C         -3.42960       -4.12990        3.29420
C         -3.21320       -3.85450        1.94070
C         -3.09420       -2.53040        1.53460
N         -3.56190       -5.51200        3.72560
O         -3.43160       -6.39340        2.89080
O         -3.79920       -5.73090        4.90340
H          1.82910       -0.57730        2.00940
H          2.40190        1.02370        1.55460
H          3.25080       -0.41850        0.96270
H         -0.82810       -0.68400       -4.06990
H          0.35260       -1.80180       -3.37160
H         -3.98750        0.30720        1.58040
H         -2.71290        0.60500        2.83370
H         -3.44200       -0.98020        4.55450
H         -3.69070       -3.34320        5.29630
H         -3.14200       -4.66960        1.21320
H         -2.93360       -2.29320        0.47710
