rmsd28.gzmat
 OpenBabel08211713403D

 34 36  0  0  1  0  0  0  0  0999 V2000
    0.0000    0.0000    0.0000 C   0  0  0  0  0  0  0  0  0  0  0  0
    1.3558    0.0000    0.0000 C   0  0  0  0  0  0  0  0  0  0  0  0
    2.2521    0.0000    1.1593 C   0  0  0  0  0  0  0  0  0  0  0  0
    2.0322    0.0395   -1.6528 S   0  0  0  0  0  0  0  0  0  0  0  0
    0.3509    0.2489   -2.3980 C   0  0  1  0  0  0  0  0  0  0  0  0
    0.2503    1.2356   -2.8813 H   0  0  0  0  0  0  0  0  0  0  0  0
   -0.2923   -0.9436   -3.1491 C   0  0  0  0  0  0  0  0  0  0  0  0
   -1.1897   -1.1364   -1.9121 C   0  0  0  0  0  0  0  0  0  0  0  0
   -2.0306   -1.8933   -1.5665 O   0  0  0  0  0  0  0  0  0  0  0  0
   -0.6343    0.0478   -1.2686 N   0  0  0  0  0  0  0  0  0  0  0  0
   -0.8285    0.0042    1.2150 C   0  0  0  0  0  0  0  0  0  0  0  0
   -0.4132    0.0104    2.3482 O   0  0  0  0  0  0  0  0  0  0  0  0
   -2.1505    0.0087    0.9146 O   0  0  0  0  0  0  0  0  0  0  0  0
   -3.0436   -0.0763    2.0254 C   0  0  0  0  0  0  0  0  0  0  0  0
   -3.1763   -1.5000    2.4732 C   0  0  0  0  0  0  0  0  0  0  0  0
   -3.3900   -1.7864    3.8238 C   0  0  0  0  0  0  0  0  0  0  0  0
   -3.5217   -3.1061    4.2414 C   0  0  0  0  0  0  0  0  0  0  0  0
   -3.4296   -4.1299    3.2942 C   0  0  0  0  0  0  0  0  0  0  0  0
   -3.2132   -3.8545    1.9407 C   0  0  0  0  0  0  0  0  0  0  0  0
   -3.0942   -2.5304    1.5346 C   0  0  0  0  0  0  0  0  0  0  0  0
   -3.5619   -5.5120    3.7256 N   0  0  0  0  0  0  0  0  0  0  0  0
   -3.4316   -6.3934    2.8908 O   0  0  0  0  0  0  0  0  0  0  0  0
   -3.7992   -5.7309    4.9034 O   0  0  0  0  0  0  0  0  0  0  0  0
    1.8291   -0.5773    2.0094 H   0  0  0  0  0  0  0  0  0  0  0  0
    2.4019    1.0237    1.5546 H   0  0  0  0  0  0  0  0  0  0  0  0
    3.2508   -0.4185    0.9627 H   0  0  0  0  0  0  0  0  0  0  0  0
   -0.8281   -0.6840   -4.0699 H   0  0  0  0  0  0  0  0  0  0  0  0
    0.3526   -1.8018   -3.3716 H   0  0  0  0  0  0  0  0  0  0  0  0
   -3.9875    0.3072    1.5804 H   0  0  0  0  0  0  0  0  0  0  0  0
   -2.7129    0.6050    2.8337 H   0  0  0  0  0  0  0  0  0  0  0  0
   -3.4420   -0.9802    4.5545 H   0  0  0  0  0  0  0  0  0  0  0  0
   -3.6907   -3.3432    5.2963 H   0  0  0  0  0  0  0  0  0  0  0  0
   -3.1420   -4.6696    1.2132 H   0  0  0  0  0  0  0  0  0  0  0  0
   -2.9336   -2.2932    0.4771 H   0  0  0  0  0  0  0  0  0  0  0  0
  1 11  1  0  0  0  0
  2  1  2  0  0  0  0
  2  3  1  0  0  0  0
  3 25  1  0  0  0  0
  3 24  1  0  0  0  0
  4  2  1  0  0  0  0
  5  6  1  6  0  0  0
  5  4  1  0  0  0  0
  5 10  1  0  0  0  0
  7  5  1  0  0  0  0
  7  8  1  0  0  0  0
  8  9  2  0  0  0  0
  8 10  1  0  0  0  0
 10  1  1  0  0  0  0
 11 12  2  0  0  0  0
 13 11  1  0  0  0  0
 13 14  1  0  0  0  0
 14 15  1  0  0  0  0
 14 30  1  0  0  0  0
 15 16  2  0  0  0  0
 16 17  1  0  0  0  0
 16 31  1  0  0  0  0
 17 32  1  0  0  0  0
 18 21  1  0  0  0  0
 18 17  2  0  0  0  0
 19 18  1  0  0  0  0
 20 19  2  0  0  0  0
 20 15  1  0  0  0  0
 21 23  2  0  0  0  0
 22 21  2  0  0  0  0
 26  3  1  0  0  0  0
 27  7  1  0  0  0  0
 28  7  1  0  0  0  0
 29 14  1  0  0  0  0
 33 19  1  0  0  0  0
 34 20  1  0  0  0  0
M  END
$$$$
