
     RDKit          3D

 34 36  0  0  0  0  0  0  0  0999 V2000
   -0.0475    0.0266    0.0213 C   0  0  0  0  0  0  0  0  0  0  0  0
    1.2956   -0.2011    0.0615 C   0  0  0  0  0  0  0  0  0  0  0  0
    2.1788   -0.3513    1.2539 C   0  0  0  0  0  0  0  0  0  0  0  0
    2.0371   -0.3290   -1.5496 S   0  0  0  0  0  0  0  0  0  0  0  0
    0.4568    0.2315   -2.3524 C   0  0  1  0  0  0  0  0  0  0  0  0
    0.5902    1.2563   -2.7303 H   0  0  0  0  0  0  0  0  0  0  0  0
   -0.3383   -0.7499   -3.2461 C   0  0  0  0  0  0  0  0  0  0  0  0
   -1.2460   -0.9314   -2.0124 C   0  0  0  0  0  0  0  0  0  0  0  0
   -2.1490   -1.6540   -1.7025 O   0  0  0  0  0  0  0  0  0  0  0  0
   -0.5552    0.0745   -1.3078 N   0  0  0  0  0  0  0  0  0  0  0  0
   -0.9489    0.1685    1.1780 C   0  0  0  0  0  0  0  0  0  0  0  0
   -0.6321    0.0670    2.3426 O   0  0  0  0  0  0  0  0  0  0  0  0
   -2.2103    0.4246    0.7711 O   0  0  0  0  0  0  0  0  0  0  0  0
   -3.2104    0.4480    1.7896 C   0  0  0  0  0  0  0  0  0  0  0  0
   -3.6299   -0.9389    2.2182 C   0  0  0  0  0  0  0  0  0  0  0  0
   -3.5785   -2.0126    1.3164 C   0  0  0  0  0  0  0  0  0  0  0  0
   -4.0026   -3.2802    1.7124 C   0  0  0  0  0  0  0  0  0  0  0  0
   -4.4828   -3.4584    3.0095 C   0  0  0  0  0  0  0  0  0  0  0  0
   -4.5444   -2.4070    3.9239 C   0  0  0  0  0  0  0  0  0  0  0  0
   -4.1097   -1.1472    3.5193 C   0  0  0  0  0  0  0  0  0  0  0  0
   -4.9333   -4.7984    3.4314 N   0  0  0  0  0  0  0  0  0  0  0  0
   -5.3541   -4.9202    4.5713 O   0  0  0  0  0  0  0  0  0  0  0  0
   -4.8589   -5.7030    2.6154 O   0  0  0  0  0  0  0  0  0  0  0  0
    1.5829   -0.3150    2.1726 H   0  0  0  0  0  0  0  0  0  0  0  0
    2.9404    0.4453    1.2751 H   0  0  0  0  0  0  0  0  0  0  0  0
    2.7169   -1.3124    1.2028 H   0  0  0  0  0  0  0  0  0  0  0  0
   -0.8197   -0.3071   -4.1306 H   0  0  0  0  0  0  0  0  0  0  0  0
    0.1907   -1.6710   -3.5247 H   0  0  0  0  0  0  0  0  0  0  0  0
   -4.0586    0.9801    1.3327 H   0  0  0  0  0  0  0  0  0  0  0  0
   -2.8517    1.0221    2.6559 H   0  0  0  0  0  0  0  0  0  0  0  0
   -3.1951   -1.8608    0.3052 H   0  0  0  0  0  0  0  0  0  0  0  0
   -3.9694   -4.1313    1.0334 H   0  0  0  0  0  0  0  0  0  0  0  0
   -4.9176   -2.5948    4.9297 H   0  0  0  0  0  0  0  0  0  0  0  0
   -4.1345   -0.3164    4.2289 H   0  0  0  0  0  0  0  0  0  0  0  0
  1  2  2  0
  1 10  1  0
  1 11  1  0
  2  3  1  0
  2  4  1  0
  3 24  1  0
  3 25  1  0
  3 26  1  0
  4  5  1  0
  5  6  1  6
  5  7  1  0
  5 10  1  0
  7  8  1  0
  7 27  1  0
  7 28  1  0
  8  9  2  0
  8 10  1  0
 11 12  2  0
 11 13  1  0
 13 14  1  0
 14 15  1  0
 14 29  1  0
 14 30  1  0
 15 16  2  0
 15 20  1  0
 16 17  1  0
 16 31  1  0
 17 18  2  0
 17 32  1  0
 18 19  1  0
 18 21  1  0
 19 20  2  0
 19 33  1  0
 20 34  1  0
 21 22  1  0
 21 23  2  0
M  CHG  2  21   1  22  -1
M  END

