rmsd36.gzmat
 OpenBabel08211713403D

 34 36  0  0  1  0  0  0  0  0999 V2000
    0.0000    0.0000    0.0000 C   0  0  0  0  0  0  0  0  0  0  0  0
    1.3549    0.0000    0.0000 C   0  0  0  0  0  0  0  0  0  0  0  0
    2.2753    0.0000    1.1402 C   0  0  0  0  0  0  0  0  0  0  0  0
    2.0322    0.0275   -1.6571 S   0  0  0  0  0  0  0  0  0  0  0  0
    0.3520    0.2287   -2.4041 C   0  0  1  0  0  0  0  0  0  0  0  0
    0.2500    1.2104   -2.8978 H   0  0  0  0  0  0  0  0  0  0  0  0
   -0.2902   -0.9727   -3.1421 C   0  0  0  0  0  0  0  0  0  0  0  0
   -1.1888   -1.1510   -1.9041 C   0  0  0  0  0  0  0  0  0  0  0  0
   -2.0315   -1.9025   -1.5508 O   0  0  0  0  0  0  0  0  0  0  0  0
   -0.6316    0.0382   -1.2718 N   0  0  0  0  0  0  0  0  0  0  0  0
   -0.8478    0.0191    1.2035 C   0  0  0  0  0  0  0  0  0  0  0  0
   -0.4573    0.0166    2.3453 O   0  0  0  0  0  0  0  0  0  0  0  0
   -2.1635    0.0574    0.8776 O   0  0  0  0  0  0  0  0  0  0  0  0
   -3.0840    0.0275    1.9691 C   0  0  0  0  0  0  0  0  0  0  0  0
   -3.3104   -1.3848    2.4152 C   0  0  0  0  0  0  0  0  0  0  0  0
   -3.3199   -2.4131    1.4705 C   0  0  0  0  0  0  0  0  0  0  0  0
   -3.5319   -3.7275    1.8719 C   0  0  0  0  0  0  0  0  0  0  0  0
   -3.7443   -3.9944    3.2277 C   0  0  0  0  0  0  0  0  0  0  0  0
   -3.7433   -2.9720    4.1817 C   0  0  0  0  0  0  0  0  0  0  0  0
   -3.5236   -1.6629    3.7680 C   0  0  0  0  0  0  0  0  0  0  0  0
   -3.9690   -5.3644    3.6602 N   0  0  0  0  0  0  0  0  0  0  0  0
   -4.1655   -5.5693    4.8481 O   0  0  0  0  0  0  0  0  0  0  0  0
   -3.9515   -6.2494    2.8194 O   0  0  0  0  0  0  0  0  0  0  0  0
    1.7473   -0.1193    2.1104 H   0  0  0  0  0  0  0  0  0  0  0  0
    2.8437    0.9438    1.2220 H   0  0  0  0  0  0  0  0  0  0  0  0
    3.0136   -0.8199    1.0968 H   0  0  0  0  0  0  0  0  0  0  0  0
   -0.8242   -0.7261   -4.0672 H   0  0  0  0  0  0  0  0  0  0  0  0
    0.3547   -1.8344   -3.3520 H   0  0  0  0  0  0  0  0  0  0  0  0
   -3.9947    0.4626    1.5017 H   0  0  0  0  0  0  0  0  0  0  0  0
   -2.7355    0.6928    2.7829 H   0  0  0  0  0  0  0  0  0  0  0  0
   -3.1555   -2.1827    0.4123 H   0  0  0  0  0  0  0  0  0  0  0  0
   -3.5348   -4.5398    1.1381 H   0  0  0  0  0  0  0  0  0  0  0  0
   -3.9085   -3.2041    5.2386 H   0  0  0  0  0  0  0  0  0  0  0  0
   -3.5080   -0.8592    4.5034 H   0  0  0  0  0  0  0  0  0  0  0  0
  1  2  2  0  0  0  0
  1 11  1  0  0  0  0
  2  3  1  0  0  0  0
  3 25  1  0  0  0  0
  3 24  1  0  0  0  0
  4  2  1  0  0  0  0
  5  6  1  6  0  0  0
  5  4  1  0  0  0  0
  5 10  1  0  0  0  0
  7  5  1  0  0  0  0
  7  8  1  0  0  0  0
  8  9  2  0  0  0  0
  8 10  1  0  0  0  0
 10  1  1  0  0  0  0
 11 12  2  0  0  0  0
 13 11  1  0  0  0  0
 13 14  1  0  0  0  0
 14 15  1  0  0  0  0
 14 30  1  0  0  0  0
 15 20  2  0  0  0  0
 16 17  2  0  0  0  0
 16 15  1  0  0  0  0
 17 18  1  0  0  0  0
 18 21  1  0  0  0  0
 18 19  2  0  0  0  0
 19 33  1  0  0  0  0
 20 19  1  0  0  0  0
 20 34  1  0  0  0  0
 21 22  2  0  0  0  0
 23 21  2  0  0  0  0
 26  3  1  0  0  0  0
 27  7  1  0  0  0  0
 28  7  1  0  0  0  0
 29 14  1  0  0  0  0
 31 16  1  0  0  0  0
 32 17  1  0  0  0  0
M  END
$$$$
