34
rmsd180.gzmat
C          0.00000        0.00000        0.00000
C          1.35550        0.00000        0.00000
C          2.26000        0.00000        1.15310
S          2.03220       -0.02020       -1.65390
C          0.35200        0.15710       -2.40700
H          0.25210        1.12060       -2.93650
C         -0.29170       -1.06840       -3.10250
C         -1.20260       -1.19260       -1.86660
O         -2.06120       -1.91850       -1.49950
N         -0.63480        0.01090       -1.26980
C         -0.83480        0.02390        1.21080
O         -0.42780        0.10100        2.34470
O         -2.15360       -0.05520        0.90700
C         -3.04090       -0.20280        2.01830
C         -3.06740       -1.64340        2.43180
C         -2.95450       -1.99310        3.77870
C         -2.96010       -3.33340        4.15030
C         -3.07860       -4.31200        3.15950
C         -3.19320       -3.97340        1.80830
C         -3.19020       -2.62990        1.45030
N         -3.07790       -5.71420        3.54620
O         -3.25110       -6.55510        2.67850
O         -2.90340       -5.98880        4.72350
H          1.80190        0.48560        2.04150
H          3.21650        0.51610        0.97810
H          2.50110       -1.03060        1.47860
H         -0.81540       -0.85580       -4.04170
H          0.34950       -1.94250       -3.27000
H         -4.00720        0.12700        1.58070
H         -2.75340        0.48640        2.83560
H         -2.84410       -1.22050        4.53940
H         -2.86490       -3.62100        5.20160
H         -3.28320       -4.75310        1.04520
H         -3.27080       -2.34180        0.39660
