rmsd225.gzmat
 OpenBabel08211713403D

 34 36  0  0  1  0  0  0  0  0999 V2000
    0.0000    0.0000    0.0000 C   0  0  0  0  0  0  0  0  0  0  0  0
    1.3547    0.0000    0.0000 C   0  0  0  0  0  0  0  0  0  0  0  0
    2.2744    0.0000    1.1411 C   0  0  0  0  0  0  0  0  0  0  0  0
    2.0322    0.0263   -1.6566 S   0  0  0  0  0  0  0  0  0  0  0  0
    0.3503    0.2042   -2.4058 C   0  0  1  0  0  0  0  0  0  0  0  0
    0.2403    1.1770   -2.9152 H   0  0  0  0  0  0  0  0  0  0  0  0
   -0.2797   -1.0154   -3.1252 C   0  0  0  0  0  0  0  0  0  0  0  0
   -1.1806   -1.1797   -1.8884 C   0  0  0  0  0  0  0  0  0  0  0  0
   -2.0251   -1.9234   -1.5230 O   0  0  0  0  0  0  0  0  0  0  0  0
   -0.6329    0.0228   -1.2709 N   0  0  0  0  0  0  0  0  0  0  0  0
   -0.8440    0.0274    1.2069 C   0  0  0  0  0  0  0  0  0  0  0  0
   -0.4828   -0.2359    2.3275 O   0  0  0  0  0  0  0  0  0  0  0  0
   -2.1052    0.4323    0.9164 O   0  0  0  0  0  0  0  0  0  0  0  0
   -3.0244    0.4600    2.0097 C   0  0  0  0  0  0  0  0  0  0  0  0
   -3.6544   -0.8873    2.1878 C   0  0  0  0  0  0  0  0  0  0  0  0
   -3.8649   -1.7062    1.0773 C   0  0  0  0  0  0  0  0  0  0  0  0
   -4.4507   -2.9578    1.2336 C   0  0  0  0  0  0  0  0  0  0  0  0
   -4.8376   -3.3679    2.5123 C   0  0  0  0  0  0  0  0  0  0  0  0
   -4.6376   -2.5535    3.6311 C   0  0  0  0  0  0  0  0  0  0  0  0
   -4.0402   -1.3095    3.4629 C   0  0  0  0  0  0  0  0  0  0  0  0
   -5.4621   -4.6692    2.6856 N   0  0  0  0  0  0  0  0  0  0  0  0
   -5.8027   -5.0014    3.8107 O   0  0  0  0  0  0  0  0  0  0  0  0
   -5.6237   -5.3714    1.7002 O   0  0  0  0  0  0  0  0  0  0  0  0
    1.7440   -0.0979    2.1120 H   0  0  0  0  0  0  0  0  0  0  0  0
    2.8680    0.9286    1.2078 H   0  0  0  0  0  0  0  0  0  0  0  0
    2.9918   -0.8395    1.1093 H   0  0  0  0  0  0  0  0  0  0  0  0
   -0.8125   -0.7896   -4.0566 H   0  0  0  0  0  0  0  0  0  0  0  0
    0.3749   -1.8740   -3.3184 H   0  0  0  0  0  0  0  0  0  0  0  0
   -3.7615    1.2164    1.6624 H   0  0  0  0  0  0  0  0  0  0  0  0
   -2.5238    0.8297    2.9265 H   0  0  0  0  0  0  0  0  0  0  0  0
   -3.5593   -1.3671    0.0821 H   0  0  0  0  0  0  0  0  0  0  0  0
   -4.6054   -3.6111    0.3682 H   0  0  0  0  0  0  0  0  0  0  0  0
   -4.9432   -2.8963    4.6244 H   0  0  0  0  0  0  0  0  0  0  0  0
   -3.8652   -0.6727    4.3293 H   0  0  0  0  0  0  0  0  0  0  0  0
  1 11  1  0  0  0  0
  2  1  2  0  0  0  0
  2  3  1  0  0  0  0
  3 25  1  0  0  0  0
  3 24  1  0  0  0  0
  4  2  1  0  0  0  0
  5  6  1  6  0  0  0
  5  4  1  0  0  0  0
  5 10  1  0  0  0  0
  7  5  1  0  0  0  0
  7  8  1  0  0  0  0
  8  9  2  0  0  0  0
  8 10  1  0  0  0  0
 10  1  1  0  0  0  0
 11 12  2  0  0  0  0
 13 11  1  0  0  0  0
 13 14  1  0  0  0  0
 14 15  1  0  0  0  0
 14 30  1  0  0  0  0
 15 20  2  0  0  0  0
 16 17  2  0  0  0  0
 16 15  1  0  0  0  0
 17 18  1  0  0  0  0
 18 21  1  0  0  0  0
 18 19  2  0  0  0  0
 19 33  1  0  0  0  0
 20 19  1  0  0  0  0
 20 34  1  0  0  0  0
 21 22  2  0  0  0  0
 23 21  2  0  0  0  0
 26  3  1  0  0  0  0
 27  7  1  0  0  0  0
 28  7  1  0  0  0  0
 29 14  1  0  0  0  0
 31 16  1  0  0  0  0
 32 17  1  0  0  0  0
M  END
$$$$
