39
rmsd1.gzmat
N          0.00000        0.00000        0.00000
C          1.39590        0.00000        0.00000
N          1.84780        0.00000        1.26410
C          0.73940        0.00900        2.09840
C         -0.42350        0.01390        1.32710
C         -0.88060        0.04760       -1.15080
C         -1.60180        1.42170       -1.21490
H         -0.96770        2.21850       -0.75030
C         -1.97250        1.78040       -2.62580
C         -2.92430        1.08900       -3.36990
C         -3.30450        1.48380       -4.64890
C         -2.68370        2.60630       -5.17860
C         -1.69990        3.30990       -4.49280
C         -1.34980        2.88850       -3.21270
Cl        -3.16020        3.14610       -6.72380
Cl        -3.70040       -0.28660       -2.73210
O         -2.72390        1.21940       -0.37280
C         -3.57870        2.34150       -0.20410
C         -4.80130        2.09810       -1.03930
C         -5.13450        2.85320       -2.15870
C         -6.22250        2.55180       -2.97010
C         -6.97750        1.43860       -2.62480
C         -6.69570        0.65590       -1.51110
C         -5.60340        0.99660       -0.71730
Cl        -8.29490        1.01030       -3.62120
Cl        -4.16780        4.18640       -2.61360
H          1.99840       -0.01440       -0.88910
H          0.85440        0.01090        3.16410
H         -1.45840        0.03080        1.60060
H         -1.64090       -0.77190       -1.06810
H         -0.30690       -0.13420       -2.08720
H         -4.06720        0.93610       -5.20780
H         -1.21870        4.18280       -4.93620
H         -0.58870        3.44210       -2.65830
H         -3.06460        3.29420       -0.41250
H         -3.81330        2.30980        0.88250
H         -6.46620        3.15700       -3.84610
H         -7.30520       -0.21450       -1.26460
H         -5.34600        0.38480        0.15100
