39
rmsd4.gzmat
N          0.00000        0.00000        0.00000
C          1.39690        0.00000        0.00000
N          1.85020        0.00000        1.26310
C          0.74150        0.03400        2.09790
C         -0.42260        0.04470        1.32940
C         -0.85250        0.10030       -1.16340
C         -0.95440        1.54960       -1.72580
H         -1.55370        1.51750       -2.67200
C         -1.58710        2.49450       -0.74140
C         -0.89660        3.17040        0.26070
C         -1.51620        4.10390        1.09050
C         -2.86720        4.33930        0.89210
C         -3.61280        3.65220       -0.05960
C         -2.96370        2.72570       -0.86860
Cl        -3.63570        5.53040        1.84030
Cl         0.76090        2.92210        0.52950
O          0.38360        1.88030       -2.04290
C          0.55750        2.90190       -3.01190
C          0.31800        4.24990       -2.40190
C         -0.89950        4.91720       -2.50040
C         -1.16830        6.09910       -1.82150
C         -0.15640        6.60430       -1.01490
C          1.09560        6.00810       -0.92140
C          1.32940        4.83030       -1.62840
Cl        -0.47940        7.99490       -0.08360
Cl        -2.16010        4.25870       -3.45060
H          1.99220        0.00440       -0.89490
H          0.85730        0.04820        3.16350
H         -1.45030        0.07130        1.61440
H         -1.87810       -0.26310       -0.91930
H         -0.44800       -0.56360       -1.96730
H         -0.95230        4.63440        1.86260
H         -4.68020        3.83800       -0.18130
H         -3.53640        2.18590       -1.62520
H         -0.05260        2.70320       -3.91100
H          1.62670        2.75330       -3.28350
H         -2.13550        6.59830       -1.90380
H          1.88040        6.43810       -0.29620
H          2.30290        4.33740       -1.55350
