rmsd1.gzmat
 OpenBabel08211713403D

 39 41  0  0  1  0  0  0  0  0999 V2000
    0.0000    0.0000    0.0000 N   0  0  0  0  0  0  0  0  0  0  0  0
    1.3959    0.0000    0.0000 C   0  0  0  0  0  0  0  0  0  0  0  0
    1.8478    0.0000    1.2641 N   0  0  0  0  0  0  0  0  0  0  0  0
    0.7394    0.0090    2.0984 C   0  0  0  0  0  0  0  0  0  0  0  0
   -0.4235    0.0139    1.3271 C   0  0  0  0  0  0  0  0  0  0  0  0
   -0.8806    0.0476   -1.1508 C   0  0  0  0  0  0  0  0  0  0  0  0
   -1.6018    1.4217   -1.2149 C   0  0  1  0  0  0  0  0  0  0  0  0
   -0.9677    2.2185   -0.7503 H   0  0  0  0  0  0  0  0  0  0  0  0
   -1.9725    1.7804   -2.6258 C   0  0  0  0  0  0  0  0  0  0  0  0
   -2.9243    1.0890   -3.3699 C   0  0  0  0  0  0  0  0  0  0  0  0
   -3.3045    1.4838   -4.6489 C   0  0  0  0  0  0  0  0  0  0  0  0
   -2.6837    2.6063   -5.1786 C   0  0  0  0  0  0  0  0  0  0  0  0
   -1.6999    3.3099   -4.4928 C   0  0  0  0  0  0  0  0  0  0  0  0
   -1.3498    2.8885   -3.2127 C   0  0  0  0  0  0  0  0  0  0  0  0
   -3.1602    3.1461   -6.7238 Cl  0  0  0  0  0  0  0  0  0  0  0  0
   -3.7004   -0.2866   -2.7321 Cl  0  0  0  0  0  0  0  0  0  0  0  0
   -2.7239    1.2194   -0.3728 O   0  0  0  0  0  0  0  0  0  0  0  0
   -3.5787    2.3415   -0.2041 C   0  0  0  0  0  0  0  0  0  0  0  0
   -4.8013    2.0981   -1.0393 C   0  0  0  0  0  0  0  0  0  0  0  0
   -5.1345    2.8532   -2.1587 C   0  0  0  0  0  0  0  0  0  0  0  0
   -6.2225    2.5518   -2.9701 C   0  0  0  0  0  0  0  0  0  0  0  0
   -6.9775    1.4386   -2.6248 C   0  0  0  0  0  0  0  0  0  0  0  0
   -6.6957    0.6559   -1.5111 C   0  0  0  0  0  0  0  0  0  0  0  0
   -5.6034    0.9966   -0.7173 C   0  0  0  0  0  0  0  0  0  0  0  0
   -8.2949    1.0103   -3.6212 Cl  0  0  0  0  0  0  0  0  0  0  0  0
   -4.1678    4.1864   -2.6136 Cl  0  0  0  0  0  0  0  0  0  0  0  0
    1.9984   -0.0144   -0.8891 H   0  0  0  0  0  0  0  0  0  0  0  0
    0.8544    0.0109    3.1641 H   0  0  0  0  0  0  0  0  0  0  0  0
   -1.4584    0.0308    1.6006 H   0  0  0  0  0  0  0  0  0  0  0  0
   -1.6409   -0.7719   -1.0681 H   0  0  0  0  0  0  0  0  0  0  0  0
   -0.3069   -0.1342   -2.0872 H   0  0  0  0  0  0  0  0  0  0  0  0
   -4.0672    0.9361   -5.2078 H   0  0  0  0  0  0  0  0  0  0  0  0
   -1.2187    4.1828   -4.9362 H   0  0  0  0  0  0  0  0  0  0  0  0
   -0.5887    3.4421   -2.6583 H   0  0  0  0  0  0  0  0  0  0  0  0
   -3.0646    3.2942   -0.4125 H   0  0  0  0  0  0  0  0  0  0  0  0
   -3.8133    2.3098    0.8825 H   0  0  0  0  0  0  0  0  0  0  0  0
   -6.4662    3.1570   -3.8461 H   0  0  0  0  0  0  0  0  0  0  0  0
   -7.3052   -0.2145   -1.2646 H   0  0  0  0  0  0  0  0  0  0  0  0
   -5.3460    0.3848    0.1510 H   0  0  0  0  0  0  0  0  0  0  0  0
  1  2  1  0  0  0  0
  1  5  1  0  0  0  0
  2  3  2  0  0  0  0
  3  4  2  0  0  0  0
  4 28  1  0  0  0  0
  5 29  1  0  0  0  0
  5  4  1  0  0  0  0
  6 30  1  0  0  0  0
  6  1  1  0  0  0  0
  7  6  1  0  0  0  0
  7  8  1  1  0  0  0
  7 17  1  0  0  0  0
  9  7  1  0  0  0  0
 10 16  1  0  0  0  0
 10  9  2  0  0  0  0
 11 10  1  0  0  0  0
 12 11  2  0  0  0  0
 12 13  1  0  0  0  0
 13 14  2  0  0  0  0
 14 34  1  0  0  0  0
 14  9  1  0  0  0  0
 15 12  1  0  0  0  0
 17 18  1  0  0  0  0
 18 36  1  0  0  0  0
 19 24  1  0  0  0  0
 19 18  1  0  0  0  0
 20 19  2  0  0  0  0
 21 22  2  0  0  0  0
 21 20  1  0  0  0  0
 22 23  1  0  0  0  0
 23 38  1  0  0  0  0
 23 24  2  0  0  0  0
 24 39  1  0  0  0  0
 25 22  1  0  0  0  0
 26 20  1  0  0  0  0
 27  2  1  0  0  0  0
 31  6  1  0  0  0  0
 32 11  1  0  0  0  0
 33 13  1  0  0  0  0
 35 18  1  0  0  0  0
 37 21  1  0  0  0  0
M  RAD  1   5   2
M  END
$$$$
