rmsd25.gzmat
 OpenBabel08211713403D

 39 41  0  0  1  0  0  0  0  0999 V2000
    0.0000    0.0000    0.0000 N   0  0  0  0  0  0  0  0  0  0  0  0
    1.3952    0.0000    0.0000 C   0  0  0  0  0  0  0  0  0  0  0  0
    1.8482    0.0000    1.2639 N   0  0  0  0  0  0  0  0  0  0  0  0
    0.7396   -0.0019    2.0972 C   0  0  0  0  0  0  0  0  0  0  0  0
   -0.4247   -0.0076    1.3266 C   0  0  0  0  0  0  0  0  0  0  0  0
   -0.8484   -0.0353   -1.1750 C   0  0  0  0  0  0  0  0  0  0  0  0
   -0.5780   -1.3325   -1.9843 C   0  0  1  0  0  0  0  0  0  0  0  0
   -0.2752   -2.1677   -1.3050 H   0  0  0  0  0  0  0  0  0  0  0  0
   -1.7751   -1.7138   -2.8085 C   0  0  0  0  0  0  0  0  0  0  0  0
   -2.1890   -0.9983   -3.9289 C   0  0  0  0  0  0  0  0  0  0  0  0
   -3.2233   -1.4326   -4.7515 C   0  0  0  0  0  0  0  0  0  0  0  0
   -3.8520   -2.6213   -4.4066 C   0  0  0  0  0  0  0  0  0  0  0  0
   -3.5207   -3.3379   -3.2624 C   0  0  0  0  0  0  0  0  0  0  0  0
   -2.4813   -2.8714   -2.4615 C   0  0  0  0  0  0  0  0  0  0  0  0
   -5.0582   -3.2315   -5.4433 Cl  0  0  0  0  0  0  0  0  0  0  0  0
   -1.4140    0.4531   -4.3675 Cl  0  0  0  0  0  0  0  0  0  0  0  0
    0.5375   -0.9684   -2.7814 O   0  0  0  0  0  0  0  0  0  0  0  0
    1.2058   -2.0306   -3.4408 C   0  0  0  0  0  0  0  0  0  0  0  0
    0.5056   -2.3345   -4.7319 C   0  0  0  0  0  0  0  0  0  0  0  0
   -0.2660   -3.4753   -4.9310 C   0  0  0  0  0  0  0  0  0  0  0  0
   -1.0054   -3.6898   -6.0881 C   0  0  0  0  0  0  0  0  0  0  0  0
   -0.9567   -2.6988   -7.0597 C   0  0  0  0  0  0  0  0  0  0  0  0
   -0.1716   -1.5591   -6.9292 C   0  0  0  0  0  0  0  0  0  0  0  0
    0.5676   -1.3878   -5.7612 C   0  0  0  0  0  0  0  0  0  0  0  0
   -1.9228   -2.8793   -8.4518 Cl  0  0  0  0  0  0  0  0  0  0  0  0
   -0.3730   -4.6577   -3.7037 Cl  0  0  0  0  0  0  0  0  0  0  0  0
    1.9891   -0.0008   -0.8983 H   0  0  0  0  0  0  0  0  0  0  0  0
    0.8533    0.0028    3.1632 H   0  0  0  0  0  0  0  0  0  0  0  0
   -1.4527   -0.0068    1.6128 H   0  0  0  0  0  0  0  0  0  0  0  0
   -0.6301    0.8593   -1.8134 H   0  0  0  0  0  0  0  0  0  0  0  0
   -1.9220    0.0264   -0.8879 H   0  0  0  0  0  0  0  0  0  0  0  0
   -3.5187   -0.8696   -5.6400 H   0  0  0  0  0  0  0  0  0  0  0  0
   -4.0484   -4.2560   -2.9988 H   0  0  0  0  0  0  0  0  0  0  0  0
   -2.2044   -3.4309   -1.5643 H   0  0  0  0  0  0  0  0  0  0  0  0
    1.3298   -2.9013   -2.7738 H   0  0  0  0  0  0  0  0  0  0  0  0
    2.2117   -1.5865   -3.6130 H   0  0  0  0  0  0  0  0  0  0  0  0
   -1.6109   -4.5891   -6.2214 H   0  0  0  0  0  0  0  0  0  0  0  0
   -0.1395   -0.8032   -7.7153 H   0  0  0  0  0  0  0  0  0  0  0  0
    1.1806   -0.4918   -5.6316 H   0  0  0  0  0  0  0  0  0  0  0  0
  1  5  1  0  0  0  0
  2  1  1  0  0  0  0
  2  3  2  0  0  0  0
  3  4  2  0  0  0  0
  4 28  1  0  0  0  0
  5 29  1  0  0  0  0
  5  4  1  0  0  0  0
  6 31  1  0  0  0  0
  6  1  1  0  0  0  0
  7  8  1  1  0  0  0
  7  6  1  0  0  0  0
  9 14  1  0  0  0  0
  9  7  1  0  0  0  0
 10  9  2  0  0  0  0
 11 12  2  0  0  0  0
 11 10  1  0  0  0  0
 12 13  1  0  0  0  0
 13 33  1  0  0  0  0
 13 14  2  0  0  0  0
 14 34  1  0  0  0  0
 15 12  1  0  0  0  0
 16 10  1  0  0  0  0
 17  7  1  0  0  0  0
 18 17  1  0  0  0  0
 18 35  1  0  0  0  0
 19 18  1  0  0  0  0
 20 19  1  0  0  0  0
 20 26  1  0  0  0  0
 21 20  2  0  0  0  0
 22 23  2  0  0  0  0
 22 21  1  0  0  0  0
 23 24  1  0  0  0  0
 24 39  1  0  0  0  0
 24 19  2  0  0  0  0
 25 22  1  0  0  0  0
 27  2  1  0  0  0  0
 30  6  1  0  0  0  0
 32 11  1  0  0  0  0
 36 18  1  0  0  0  0
 37 21  1  0  0  0  0
 38 23  1  0  0  0  0
M  RAD  1   5   2
M  END
$$$$
