39

N          0.00810        0.10400        0.03820
C          1.37970        0.13860        0.01180
N          1.88810        0.35940        1.20140
C          0.81030        0.46660        2.04800
C         -0.36670        0.30990        1.35040
C         -0.87080       -0.13730       -1.08130
C         -1.37700       -1.58090       -1.23270
H         -2.03800       -1.55750       -2.12000
C         -0.27830       -2.58770       -1.56730
C          0.54130       -3.25560       -0.63900
C          1.44700       -4.24160       -1.04420
C          1.57270       -4.54740       -2.39750
C          0.82500       -3.85860       -3.35390
C         -0.08440       -2.89750       -2.92240
Cl         2.66450       -5.81330       -2.89220
Cl         0.47430       -2.92760        1.07080
O         -2.15090       -1.88900       -0.09430
C         -3.15180       -2.88690       -0.25820
C         -2.57810       -4.27190       -0.45790
C         -2.44580       -4.88160       -1.71530
C         -1.71520       -6.05590       -1.89770
C         -1.11380       -6.64930       -0.78770
C         -1.28360       -6.11670        0.49220
C         -2.01190       -4.93970        0.63760
Cl        -0.11840       -8.06120       -1.01520
Cl        -3.17180       -4.16190       -3.14250
H          1.93610       -0.00040       -0.91580
H          0.93500        0.65220        3.11430
H         -1.41030        0.29490        1.65010
H         -0.33960        0.14040       -2.00320
H         -1.75040        0.51740       -0.98750
H          2.04160       -4.76850       -0.29960
H          0.93540       -4.09500       -4.41240
H         -0.70720       -2.39530       -3.66590
H         -3.82130       -2.62170       -1.09310
H         -3.73340       -2.85760        0.67390
H         -1.59500       -6.48440       -2.89140
H         -0.82050       -6.60200        1.35140
H         -2.10660       -4.48990        1.62740
