
     RDKit          3D

 39 41  0  0  0  0  0  0  0  0999 V2000
   -0.0123   -0.1278    0.0229 N   0  0  0  0  0  0  0  0  0  0  0  0
    1.3404   -0.3440    0.0674 C   0  0  0  0  0  0  0  0  0  0  0  0
    1.7701   -0.5131    1.2967 N   0  0  0  0  0  0  0  0  0  0  0  0
    0.6587   -0.3946    2.0964 C   0  0  0  0  0  0  0  0  0  0  0  0
   -0.4597   -0.1530    1.3302 C   0  0  0  0  0  0  0  0  0  0  0  0
   -0.8019    0.1388   -1.1561 C   0  0  0  0  0  0  0  0  0  0  0  0
   -0.8064    1.5992   -1.6357 C   0  0  1  0  0  0  0  0  0  0  0  0
   -1.4847    1.6095   -2.5100 H   0  0  0  0  0  0  0  0  0  0  0  0
   -1.4114    2.5778   -0.6318 C   0  0  0  0  0  0  0  0  0  0  0  0
   -0.7212    3.2187    0.4138 C   0  0  0  0  0  0  0  0  0  0  0  0
   -1.3440    4.1847    1.2112 C   0  0  0  0  0  0  0  0  0  0  0  0
   -2.6848    4.4962    0.9968 C   0  0  0  0  0  0  0  0  0  0  0  0
   -3.4197    3.8329    0.0129 C   0  0  0  0  0  0  0  0  0  0  0  0
   -2.7710    2.8921   -0.7817 C   0  0  0  0  0  0  0  0  0  0  0  0
   -3.4407    5.7376    1.9598 Cl  0  0  0  0  0  0  0  0  0  0  0  0
    0.9490    2.8829    0.7785 Cl  0  0  0  0  0  0  0  0  0  0  0  0
    0.4994    1.9139   -2.0667 O   0  0  0  0  0  0  0  0  0  0  0  0
    0.6143    2.9363   -3.0498 C   0  0  0  0  0  0  0  0  0  0  0  0
    0.2681    4.3093   -2.5184 C   0  0  0  0  0  0  0  0  0  0  0  0
   -0.9823    4.9194   -2.7053 C   0  0  0  0  0  0  0  0  0  0  0  0
   -1.3530    6.0775   -2.0217 C   0  0  0  0  0  0  0  0  0  0  0  0
   -0.4403    6.6545   -1.1386 C   0  0  0  0  0  0  0  0  0  0  0  0
    0.8415    6.1230   -0.9810 C   0  0  0  0  0  0  0  0  0  0  0  0
    1.1758    4.9619   -1.6718 C   0  0  0  0  0  0  0  0  0  0  0  0
   -0.9245    8.0444   -0.2058 Cl  0  0  0  0  0  0  0  0  0  0  0  0
   -2.1681    4.2208   -3.7954 Cl  0  0  0  0  0  0  0  0  0  0  0  0
    1.9438   -0.3483   -0.8397 H   0  0  0  0  0  0  0  0  0  0  0  0
    0.7172   -0.4919    3.1798 H   0  0  0  0  0  0  0  0  0  0  0  0
   -1.5059    0.0039    1.5796 H   0  0  0  0  0  0  0  0  0  0  0  0
   -1.8391   -0.1672   -0.9574 H   0  0  0  0  0  0  0  0  0  0  0  0
   -0.4196   -0.4780   -1.9832 H   0  0  0  0  0  0  0  0  0  0  0  0
   -0.7749    4.6925    1.9885 H   0  0  0  0  0  0  0  0  0  0  0  0
   -4.4713    4.0739   -0.1436 H   0  0  0  0  0  0  0  0  0  0  0  0
   -3.3312    2.4110   -1.5863 H   0  0  0  0  0  0  0  0  0  0  0  0
   -0.0081    2.6930   -3.9268 H   0  0  0  0  0  0  0  0  0  0  0  0
    1.6691    2.9133   -3.3572 H   0  0  0  0  0  0  0  0  0  0  0  0
   -2.3449    6.5060   -2.1558 H   0  0  0  0  0  0  0  0  0  0  0  0
    1.5490    6.5961   -0.2998 H   0  0  0  0  0  0  0  0  0  0  0  0
    2.1578    4.5123   -1.5155 H   0  0  0  0  0  0  0  0  0  0  0  0
  1  2  1  0
  1  5  1  0
  1  6  1  0
  2  3  2  0
  2 27  1  0
  3  4  1  0
  4  5  2  0
  4 28  1  0
  5 29  1  0
  6  7  1  0
  6 30  1  0
  6 31  1  0
  7  8  1  6
  7  9  1  0
  7 17  1  0
  9 10  2  0
  9 14  1  0
 10 11  1  0
 10 16  1  0
 11 12  2  0
 11 32  1  0
 12 13  1  0
 12 15  1  0
 13 14  2  0
 13 33  1  0
 14 34  1  0
 17 18  1  0
 18 19  1  0
 18 35  1  0
 18 36  1  0
 19 20  2  0
 19 24  1  0
 20 21  1  0
 20 26  1  0
 21 22  2  0
 21 37  1  0
 22 23  1  0
 22 25  1  0
 23 24  2  0
 23 38  1  0
 24 39  1  0
M  END

