
     RDKit          3D

 39 41  0  0  0  0  0  0  0  0999 V2000
   -0.0218    0.0193    0.0167 N   0  0  0  0  0  0  0  0  0  0  0  0
    1.1789    0.6170   -0.2636 C   0  0  0  0  0  0  0  0  0  0  0  0
    2.0238    0.5182    0.7376 N   0  0  0  0  0  0  0  0  0  0  0  0
    1.3583   -0.1832    1.7141 C   0  0  0  0  0  0  0  0  0  0  0  0
    0.0891   -0.5096    1.2890 C   0  0  0  0  0  0  0  0  0  0  0  0
   -1.1297   -0.1528   -0.8968 C   0  0  0  0  0  0  0  0  0  0  0  0
   -0.9480   -1.3800   -1.8013 C   0  0  1  0  0  0  0  0  0  0  0  0
   -0.7706   -2.2521   -1.1438 H   0  0  0  0  0  0  0  0  0  0  0  0
   -2.1933   -1.6939   -2.6202 C   0  0  0  0  0  0  0  0  0  0  0  0
   -2.6327   -0.9344   -3.7190 C   0  0  0  0  0  0  0  0  0  0  0  0
   -3.7011   -1.3461   -4.5167 C   0  0  0  0  0  0  0  0  0  0  0  0
   -4.3766   -2.5236   -4.1935 C   0  0  0  0  0  0  0  0  0  0  0  0
   -4.0204   -3.2638   -3.0661 C   0  0  0  0  0  0  0  0  0  0  0  0
   -2.9362   -2.8386   -2.3016 C   0  0  0  0  0  0  0  0  0  0  0  0
   -5.6621   -3.0802   -5.2300 Cl  0  0  0  0  0  0  0  0  0  0  0  0
   -1.8445    0.5625   -4.1701 Cl  0  0  0  0  0  0  0  0  0  0  0  0
    0.2094   -1.1447   -2.5749 O   0  0  0  0  0  0  0  0  0  0  0  0
    0.8039   -2.2763   -3.1940 C   0  0  0  0  0  0  0  0  0  0  0  0
    0.0500   -2.7054   -4.4347 C   0  0  0  0  0  0  0  0  0  0  0  0
   -0.7192   -3.8755   -4.5181 C   0  0  0  0  0  0  0  0  0  0  0  0
   -1.5631   -4.1321   -5.6005 C   0  0  0  0  0  0  0  0  0  0  0  0
   -1.6256   -3.2016   -6.6371 C   0  0  0  0  0  0  0  0  0  0  0  0
   -0.8256   -2.0564   -6.6241 C   0  0  0  0  0  0  0  0  0  0  0  0
   -0.0015   -1.8266   -5.5268 C   0  0  0  0  0  0  0  0  0  0  0  0
   -2.7418   -3.4647   -7.9502 Cl  0  0  0  0  0  0  0  0  0  0  0  0
   -0.6828   -5.0648   -3.2296 Cl  0  0  0  0  0  0  0  0  0  0  0  0
    1.3637    1.0924   -1.2260 H   0  0  0  0  0  0  0  0  0  0  0  0
    1.8196   -0.4090    2.6750 H   0  0  0  0  0  0  0  0  0  0  0  0
   -0.7337   -1.0382    1.7645 H   0  0  0  0  0  0  0  0  0  0  0  0
   -1.2244    0.7435   -1.5232 H   0  0  0  0  0  0  0  0  0  0  0  0
   -2.0582   -0.2631   -0.3193 H   0  0  0  0  0  0  0  0  0  0  0  0
   -3.9906   -0.7623   -5.3892 H   0  0  0  0  0  0  0  0  0  0  0  0
   -4.5610   -4.1767   -2.8161 H   0  0  0  0  0  0  0  0  0  0  0  0
   -2.6197   -3.4462   -1.4516 H   0  0  0  0  0  0  0  0  0  0  0  0
    0.8886   -3.1095   -2.4786 H   0  0  0  0  0  0  0  0  0  0  0  0
    1.8192   -1.9529   -3.4654 H   0  0  0  0  0  0  0  0  0  0  0  0
   -2.1803   -5.0289   -5.6200 H   0  0  0  0  0  0  0  0  0  0  0  0
   -0.8761   -1.3459   -7.4494 H   0  0  0  0  0  0  0  0  0  0  0  0
    0.5895   -0.9098   -5.4843 H   0  0  0  0  0  0  0  0  0  0  0  0
  1  2  1  0
  1  5  1  0
  1  6  1  0
  2  3  2  0
  2 27  1  0
  3  4  1  0
  4  5  2  0
  4 28  1  0
  5 29  1  0
  6  7  1  0
  6 30  1  0
  6 31  1  0
  7  8  1  1
  7  9  1  0
  7 17  1  0
  9 10  2  0
  9 14  1  0
 10 11  1  0
 10 16  1  0
 11 12  2  0
 11 32  1  0
 12 13  1  0
 12 15  1  0
 13 14  2  0
 13 33  1  0
 14 34  1  0
 17 18  1  0
 18 19  1  0
 18 35  1  0
 18 36  1  0
 19 20  2  0
 19 24  1  0
 20 21  1  0
 20 26  1  0
 21 22  2  0
 21 37  1  0
 22 23  1  0
 22 25  1  0
 23 24  2  0
 23 38  1  0
 24 39  1  0
M  END

