rmsd206.gzmat
 OpenBabel08211713403D

 39 41  0  0  1  0  0  0  0  0999 V2000
    0.0000    0.0000    0.0000 N   0  0  0  0  0  0  0  0  0  0  0  0
    1.3983    0.0000    0.0000 C   0  0  0  0  0  0  0  0  0  0  0  0
    1.8502    0.0000    1.2629 N   0  0  0  0  0  0  0  0  0  0  0  0
    0.7421   -0.0261    2.0983 C   0  0  0  0  0  0  0  0  0  0  0  0
   -0.4218   -0.0378    1.3284 C   0  0  0  0  0  0  0  0  0  0  0  0
   -0.8696   -0.0926   -1.1512 C   0  0  0  0  0  0  0  0  0  0  0  0
   -1.4170   -1.5296   -1.3972 C   0  0  1  0  0  0  0  0  0  0  0  0
   -2.1610   -1.4795   -2.2336 H   0  0  0  0  0  0  0  0  0  0  0  0
   -0.3213   -2.5036   -1.7323 C   0  0  0  0  0  0  0  0  0  0  0  0
    0.4366   -3.1932   -0.7901 C   0  0  0  0  0  0  0  0  0  0  0  0
    1.3761   -4.1570   -1.1530 C   0  0  0  0  0  0  0  0  0  0  0  0
    1.5398   -4.4141   -2.5049 C   0  0  0  0  0  0  0  0  0  0  0  0
    0.8455   -3.7158   -3.4867 C   0  0  0  0  0  0  0  0  0  0  0  0
   -0.0778   -2.7544   -3.0898 C   0  0  0  0  0  0  0  0  0  0  0  0
    2.6186   -5.6478   -2.9757 Cl  0  0  0  0  0  0  0  0  0  0  0  0
    0.2475   -2.9290    0.8761 Cl  0  0  0  0  0  0  0  0  0  0  0  0
   -2.0970   -1.8462   -0.1979 O   0  0  0  0  0  0  0  0  0  0  0  0
   -3.1034   -2.8407   -0.3025 C   0  0  0  0  0  0  0  0  0  0  0  0
   -2.4907   -4.2054   -0.3948 C   0  0  0  0  0  0  0  0  0  0  0  0
   -2.2810   -4.8573   -1.6063 C   0  0  0  0  0  0  0  0  0  0  0  0
   -1.5899   -6.0581   -1.7064 C   0  0  0  0  0  0  0  0  0  0  0  0
   -1.0977   -6.6001   -0.5262 C   0  0  0  0  0  0  0  0  0  0  0  0
   -1.3212   -6.0180    0.7159 C   0  0  0  0  0  0  0  0  0  0  0  0
   -2.0330   -4.8218    0.7752 C   0  0  0  0  0  0  0  0  0  0  0  0
   -0.1622   -8.0215   -0.6156 Cl  0  0  0  0  0  0  0  0  0  0  0  0
   -2.8430   -4.1576   -3.0620 Cl  0  0  0  0  0  0  0  0  0  0  0  0
    1.9991    0.0169   -0.8899 H   0  0  0  0  0  0  0  0  0  0  0  0
    0.8575   -0.0338    3.1634 H   0  0  0  0  0  0  0  0  0  0  0  0
   -1.4533   -0.0892    1.6046 H   0  0  0  0  0  0  0  0  0  0  0  0
   -0.3260    0.2453   -2.0644 H   0  0  0  0  0  0  0  0  0  0  0  0
   -1.7394    0.5955   -1.0081 H   0  0  0  0  0  0  0  0  0  0  0  0
    1.9553   -4.6936   -0.3964 H   0  0  0  0  0  0  0  0  0  0  0  0
    1.0087   -3.9191   -4.5451 H   0  0  0  0  0  0  0  0  0  0  0  0
   -0.6329   -2.2037   -3.8515 H   0  0  0  0  0  0  0  0  0  0  0  0
   -3.8021   -2.6075   -1.1253 H   0  0  0  0  0  0  0  0  0  0  0  0
   -3.6439   -2.6926    0.6588 H   0  0  0  0  0  0  0  0  0  0  0  0
   -1.4256   -6.5441   -2.6700 H   0  0  0  0  0  0  0  0  0  0  0  0
   -0.9364   -6.4733    1.6301 H   0  0  0  0  0  0  0  0  0  0  0  0
   -2.2101   -4.3440    1.7425 H   0  0  0  0  0  0  0  0  0  0  0  0
  1  2  1  0  0  0  0
  1  5  1  0  0  0  0
  2  3  2  0  0  0  0
  3  4  2  0  0  0  0
  4 28  1  0  0  0  0
  5 29  1  0  0  0  0
  5  4  1  0  0  0  0
  6 31  1  0  0  0  0
  6  1  1  0  0  0  0
  7  8  1  6  0  0  0
  7  6  1  0  0  0  0
  7 17  1  0  0  0  0
  9  7  1  0  0  0  0
  9 10  2  0  0  0  0
 10 16  1  0  0  0  0
 11 10  1  0  0  0  0
 11 32  1  0  0  0  0
 12 11  2  0  0  0  0
 13 14  2  0  0  0  0
 13 12  1  0  0  0  0
 14  9  1  0  0  0  0
 15 12  1  0  0  0  0
 18 17  1  0  0  0  0
 18 36  1  0  0  0  0
 19 18  1  0  0  0  0
 19 24  2  0  0  0  0
 20 19  1  0  0  0  0
 21 20  2  0  0  0  0
 21 22  1  0  0  0  0
 22 23  2  0  0  0  0
 23 24  1  0  0  0  0
 23 38  1  0  0  0  0
 24 39  1  0  0  0  0
 25 22  1  0  0  0  0
 26 20  1  0  0  0  0
 27  2  1  0  0  0  0
 30  6  1  0  0  0  0
 33 13  1  0  0  0  0
 34 14  1  0  0  0  0
 35 18  1  0  0  0  0
 37 21  1  0  0  0  0
M  RAD  1   5   2
M  END
$$$$
