39
rmsd217.gzmat
N          0.00000        0.00000        0.00000
C          1.39500        0.00000        0.00000
N          1.84770        0.00000        1.26430
C          0.73900       -0.00120        2.09770
C         -0.42520       -0.00720        1.32680
C         -0.85030       -0.02890       -1.17380
C         -0.58540       -1.32410       -1.98770
H         -0.32280       -2.17240       -1.30800
C         -1.76820       -1.66670       -2.84910
C         -2.12620       -0.93810       -3.98020
C         -3.15210       -1.33700       -4.83110
C         -3.82700       -2.50620       -4.50810
C         -3.54840       -3.23620       -3.35820
C         -2.52030       -2.80210       -2.52560
Cl        -5.02520       -3.07600       -5.57710
Cl        -1.28920        0.48450       -4.39880
O          0.55990       -0.97970       -2.75000
C          1.23330       -2.05470       -3.38310
C          0.55470       -2.37240       -4.68230
C         -0.23750       -3.50100       -4.87000
C         -0.96550       -3.72290       -6.03250
C         -0.88100       -2.75370       -7.02360
C         -0.07090       -1.63030       -6.90610
C          0.65470       -1.45060       -5.73080
Cl        -1.83530       -2.94090       -8.42250
Cl        -0.39020       -4.65520       -3.62060
H          1.98970       -0.00200       -0.89820
H          0.85250        0.00410        3.16370
H         -1.45340       -0.00730        1.61230
H         -0.63160        0.86730       -1.80950
H         -1.92340        0.03240       -0.88380
H         -3.40550       -0.76210       -5.72500
H         -4.10950       -4.13980       -3.11420
H         -2.28830       -3.37040       -1.62120
H          1.33910       -2.91740       -2.70200
H          2.24460       -1.61770       -3.54170
H         -1.58940       -4.61110       -6.15620
H         -0.01030       -0.89330       -7.70850
H          1.28710       -0.56670       -5.61180
