rmsd108.gzmat
 OpenBabel08211713403D

 39 41  0  0  1  0  0  0  0  0999 V2000
    0.0000    0.0000    0.0000 N   0  0  0  0  0  0  0  0  0  0  0  0
    1.3958    0.0000    0.0000 C   0  0  0  0  0  0  0  0  0  0  0  0
    1.8486    0.0000    1.2638 N   0  0  0  0  0  0  0  0  0  0  0  0
    0.7405    0.0099    2.0979 C   0  0  0  0  0  0  0  0  0  0  0  0
   -0.4232    0.0150    1.3268 C   0  0  0  0  0  0  0  0  0  0  0  0
   -0.8749    0.0488   -1.1541 C   0  0  0  0  0  0  0  0  0  0  0  0
   -1.5121    1.4592   -1.2891 C   0  0  1  0  0  0  0  0  0  0  0  0
   -0.8600    2.2384   -0.8233 H   0  0  0  0  0  0  0  0  0  0  0  0
   -1.7923    1.7769   -2.7316 C   0  0  0  0  0  0  0  0  0  0  0  0
   -2.7985    1.1552   -3.4658 C   0  0  0  0  0  0  0  0  0  0  0  0
   -3.1150    1.5312   -4.7673 C   0  0  0  0  0  0  0  0  0  0  0  0
   -2.3740    2.5624   -5.3278 C   0  0  0  0  0  0  0  0  0  0  0  0
   -1.3207    3.1752   -4.6585 C   0  0  0  0  0  0  0  0  0  0  0  0
   -1.0299    2.7696   -3.3585 C   0  0  0  0  0  0  0  0  0  0  0  0
   -2.7895    3.1079   -6.8876 Cl  0  0  0  0  0  0  0  0  0  0  0  0
   -3.7220   -0.1017   -2.7817 Cl  0  0  0  0  0  0  0  0  0  0  0  0
   -2.6975    1.3342   -0.5212 O   0  0  0  0  0  0  0  0  0  0  0  0
   -3.3585    2.5443   -0.1931 C   0  0  0  0  0  0  0  0  0  0  0  0
   -4.2080    2.9785   -1.3505 C   0  0  0  0  0  0  0  0  0  0  0  0
   -3.8652    4.0325   -2.1921 C   0  0  0  0  0  0  0  0  0  0  0  0
   -4.5797    4.3365   -3.3444 C   0  0  0  0  0  0  0  0  0  0  0  0
   -5.6723    3.5312   -3.6392 C   0  0  0  0  0  0  0  0  0  0  0  0
   -6.0878    2.4979   -2.8074 C   0  0  0  0  0  0  0  0  0  0  0  0
   -5.3537    2.2339   -1.6534 C   0  0  0  0  0  0  0  0  0  0  0  0
   -6.5138    3.8075   -5.0950 Cl  0  0  0  0  0  0  0  0  0  0  0  0
   -2.4839    4.9782   -1.8553 Cl  0  0  0  0  0  0  0  0  0  0  0  0
    1.9972   -0.0135   -0.8896 H   0  0  0  0  0  0  0  0  0  0  0  0
    0.8548    0.0099    3.1634 H   0  0  0  0  0  0  0  0  0  0  0  0
   -1.4571    0.0290    1.6016 H   0  0  0  0  0  0  0  0  0  0  0  0
   -1.6860   -0.7163   -1.0406 H   0  0  0  0  0  0  0  0  0  0  0  0
   -0.3109   -0.2140   -2.0775 H   0  0  0  0  0  0  0  0  0  0  0  0
   -3.9208    1.0427   -5.3199 H   0  0  0  0  0  0  0  0  0  0  0  0
   -0.7366    3.9664   -5.1312 H   0  0  0  0  0  0  0  0  0  0  0  0
   -0.2077    3.2478   -2.8198 H   0  0  0  0  0  0  0  0  0  0  0  0
   -2.6420    3.3072    0.1580 H   0  0  0  0  0  0  0  0  0  0  0  0
   -3.9752    2.2281    0.6772 H   0  0  0  0  0  0  0  0  0  0  0  0
   -4.2858    5.1609   -3.9978 H   0  0  0  0  0  0  0  0  0  0  0  0
   -6.9624    1.8925   -3.0518 H   0  0  0  0  0  0  0  0  0  0  0  0
   -5.6553    1.4178   -0.9918 H   0  0  0  0  0  0  0  0  0  0  0  0
  1  5  1  0  0  0  0
  2  1  1  0  0  0  0
  2  3  2  0  0  0  0
  3  4  2  0  0  0  0
  4 28  1  0  0  0  0
  5 29  1  0  0  0  0
  5  4  1  0  0  0  0
  6 30  1  0  0  0  0
  6  1  1  0  0  0  0
  7  6  1  0  0  0  0
  7  8  1  1  0  0  0
  7 17  1  0  0  0  0
  9  7  1  0  0  0  0
 10 16  1  0  0  0  0
 10  9  2  0  0  0  0
 11 10  1  0  0  0  0
 12 11  2  0  0  0  0
 12 13  1  0  0  0  0
 13 14  2  0  0  0  0
 14 34  1  0  0  0  0
 14  9  1  0  0  0  0
 15 12  1  0  0  0  0
 17 18  1  0  0  0  0
 18 35  1  0  0  0  0
 18 36  1  0  0  0  0
 19 18  1  0  0  0  0
 20 26  1  0  0  0  0
 20 19  2  0  0  0  0
 21 20  1  0  0  0  0
 22 21  2  0  0  0  0
 22 23  1  0  0  0  0
 23 24  2  0  0  0  0
 24 19  1  0  0  0  0
 24 39  1  0  0  0  0
 25 22  1  0  0  0  0
 27  2  1  0  0  0  0
 31  6  1  0  0  0  0
 32 11  1  0  0  0  0
 33 13  1  0  0  0  0
 37 21  1  0  0  0  0
 38 23  1  0  0  0  0
M  RAD  1   5   2
M  END
$$$$
