
     RDKit          3D

 39 41  0  0  0  0  0  0  0  0999 V2000
    0.0081    0.1040    0.0382 N   0  0  0  0  0  0  0  0  0  0  0  0
    1.3797    0.1386    0.0118 C   0  0  0  0  0  0  0  0  0  0  0  0
    1.8881    0.3594    1.2014 N   0  0  0  0  0  0  0  0  0  0  0  0
    0.8103    0.4666    2.0480 C   0  0  0  0  0  0  0  0  0  0  0  0
   -0.3667    0.3099    1.3504 C   0  0  0  0  0  0  0  0  0  0  0  0
   -0.8708   -0.1373   -1.0813 C   0  0  0  0  0  0  0  0  0  0  0  0
   -1.3770   -1.5809   -1.2327 C   0  0  1  0  0  0  0  0  0  0  0  0
   -2.0380   -1.5575   -2.1200 H   0  0  0  0  0  0  0  0  0  0  0  0
   -0.2783   -2.5877   -1.5673 C   0  0  0  0  0  0  0  0  0  0  0  0
    0.5413   -3.2556   -0.6390 C   0  0  0  0  0  0  0  0  0  0  0  0
    1.4470   -4.2416   -1.0442 C   0  0  0  0  0  0  0  0  0  0  0  0
    1.5727   -4.5474   -2.3975 C   0  0  0  0  0  0  0  0  0  0  0  0
    0.8250   -3.8586   -3.3539 C   0  0  0  0  0  0  0  0  0  0  0  0
   -0.0844   -2.8975   -2.9224 C   0  0  0  0  0  0  0  0  0  0  0  0
    2.6645   -5.8133   -2.8922 Cl  0  0  0  0  0  0  0  0  0  0  0  0
    0.4743   -2.9276    1.0708 Cl  0  0  0  0  0  0  0  0  0  0  0  0
   -2.1509   -1.8890   -0.0943 O   0  0  0  0  0  0  0  0  0  0  0  0
   -3.1518   -2.8869   -0.2582 C   0  0  0  0  0  0  0  0  0  0  0  0
   -2.5781   -4.2719   -0.4579 C   0  0  0  0  0  0  0  0  0  0  0  0
   -2.4458   -4.8816   -1.7153 C   0  0  0  0  0  0  0  0  0  0  0  0
   -1.7152   -6.0559   -1.8977 C   0  0  0  0  0  0  0  0  0  0  0  0
   -1.1138   -6.6493   -0.7877 C   0  0  0  0  0  0  0  0  0  0  0  0
   -1.2836   -6.1167    0.4922 C   0  0  0  0  0  0  0  0  0  0  0  0
   -2.0119   -4.9397    0.6376 C   0  0  0  0  0  0  0  0  0  0  0  0
   -0.1184   -8.0612   -1.0152 Cl  0  0  0  0  0  0  0  0  0  0  0  0
   -3.1718   -4.1619   -3.1425 Cl  0  0  0  0  0  0  0  0  0  0  0  0
    1.9361   -0.0004   -0.9158 H   0  0  0  0  0  0  0  0  0  0  0  0
    0.9350    0.6522    3.1143 H   0  0  0  0  0  0  0  0  0  0  0  0
   -1.4103    0.2949    1.6501 H   0  0  0  0  0  0  0  0  0  0  0  0
   -0.3396    0.1404   -2.0032 H   0  0  0  0  0  0  0  0  0  0  0  0
   -1.7504    0.5174   -0.9875 H   0  0  0  0  0  0  0  0  0  0  0  0
    2.0416   -4.7685   -0.2996 H   0  0  0  0  0  0  0  0  0  0  0  0
    0.9354   -4.0950   -4.4124 H   0  0  0  0  0  0  0  0  0  0  0  0
   -0.7072   -2.3953   -3.6659 H   0  0  0  0  0  0  0  0  0  0  0  0
   -3.8213   -2.6217   -1.0931 H   0  0  0  0  0  0  0  0  0  0  0  0
   -3.7334   -2.8576    0.6739 H   0  0  0  0  0  0  0  0  0  0  0  0
   -1.5950   -6.4844   -2.8914 H   0  0  0  0  0  0  0  0  0  0  0  0
   -0.8205   -6.6020    1.3514 H   0  0  0  0  0  0  0  0  0  0  0  0
   -2.1066   -4.4899    1.6274 H   0  0  0  0  0  0  0  0  0  0  0  0
  1  2  1  0
  1  5  1  0
  1  6  1  0
  2  3  2  0
  2 27  1  0
  3  4  1  0
  4  5  2  0
  4 28  1  0
  5 29  1  0
  6  7  1  0
  6 30  1  0
  6 31  1  0
  7  8  1  6
  7  9  1  0
  7 17  1  0
  9 10  2  0
  9 14  1  0
 10 11  1  0
 10 16  1  0
 11 12  2  0
 11 32  1  0
 12 13  1  0
 12 15  1  0
 13 14  2  0
 13 33  1  0
 14 34  1  0
 17 18  1  0
 18 19  1  0
 18 35  1  0
 18 36  1  0
 19 20  2  0
 19 24  1  0
 20 21  1  0
 20 26  1  0
 21 22  2  0
 21 37  1  0
 22 23  1  0
 22 25  1  0
 23 24  2  0
 23 38  1  0
 24 39  1  0
M  END

