
     RDKit          3D

 39 41  0  0  0  0  0  0  0  0999 V2000
    0.1821    0.1796    0.0370 N   0  0  0  0  0  0  0  0  0  0  0  0
    1.4890    0.4886    0.3180 C   0  0  0  0  0  0  0  0  0  0  0  0
    1.7243    0.5100    1.6094 N   0  0  0  0  0  0  0  0  0  0  0  0
    0.5233    0.2073    2.2055 C   0  0  0  0  0  0  0  0  0  0  0  0
   -0.4496   -0.0000    1.2519 C   0  0  0  0  0  0  0  0  0  0  0  0
   -0.4231    0.1189   -1.2759 C   0  0  0  0  0  0  0  0  0  0  0  0
   -1.2832    1.3509   -1.5859 C   0  0  1  0  0  0  0  0  0  0  0  0
   -0.6614    2.2435   -1.3840 H   0  0  0  0  0  0  0  0  0  0  0  0
   -1.6952    1.4252   -3.0507 C   0  0  0  0  0  0  0  0  0  0  0  0
   -2.6548    0.5893   -3.6488 C   0  0  0  0  0  0  0  0  0  0  0  0
   -3.0927    0.7929   -4.9580 C   0  0  0  0  0  0  0  0  0  0  0  0
   -2.5366    1.8307   -5.7071 C   0  0  0  0  0  0  0  0  0  0  0  0
   -1.5268    2.6327   -5.1754 C   0  0  0  0  0  0  0  0  0  0  0  0
   -1.1256    2.4183   -3.8587 C   0  0  0  0  0  0  0  0  0  0  0  0
   -3.1348    2.1354   -7.3151 Cl  0  0  0  0  0  0  0  0  0  0  0  0
   -3.3804   -0.7422   -2.7737 Cl  0  0  0  0  0  0  0  0  0  0  0  0
   -2.3700    1.3344   -0.6825 O   0  0  0  0  0  0  0  0  0  0  0  0
   -3.0760    2.5560   -0.5166 C   0  0  0  0  0  0  0  0  0  0  0  0
   -4.0295    2.8220   -1.6619 C   0  0  0  0  0  0  0  0  0  0  0  0
   -3.8421    3.8304   -2.6191 C   0  0  0  0  0  0  0  0  0  0  0  0
   -4.6296    3.9156   -3.7690 C   0  0  0  0  0  0  0  0  0  0  0  0
   -5.6443    2.9783   -3.9580 C   0  0  0  0  0  0  0  0  0  0  0  0
   -5.9057    1.9984   -2.9970 C   0  0  0  0  0  0  0  0  0  0  0  0
   -5.0974    1.9359   -1.8662 C   0  0  0  0  0  0  0  0  0  0  0  0
   -6.5771    3.0194   -5.4302 Cl  0  0  0  0  0  0  0  0  0  0  0  0
   -2.5686    5.0207   -2.4285 Cl  0  0  0  0  0  0  0  0  0  0  0  0
    2.2157    0.6723   -0.4748 H   0  0  0  0  0  0  0  0  0  0  0  0
    0.4187    0.1515    3.2885 H   0  0  0  0  0  0  0  0  0  0  0  0
   -1.5078   -0.2344    1.3092 H   0  0  0  0  0  0  0  0  0  0  0  0
   -1.0431   -0.7839   -1.3594 H   0  0  0  0  0  0  0  0  0  0  0  0
    0.3800    0.0489   -2.0228 H   0  0  0  0  0  0  0  0  0  0  0  0
   -3.8705    0.1589   -5.3808 H   0  0  0  0  0  0  0  0  0  0  0  0
   -1.0912    3.4340   -5.7723 H   0  0  0  0  0  0  0  0  0  0  0  0
   -0.3755    3.0802   -3.4215 H   0  0  0  0  0  0  0  0  0  0  0  0
   -2.3738    3.3945   -0.3876 H   0  0  0  0  0  0  0  0  0  0  0  0
   -3.6408    2.4352    0.4193 H   0  0  0  0  0  0  0  0  0  0  0  0
   -4.4362    4.6841   -4.5158 H   0  0  0  0  0  0  0  0  0  0  0  0
   -6.7117    1.2814   -3.1539 H   0  0  0  0  0  0  0  0  0  0  0  0
   -5.2619    1.1430   -1.1343 H   0  0  0  0  0  0  0  0  0  0  0  0
  1  2  1  0
  1  5  1  0
  1  6  1  0
  2  3  2  0
  2 27  1  0
  3  4  1  0
  4  5  2  0
  4 28  1  0
  5 29  1  0
  6  7  1  0
  6 30  1  0
  6 31  1  0
  7  8  1  1
  7  9  1  0
  7 17  1  0
  9 10  2  0
  9 14  1  0
 10 11  1  0
 10 16  1  0
 11 12  2  0
 11 32  1  0
 12 13  1  0
 12 15  1  0
 13 14  2  0
 13 33  1  0
 14 34  1  0
 17 18  1  0
 18 19  1  0
 18 35  1  0
 18 36  1  0
 19 20  2  0
 19 24  1  0
 20 21  1  0
 20 26  1  0
 21 22  2  0
 21 37  1  0
 22 23  1  0
 22 25  1  0
 23 24  2  0
 23 38  1  0
 24 39  1  0
M  END

