rmsd145.gzmat
 OpenBabel08211713403D

 39 41  0  0  1  0  0  0  0  0999 V2000
    0.0000    0.0000    0.0000 N   0  0  0  0  0  0  0  0  0  0  0  0
    1.3969    0.0000    0.0000 C   0  0  0  0  0  0  0  0  0  0  0  0
    1.8505    0.0000    1.2628 N   0  0  0  0  0  0  0  0  0  0  0  0
    0.7416    0.0229    2.0982 C   0  0  0  0  0  0  0  0  0  0  0  0
   -0.4227    0.0337    1.3301 C   0  0  0  0  0  0  0  0  0  0  0  0
   -0.8527    0.1075   -1.1630 C   0  0  0  0  0  0  0  0  0  0  0  0
   -0.6794    1.4470   -1.9421 C   0  0  1  0  0  0  0  0  0  0  0  0
   -1.0459    1.2843   -2.9905 H   0  0  0  0  0  0  0  0  0  0  0  0
   -1.4257    2.5911   -1.3141 C   0  0  0  0  0  0  0  0  0  0  0  0
   -1.0235    3.2848   -0.1768 C   0  0  0  0  0  0  0  0  0  0  0  0
   -1.7347    4.3770    0.3194 C   0  0  0  0  0  0  0  0  0  0  0  0
   -2.8769    4.7631   -0.3634 C   0  0  0  0  0  0  0  0  0  0  0  0
   -3.3359    4.0896   -1.4901 C   0  0  0  0  0  0  0  0  0  0  0  0
   -2.6039    3.0025   -1.9551 C   0  0  0  0  0  0  0  0  0  0  0  0
   -3.7443    6.1218    0.1962 Cl  0  0  0  0  0  0  0  0  0  0  0  0
    0.3838    2.8753    0.6779 Cl  0  0  0  0  0  0  0  0  0  0  0  0
    0.7201    1.6284   -2.0084 O   0  0  0  0  0  0  0  0  0  0  0  0
    1.1636    2.6854   -2.8514 C   0  0  0  0  0  0  0  0  0  0  0  0
    1.5285    3.8420   -1.9721 C   0  0  0  0  0  0  0  0  0  0  0  0
    0.7913    5.0197   -1.9087 C   0  0  0  0  0  0  0  0  0  0  0  0
    1.0821    6.0394   -1.0103 C   0  0  0  0  0  0  0  0  0  0  0  0
    2.1518    5.8342   -0.1490 C   0  0  0  0  0  0  0  0  0  0  0  0
    2.9273    4.6809   -0.1744 C   0  0  0  0  0  0  0  0  0  0  0  0
    2.6116    3.6868   -1.0976 C   0  0  0  0  0  0  0  0  0  0  0  0
    2.5093    7.0438    1.0014 Cl  0  0  0  0  0  0  0  0  0  0  0  0
   -0.5710    5.2371   -2.9199 Cl  0  0  0  0  0  0  0  0  0  0  0  0
    1.9940   -0.0022   -0.8949 H   0  0  0  0  0  0  0  0  0  0  0  0
    0.8576    0.0300    3.1638 H   0  0  0  0  0  0  0  0  0  0  0  0
   -1.4501    0.0594    1.6163 H   0  0  0  0  0  0  0  0  0  0  0  0
   -1.9226   -0.0001   -0.8664 H   0  0  0  0  0  0  0  0  0  0  0  0
   -0.6170   -0.7377   -1.8568 H   0  0  0  0  0  0  0  0  0  0  0  0
   -1.3944    4.9120    1.2104 H   0  0  0  0  0  0  0  0  0  0  0  0
   -4.2401    4.4091   -2.0085 H   0  0  0  0  0  0  0  0  0  0  0  0
   -2.9491    2.4737   -2.8451 H   0  0  0  0  0  0  0  0  0  0  0  0
    0.4314    2.9257   -3.6397 H   0  0  0  0  0  0  0  0  0  0  0  0
    2.0591    2.2409   -3.3383 H   0  0  0  0  0  0  0  0  0  0  0  0
    0.4863    6.9534   -0.9753 H   0  0  0  0  0  0  0  0  0  0  0  0
    3.7532    4.5366    0.5246 H   0  0  0  0  0  0  0  0  0  0  0  0
    3.1869    2.7571   -1.1125 H   0  0  0  0  0  0  0  0  0  0  0  0
  1  2  1  0  0  0  0
  1  5  1  0  0  0  0
  2  3  2  0  0  0  0
  3  4  2  0  0  0  0
  4 28  1  0  0  0  0
  5 29  1  0  0  0  0
  5  4  1  0  0  0  0
  6 30  1  0  0  0  0
  6  1  1  0  0  0  0
  7  8  1  6  0  0  0
  7  9  1  0  0  0  0
  7  6  1  0  0  0  0
  9 10  2  0  0  0  0
 10 11  1  0  0  0  0
 10 16  1  0  0  0  0
 11 32  1  0  0  0  0
 12 15  1  0  0  0  0
 12 11  2  0  0  0  0
 13 12  1  0  0  0  0
 14 13  2  0  0  0  0
 14  9  1  0  0  0  0
 17  7  1  0  0  0  0
 18 17  1  0  0  0  0
 18 19  1  0  0  0  0
 19 20  2  0  0  0  0
 19 24  1  0  0  0  0
 20 21  1  0  0  0  0
 21 37  1  0  0  0  0
 21 22  2  0  0  0  0
 22 25  1  0  0  0  0
 23 22  1  0  0  0  0
 23 38  1  0  0  0  0
 24 23  2  0  0  0  0
 26 20  1  0  0  0  0
 27  2  1  0  0  0  0
 31  6  1  0  0  0  0
 33 13  1  0  0  0  0
 34 14  1  0  0  0  0
 35 18  1  0  0  0  0
 36 18  1  0  0  0  0
 39 24  1  0  0  0  0
M  RAD  1   5   2
M  END
$$$$
