39
rmsd124.gzmat
N          0.00000        0.00000        0.00000
C          1.39630        0.00000        0.00000
N          1.84880        0.00000        1.26380
C          0.74090        0.00900        2.09810
C         -0.42280        0.01600        1.32720
C         -0.87190        0.04480       -1.15610
C         -1.28700        1.50820       -1.47190
H         -0.54940        2.22980       -1.04010
C         -1.44990        1.71900       -2.95090
C         -2.42270        1.07570       -3.71130
C         -2.60170        1.33010       -5.06690
C         -1.75800        2.26230       -5.65530
C         -0.74930        2.90780       -4.94940
C         -0.60090        2.62830       -3.59280
Cl        -1.98590        2.63380       -7.30290
Cl        -3.47540       -0.05890       -2.99950
O         -2.49970        1.64920       -0.75170
C         -3.11790        2.92530       -0.83240
C         -4.22460        2.82980       -1.84100
C         -4.22950        3.52010       -3.04830
C         -5.21420        3.33860       -4.01290
C         -6.21080        2.41430       -3.73020
C         -6.26620        1.71360       -2.53070
C         -5.26800        1.93190       -1.58470
Cl        -7.40280        2.11750       -4.91370
Cl        -2.96950        4.61220       -3.41700
H          1.99860       -0.01210       -0.88950
H          0.85530        0.00670        3.16390
H         -1.45530        0.03190        1.60540
H         -1.78930       -0.56650       -0.95380
H         -0.36600       -0.41460       -2.03610
H         -3.38140        0.82350       -5.64090
H         -0.09390        3.63070       -5.43730
H          0.17840        3.14120       -3.02430
H         -2.38820        3.72810       -1.02820
H         -3.51360        3.06740        0.19730
H         -5.19610        3.88900       -4.95620
H         -7.06480        0.99740       -2.33320
H         -5.27600        1.37670       -0.64330
