45
rmsd87.gzmat
S          0.00000        0.00000        0.00000
C          1.80810        0.00000        0.00000
N          2.33230        0.00000        1.21830
C          1.35790        0.02000        2.21690
C          0.05350        0.02270        1.77780
N         -1.17350       -0.04000        2.44770
C         -1.71550        1.17130        2.94140
C         -1.20100        2.41290        2.52420
C         -1.81150        3.59130        2.93550
C         -2.93030        3.55930        3.76610
C         -3.43820        2.33140        4.18440
C         -2.84110        1.14100        3.78410
C         -1.30600       -1.23810        3.30320
C          1.81470       -0.00130        3.60540
C          1.22940        0.83560        4.55910
C          1.64960        0.77730        5.88500
C          2.66020       -0.10670        6.25980
C          3.26270       -0.92390        5.30450
C          2.84500       -0.87160        3.97740
N          2.49240        0.00910       -1.18330
C          3.90210        0.00980       -1.32920
C          4.39050       -0.25040       -2.62370
C          5.76130       -0.24720       -2.85260
C          6.65090        0.00950       -1.81030
C          6.16080        0.27290       -0.53300
C          4.79180        0.27910       -0.28300
H         -0.32470        2.46490        1.88240
H         -1.40600        4.54820        2.60690
H         -3.40130        4.48400        4.08470
H         -4.31200        2.29990        4.83410
H         -3.25900        0.19670        4.11880
H         -0.71680       -2.07320        2.88650
H         -2.36380       -1.55440        3.31130
H         -0.96780       -1.06330        4.33820
H          0.45080        1.54120        4.26700
H          1.18800        1.42620        6.62660
H          2.98100       -0.15480        7.29810
H          4.06330       -1.60170        5.59300
H          3.32060       -1.49890        3.22180
H          1.95770       -0.07310       -2.04550
H          3.70910       -0.45610       -3.44400
H          6.14140       -0.44780       -3.85330
H          7.72180        0.00490       -1.99340
H          6.85450        0.47830        0.28280
H          4.43070        0.49380        0.72790
