45
rmsd221.gzmat
S          0.00000        0.00000        0.00000
C          1.80820        0.00000        0.00000
N          2.33360        0.00000        1.21810
C          1.35840       -0.02320        2.21540
C          0.05400       -0.02670        1.77730
N         -1.17250        0.02540        2.44800
C         -1.71230       -1.19300        2.92600
C         -2.86650       -1.17230        3.72950
C         -3.46640       -2.36770        4.10890
C         -2.93200       -3.59120        3.71110
C         -1.78240       -3.61320        2.92390
C         -1.16960       -2.42950        2.53120
C         -1.31610        1.21180        3.31720
C          1.80930       -0.00170        3.60560
C          2.80140        0.90530        3.99140
C          3.20560        0.96320        5.32220
C          2.63030        0.11260        6.26540
C          1.65990       -0.80900        5.87540
C          1.25180       -0.87150        4.54600
N          2.49260       -0.01360       -1.18300
C          3.90280       -0.03870       -1.32490
C          4.77920       -0.38590       -0.29080
C          6.14790       -0.42200       -0.54040
C          6.64990       -0.12050       -1.80490
C          5.77370        0.22710       -2.83200
C          4.40360        0.27140       -2.60330
H         -3.30580       -0.23170        4.04640
H         -4.36440       -2.34420        4.72480
H         -3.40770       -4.51950        4.01190
H         -1.35440       -4.56670        2.61520
H         -0.27020       -2.47310        1.92110
H         -0.70710        2.04790        2.93180
H         -1.00950        1.01700        4.35820
H         -2.37110        1.53770        3.30150
H          3.25700        1.55590        3.24320
H          3.97410        1.67140        5.62400
H          2.94280        0.16360        7.30610
H          1.22090       -1.48360        6.60800
H          0.50490       -1.60490        4.24020
H          1.96120        0.09880       -2.04400
H          4.40730       -0.62810        0.70970
H          6.83180       -0.69160        0.26490
H          7.71980       -0.15560       -1.99040
H          6.16410        0.46660       -3.82030
H          3.73240        0.54850       -3.41080
