rmsd196.gzmat
 OpenBabel08211713373D

 45 48  0  0  1  0  0  0  0  0999 V2000
    0.0000    0.0000    0.0000 S   0  0  0  0  0  0  0  0  0  0  0  0
    1.8087    0.0000    0.0000 C   0  0  0  0  0  0  0  0  0  0  0  0
    2.3335    0.0000    1.2180 N   0  0  0  0  0  0  0  0  0  0  0  0
    1.3584    0.0185    2.2160 C   0  0  0  0  0  0  0  0  0  0  0  0
    0.0539    0.0184    1.7776 C   0  0  2  0  0  0  0  0  0  0  0  0
   -1.1712   -0.0573    2.4457 N   0  0  0  0  0  0  0  0  0  0  0  0
   -1.7411    1.1417    2.9322 C   0  0  0  0  0  0  0  0  0  0  0  0
   -2.8816    1.0846    3.7538 C   0  0  0  0  0  0  0  0  0  0  0  0
   -3.5109    2.2607    4.1458 C   0  0  0  0  0  0  0  0  0  0  0  0
   -3.0211    3.5003    3.7400 C   0  0  0  0  0  0  0  0  0  0  0  0
   -1.8872    3.5583    2.9317 C   0  0  0  0  0  0  0  0  0  0  0  0
   -1.2431    2.3946    2.5289 C   0  0  0  0  0  0  0  0  0  0  0  0
   -1.3120   -1.2659    3.2832 C   0  0  0  0  0  0  0  0  0  0  0  0
    1.8082   -0.0013    3.6067 C   0  0  0  0  0  0  0  0  0  0  0  0
    1.2289    0.8507    4.5508 C   0  0  0  0  0  0  0  0  0  0  0  0
    1.6403    0.7958    5.8796 C   0  0  0  0  0  0  0  0  0  0  0  0
    2.6353   -0.1008    6.2663 C   0  0  0  0  0  0  0  0  0  0  0  0
    3.2288   -0.9361    5.3209 C   0  0  0  0  0  0  0  0  0  0  0  0
    2.8209   -0.8862    3.9907 C   0  0  0  0  0  0  0  0  0  0  0  0
    2.4856   -0.0014   -1.1872 N   0  0  0  0  0  0  0  0  0  0  0  0
    3.8916    0.0230   -1.3555 C   0  0  0  0  0  0  0  0  0  0  0  0
    4.8072    0.0759   -0.2992 C   0  0  0  0  0  0  0  0  0  0  0  0
    6.1707    0.0982   -0.5785 C   0  0  0  0  0  0  0  0  0  0  0  0
    6.6306    0.0704   -1.8931 C   0  0  0  0  0  0  0  0  0  0  0  0
    5.7155    0.0188   -2.9438 C   0  0  0  0  0  0  0  0  0  0  0  0
    4.3502   -0.0057   -2.6875 C   0  0  0  0  0  0  0  0  0  0  0  0
   -3.2862    0.1301    4.0757 H   0  0  0  0  0  0  0  0  0  0  0  0
   -4.3965    2.2093    4.7780 H   0  0  0  0  0  0  0  0  0  0  0  0
   -3.5194    4.4132    4.0510 H   0  0  0  0  0  0  0  0  0  0  0  0
   -1.4973    4.5254    2.6144 H   0  0  0  0  0  0  0  0  0  0  0  0
   -0.3563    2.4657    1.9039 H   0  0  0  0  0  0  0  0  0  0  0  0
   -0.6437   -2.0674    2.9238 H   0  0  0  0  0  0  0  0  0  0  0  0
   -2.3486   -1.6371    3.1944 H   0  0  0  0  0  0  0  0  0  0  0  0
   -1.0799   -1.0786    4.3448 H   0  0  0  0  0  0  0  0  0  0  0  0
    0.4612    1.5641    4.2481 H   0  0  0  0  0  0  0  0  0  0  0  0
    1.1842    1.4571    6.6139 H   0  0  0  0  0  0  0  0  0  0  0  0
    2.9524   -0.1442    7.3062 H   0  0  0  0  0  0  0  0  0  0  0  0
    4.0150   -1.6262    5.6200 H   0  0  0  0  0  0  0  0  0  0  0  0
    3.2897   -1.5267    3.2424 H   0  0  0  0  0  0  0  0  0  0  0  0
    1.9379   -0.0212   -2.0460 H   0  0  0  0  0  0  0  0  0  0  0  0
    4.4727    0.1031    0.7430 H   0  0  0  0  0  0  0  0  0  0  0  0
    6.8831    0.1406    0.2455 H   0  0  0  0  0  0  0  0  0  0  0  0
    7.6971    0.0897   -2.1001 H   0  0  0  0  0  0  0  0  0  0  0  0
    6.0715   -0.0024   -3.9729 H   0  0  0  0  0  0  0  0  0  0  0  0
    3.6487   -0.0466   -3.5156 H   0  0  0  0  0  0  0  0  0  0  0  0
  1  5  1  0  0  0  0
  2  1  1  0  0  0  0
  2  3  2  0  0  0  0
  3  4  2  0  0  0  0
  4 14  1  0  0  0  0
  5  4  1  0  0  0  0
  5  6  1  1  0  0  0
  6  7  1  0  0  0  0
  6 13  1  0  0  0  0
  7  8  2  0  0  0  0
  8 27  1  0  0  0  0
  8  9  1  0  0  0  0
  9 28  1  0  0  0  0
 10 29  1  0  0  0  0
 10  9  2  0  0  0  0
 11 10  1  0  0  0  0
 12 11  2  0  0  0  0
 12  7  1  0  0  0  0
 13 34  1  0  0  0  0
 14 19  2  0  0  0  0
 14 15  1  0  0  0  0
 15 16  2  0  0  0  0
 16 17  1  0  0  0  0
 16 36  1  0  0  0  0
 17 37  1  0  0  0  0
 18 38  1  0  0  0  0
 18 17  2  0  0  0  0
 19 18  1  0  0  0  0
 20  2  1  0  0  0  0
 21 20  1  0  0  0  0
 21 22  2  0  0  0  0
 22 41  1  0  0  0  0
 23 22  1  0  0  0  0
 23 42  1  0  0  0  0
 24 23  2  0  0  0  0
 25 26  2  0  0  0  0
 25 24  1  0  0  0  0
 26 21  1  0  0  0  0
 30 11  1  0  0  0  0
 31 12  1  0  0  0  0
 32 13  1  0  0  0  0
 33 13  1  0  0  0  0
 35 15  1  0  0  0  0
 39 19  1  0  0  0  0
 40 20  1  0  0  0  0
 43 24  1  0  0  0  0
 44 25  1  0  0  0  0
 45 26  1  0  0  0  0
M  RAD  1   5   2
M  END
$$$$
