45
rmsd109.gzmat
S          0.00000        0.00000        0.00000
C          1.80800        0.00000        0.00000
N          2.33330        0.00000        1.21740
C          1.35810        0.01920        2.21610
C          0.05360        0.01860        1.77770
N         -1.17690       -0.05870        2.43820
C         -1.77740        1.15500        2.85720
C         -1.22010        2.40030        2.51850
C         -1.89280        3.57250        2.84370
C         -3.11690        3.52760        3.50750
C         -3.66620        2.29390        3.85240
C         -3.00740        1.11100        3.53900
C         -1.27710       -1.20760        3.36180
C          1.81020       -0.00440        3.60580
C          1.21640        0.82690        4.55960
C          1.61990        0.75640        5.89000
C          2.62420       -0.13310        6.26880
C          3.23690       -0.94250        5.31330
C          2.83740       -0.87690        3.98130
N          2.48660        0.00910       -1.18680
C          3.89480       -0.00130       -1.34190
C          4.37170       -0.26350       -2.64050
C          5.74050       -0.26870       -2.87980
C          6.63950       -0.01500       -1.84490
C          6.16050        0.24860       -0.56340
C          4.79360        0.25830       -0.30190
H         -0.26390        2.46090        2.00340
H         -1.45400        4.53430        2.57850
H         -3.64060        4.44630        3.75280
H         -4.62310        2.25350        4.37120
H         -3.45820        0.15980        3.80560
H         -0.70830       -2.06510        2.96200
H         -2.33300       -1.51980        3.43630
H         -0.89290       -0.97930        4.37000
H          0.44430        1.53720        4.26250
H          1.14980        1.39900        6.63220
H          2.93430       -0.19120        7.30990
H          4.03040       -1.62660        5.60630
H          3.32430       -1.49520        3.22520
H          1.94540       -0.07510       -2.04540
H          3.68220       -0.46440       -3.45530
H          6.11260       -0.47410       -3.88270
H          7.70840       -0.02270       -2.03860
H          6.86020        0.45180        0.24740
H          4.44110        0.46810        0.71310
