
     RDKit          3D

 45 48  0  0  0  0  0  0  0  0999 V2000
    0.0809    0.2173    0.2177 S   0  0  0  0  0  0  0  0  0  0  0  0
    1.8378    0.0480    0.1906 C   0  0  0  0  0  0  0  0  0  0  0  0
    2.3999   -0.0333    1.3607 N   0  0  0  0  0  0  0  0  0  0  0  0
    1.4864    0.0489    2.3922 C   0  0  0  0  0  0  0  0  0  0  0  0
    0.1707    0.1764    2.0042 C   0  0  0  0  0  0  0  0  0  0  0  0
   -0.9828    0.1604    2.7792 N   0  0  0  0  0  0  0  0  0  0  0  0
   -1.7589    1.3164    2.9326 C   0  0  0  0  0  0  0  0  0  0  0  0
   -3.0549    1.2580    3.4835 C   0  0  0  0  0  0  0  0  0  0  0  0
   -3.8047    2.4247    3.6491 C   0  0  0  0  0  0  0  0  0  0  0  0
   -3.2933    3.6676    3.2727 C   0  0  0  0  0  0  0  0  0  0  0  0
   -2.0071    3.7289    2.7258 C   0  0  0  0  0  0  0  0  0  0  0  0
   -1.2450    2.5759    2.5567 C   0  0  0  0  0  0  0  0  0  0  0  0
   -1.4756   -1.1224    3.2566 C   0  0  0  0  0  0  0  0  0  0  0  0
    1.9760   -0.0469    3.7826 C   0  0  0  0  0  0  0  0  0  0  0  0
    1.2463    0.4600    4.8745 C   0  0  0  0  0  0  0  0  0  0  0  0
    1.7447    0.3457    6.1724 C   0  0  0  0  0  0  0  0  0  0  0  0
    2.9758   -0.2743    6.4071 C   0  0  0  0  0  0  0  0  0  0  0  0
    3.7122   -0.7722    5.3284 C   0  0  0  0  0  0  0  0  0  0  0  0
    3.2201   -0.6566    4.0283 C   0  0  0  0  0  0  0  0  0  0  0  0
    2.4769    0.0327   -1.0189 N   0  0  0  0  0  0  0  0  0  0  0  0
    3.8496   -0.0049   -1.3045 C   0  0  0  0  0  0  0  0  0  0  0  0
    4.8491    0.0233   -0.3164 C   0  0  0  0  0  0  0  0  0  0  0  0
    6.1921   -0.0104   -0.6979 C   0  0  0  0  0  0  0  0  0  0  0  0
    6.5650   -0.0729   -2.0425 C   0  0  0  0  0  0  0  0  0  0  0  0
    5.5680   -0.1002   -3.0227 C   0  0  0  0  0  0  0  0  0  0  0  0
    4.2238   -0.0671   -2.6604 C   0  0  0  0  0  0  0  0  0  0  0  0
   -3.4874    0.3039    3.7812 H   0  0  0  0  0  0  0  0  0  0  0  0
   -4.8077    2.3527    4.0774 H   0  0  0  0  0  0  0  0  0  0  0  0
   -3.8857    4.5754    3.4033 H   0  0  0  0  0  0  0  0  0  0  0  0
   -1.5847    4.6921    2.4283 H   0  0  0  0  0  0  0  0  0  0  0  0
   -0.2415    2.6404    2.1359 H   0  0  0  0  0  0  0  0  0  0  0  0
   -0.6782   -1.8660    3.1430 H   0  0  0  0  0  0  0  0  0  0  0  0
   -2.3622   -1.4664    2.6918 H   0  0  0  0  0  0  0  0  0  0  0  0
   -1.7442   -1.0662    4.3239 H   0  0  0  0  0  0  0  0  0  0  0  0
    0.2962    0.9645    4.7054 H   0  0  0  0  0  0  0  0  0  0  0  0
    1.1687    0.7526    7.0070 H   0  0  0  0  0  0  0  0  0  0  0  0
    3.3621   -0.3626    7.4254 H   0  0  0  0  0  0  0  0  0  0  0  0
    4.6781   -1.2536    5.5003 H   0  0  0  0  0  0  0  0  0  0  0  0
    3.7901   -1.0406    3.1817 H   0  0  0  0  0  0  0  0  0  0  0  0
    1.8716    0.0570   -1.8298 H   0  0  0  0  0  0  0  0  0  0  0  0
    4.5591    0.0725    0.7298 H   0  0  0  0  0  0  0  0  0  0  0  0
    6.9601    0.0136    0.0794 H   0  0  0  0  0  0  0  0  0  0  0  0
    7.6194   -0.0999   -2.3254 H   0  0  0  0  0  0  0  0  0  0  0  0
    5.8367   -0.1481   -4.0808 H   0  0  0  0  0  0  0  0  0  0  0  0
    3.4496   -0.0893   -3.4333 H   0  0  0  0  0  0  0  0  0  0  0  0
  1  2  1  0
  1  5  1  0
  2  3  2  0
  2 20  1  0
  3  4  1  0
  4  5  2  0
  4 14  1  0
  5  6  1  0
  6  7  1  0
  6 13  1  0
  7  8  2  0
  7 12  1  0
  8  9  1  0
  8 27  1  0
  9 10  2  0
  9 28  1  0
 10 11  1  0
 10 29  1  0
 11 12  2  0
 11 30  1  0
 12 31  1  0
 13 32  1  0
 13 33  1  0
 13 34  1  0
 14 15  2  0
 14 19  1  0
 15 16  1  0
 15 35  1  0
 16 17  2  0
 16 36  1  0
 17 18  1  0
 17 37  1  0
 18 19  2  0
 18 38  1  0
 19 39  1  0
 20 21  1  0
 20 40  1  0
 21 22  2  0
 21 26  1  0
 22 23  1  0
 22 41  1  0
 23 24  2  0
 23 42  1  0
 24 25  1  0
 24 43  1  0
 25 26  2  0
 25 44  1  0
 26 45  1  0
M  END

