45
rmsd222.gzmat
S          0.00000        0.00000        0.00000
C          1.80790        0.00000        0.00000
N          2.33400        0.00000        1.21740
C          1.35870       -0.02010        2.21550
C          0.05390       -0.01780        1.77780
N         -1.17320        0.06300        2.44450
C         -1.76510       -1.14510        2.88810
C         -2.95730       -1.09660        3.63350
C         -3.61000       -2.27640        3.97120
C         -3.09160       -3.51170        3.58710
C         -1.90510       -3.56140        2.85840
C         -1.23730       -2.39300        2.51110
C         -1.27290        1.22960        3.34620
C          1.81250       -0.00610        3.60480
C          2.83290        0.87060        3.98690
C          3.24550        0.91510        5.31590
C          2.64900        0.08230        6.26160
C          1.64930       -0.80940        5.87540
C          1.23210       -0.85810        4.54830
N          2.49260       -0.01380       -1.18340
C          3.90400       -0.01340       -1.31910
C          4.77630       -0.41100       -0.29980
C          6.14760       -0.41040       -0.53760
C          6.65570       -0.02420       -1.77620
C          5.78250        0.36340       -2.79160
C          4.40970        0.37250       -2.57440
H         -3.38320       -0.14490        3.93590
H         -4.53690       -2.23210        4.54240
H         -3.60850       -4.42830        3.85260
H         -1.49260       -4.52470        2.55890
H         -0.30830       -2.45770        1.94880
H         -0.68010        2.07050        2.94700
H         -0.91640        1.01190        4.36630
H         -2.32480        1.56090        3.38800
H          3.30460        1.50830        3.23760
H          4.03820        1.59840        5.61300
H          2.96640        0.12340        7.30120
H          1.19530       -1.47170        6.61010
H          0.46050       -1.56680        4.24550
H          1.96330        0.10710       -2.04410
H          4.39810       -0.71850        0.67980
H          6.82700       -0.71830        0.25710
H          7.72820       -0.02440       -1.95080
H          6.17690        0.66360       -3.76140
H          3.74000        0.68160       -3.37160
