rmsd87.gzmat
 OpenBabel08211713373D

 45 48  0  0  1  0  0  0  0  0999 V2000
    0.0000    0.0000    0.0000 S   0  0  0  0  0  0  0  0  0  0  0  0
    1.8081    0.0000    0.0000 C   0  0  0  0  0  0  0  0  0  0  0  0
    2.3323    0.0000    1.2183 N   0  0  0  0  0  0  0  0  0  0  0  0
    1.3579    0.0200    2.2169 C   0  0  0  0  0  0  0  0  0  0  0  0
    0.0535    0.0227    1.7778 C   0  0  2  0  0  0  0  0  0  0  0  0
   -1.1735   -0.0400    2.4477 N   0  0  0  0  0  0  0  0  0  0  0  0
   -1.7155    1.1713    2.9414 C   0  0  0  0  0  0  0  0  0  0  0  0
   -1.2010    2.4129    2.5242 C   0  0  0  0  0  0  0  0  0  0  0  0
   -1.8115    3.5913    2.9355 C   0  0  0  0  0  0  0  0  0  0  0  0
   -2.9303    3.5593    3.7661 C   0  0  0  0  0  0  0  0  0  0  0  0
   -3.4382    2.3314    4.1844 C   0  0  0  0  0  0  0  0  0  0  0  0
   -2.8411    1.1410    3.7841 C   0  0  0  0  0  0  0  0  0  0  0  0
   -1.3060   -1.2381    3.3032 C   0  0  0  0  0  0  0  0  0  0  0  0
    1.8147   -0.0013    3.6054 C   0  0  0  0  0  0  0  0  0  0  0  0
    1.2294    0.8356    4.5591 C   0  0  0  0  0  0  0  0  0  0  0  0
    1.6496    0.7773    5.8850 C   0  0  0  0  0  0  0  0  0  0  0  0
    2.6602   -0.1067    6.2598 C   0  0  0  0  0  0  0  0  0  0  0  0
    3.2627   -0.9239    5.3045 C   0  0  0  0  0  0  0  0  0  0  0  0
    2.8450   -0.8716    3.9774 C   0  0  0  0  0  0  0  0  0  0  0  0
    2.4924    0.0091   -1.1833 N   0  0  0  0  0  0  0  0  0  0  0  0
    3.9021    0.0098   -1.3292 C   0  0  0  0  0  0  0  0  0  0  0  0
    4.3905   -0.2504   -2.6237 C   0  0  0  0  0  0  0  0  0  0  0  0
    5.7613   -0.2472   -2.8526 C   0  0  0  0  0  0  0  0  0  0  0  0
    6.6509    0.0095   -1.8103 C   0  0  0  0  0  0  0  0  0  0  0  0
    6.1608    0.2729   -0.5330 C   0  0  0  0  0  0  0  0  0  0  0  0
    4.7918    0.2791   -0.2830 C   0  0  0  0  0  0  0  0  0  0  0  0
   -0.3247    2.4649    1.8824 H   0  0  0  0  0  0  0  0  0  0  0  0
   -1.4060    4.5482    2.6069 H   0  0  0  0  0  0  0  0  0  0  0  0
   -3.4013    4.4840    4.0847 H   0  0  0  0  0  0  0  0  0  0  0  0
   -4.3120    2.2999    4.8341 H   0  0  0  0  0  0  0  0  0  0  0  0
   -3.2590    0.1967    4.1188 H   0  0  0  0  0  0  0  0  0  0  0  0
   -0.7168   -2.0732    2.8865 H   0  0  0  0  0  0  0  0  0  0  0  0
   -2.3638   -1.5544    3.3113 H   0  0  0  0  0  0  0  0  0  0  0  0
   -0.9678   -1.0633    4.3382 H   0  0  0  0  0  0  0  0  0  0  0  0
    0.4508    1.5412    4.2670 H   0  0  0  0  0  0  0  0  0  0  0  0
    1.1880    1.4262    6.6266 H   0  0  0  0  0  0  0  0  0  0  0  0
    2.9810   -0.1548    7.2981 H   0  0  0  0  0  0  0  0  0  0  0  0
    4.0633   -1.6017    5.5930 H   0  0  0  0  0  0  0  0  0  0  0  0
    3.3206   -1.4989    3.2218 H   0  0  0  0  0  0  0  0  0  0  0  0
    1.9577   -0.0731   -2.0455 H   0  0  0  0  0  0  0  0  0  0  0  0
    3.7091   -0.4561   -3.4440 H   0  0  0  0  0  0  0  0  0  0  0  0
    6.1414   -0.4478   -3.8533 H   0  0  0  0  0  0  0  0  0  0  0  0
    7.7218    0.0049   -1.9934 H   0  0  0  0  0  0  0  0  0  0  0  0
    6.8545    0.4783    0.2828 H   0  0  0  0  0  0  0  0  0  0  0  0
    4.4307    0.4938    0.7279 H   0  0  0  0  0  0  0  0  0  0  0  0
  1  2  1  0  0  0  0
  1  5  1  0  0  0  0
  2  3  2  0  0  0  0
  3  4  2  0  0  0  0
  4 14  1  0  0  0  0
  5  4  1  0  0  0  0
  5  6  1  1  0  0  0
  6  7  1  0  0  0  0
  6 13  1  0  0  0  0
  7 12  2  0  0  0  0
  8  9  2  0  0  0  0
  8  7  1  0  0  0  0
  9 10  1  0  0  0  0
 10 29  1  0  0  0  0
 10 11  2  0  0  0  0
 11 30  1  0  0  0  0
 12 31  1  0  0  0  0
 12 11  1  0  0  0  0
 13 33  1  0  0  0  0
 13 34  1  0  0  0  0
 14 19  2  0  0  0  0
 14 15  1  0  0  0  0
 15 16  2  0  0  0  0
 16 17  1  0  0  0  0
 16 36  1  0  0  0  0
 17 37  1  0  0  0  0
 18 38  1  0  0  0  0
 18 17  2  0  0  0  0
 19 18  1  0  0  0  0
 20  2  1  0  0  0  0
 21 20  1  0  0  0  0
 21 26  2  0  0  0  0
 22 21  1  0  0  0  0
 23 22  2  0  0  0  0
 23 24  1  0  0  0  0
 24 25  2  0  0  0  0
 25 26  1  0  0  0  0
 25 44  1  0  0  0  0
 26 45  1  0  0  0  0
 27  8  1  0  0  0  0
 28  9  1  0  0  0  0
 32 13  1  0  0  0  0
 35 15  1  0  0  0  0
 39 19  1  0  0  0  0
 40 20  1  0  0  0  0
 41 22  1  0  0  0  0
 42 23  1  0  0  0  0
 43 24  1  0  0  0  0
M  RAD  1   5   2
M  END
$$$$
