rmsd179.gzmat
 OpenBabel08211713373D

 45 48  0  0  1  0  0  0  0  0999 V2000
    0.0000    0.0000    0.0000 S   0  0  0  0  0  0  0  0  0  0  0  0
    1.8094    0.0000    0.0000 C   0  0  0  0  0  0  0  0  0  0  0  0
    2.3322    0.0000    1.2187 N   0  0  0  0  0  0  0  0  0  0  0  0
    1.3570    0.0203    2.2161 C   0  0  0  0  0  0  0  0  0  0  0  0
    0.0524    0.0217    1.7782 C   0  0  2  0  0  0  0  0  0  0  0  0
   -1.1724   -0.0524    2.4495 N   0  0  0  0  0  0  0  0  0  0  0  0
   -1.7357    1.1492    2.9404 C   0  0  0  0  0  0  0  0  0  0  0  0
   -1.2378    2.4005    2.5327 C   0  0  0  0  0  0  0  0  0  0  0  0
   -1.8778    3.5664    2.9362 C   0  0  0  0  0  0  0  0  0  0  0  0
   -3.0051    3.5124    3.7542 C   0  0  0  0  0  0  0  0  0  0  0  0
   -3.4931    2.2744    4.1672 C   0  0  0  0  0  0  0  0  0  0  0  0
   -2.8705    1.0966    3.7702 C   0  0  0  0  0  0  0  0  0  0  0  0
   -1.3005   -1.2548    3.2991 C   0  0  0  0  0  0  0  0  0  0  0  0
    1.8104    0.0013    3.6054 C   0  0  0  0  0  0  0  0  0  0  0  0
    1.2381    0.8580    4.5493 C   0  0  0  0  0  0  0  0  0  0  0  0
    1.6558    0.8056    5.8761 C   0  0  0  0  0  0  0  0  0  0  0  0
    2.6496   -0.0930    6.2610 C   0  0  0  0  0  0  0  0  0  0  0  0
    3.2359   -0.9334    5.3157 C   0  0  0  0  0  0  0  0  0  0  0  0
    2.8215   -0.8867    3.9875 C   0  0  0  0  0  0  0  0  0  0  0  0
    2.4923   -0.0014   -1.1838 N   0  0  0  0  0  0  0  0  0  0  0  0
    3.8998    0.0314   -1.3430 C   0  0  0  0  0  0  0  0  0  0  0  0
    4.8090    0.0677   -0.2805 C   0  0  0  0  0  0  0  0  0  0  0  0
    6.1743    0.0910   -0.5503 C   0  0  0  0  0  0  0  0  0  0  0  0
    6.6426    0.0812   -1.8622 C   0  0  0  0  0  0  0  0  0  0  0  0
    5.7342    0.0516   -2.9196 C   0  0  0  0  0  0  0  0  0  0  0  0
    4.3671    0.0264   -2.6725 C   0  0  0  0  0  0  0  0  0  0  0  0
   -0.3530    2.4690    1.9041 H   0  0  0  0  0  0  0  0  0  0  0  0
   -1.4888    4.5312    2.6107 H   0  0  0  0  0  0  0  0  0  0  0  0
   -3.4993    4.4267    4.0681 H   0  0  0  0  0  0  0  0  0  0  0  0
   -4.3723    2.2260    4.8086 H   0  0  0  0  0  0  0  0  0  0  0  0
   -3.2767    0.1436    4.0944 H   0  0  0  0  0  0  0  0  0  0  0  0
   -0.6862   -2.0783    2.8955 H   0  0  0  0  0  0  0  0  0  0  0  0
   -2.3523   -1.5914    3.2817 H   0  0  0  0  0  0  0  0  0  0  0  0
   -0.9904   -1.0753    4.3421 H   0  0  0  0  0  0  0  0  0  0  0  0
    0.4711    1.5729    4.2488 H   0  0  0  0  0  0  0  0  0  0  0  0
    1.2054    1.4704    6.6108 H   0  0  0  0  0  0  0  0  0  0  0  0
    2.9705   -0.1345    7.2997 H   0  0  0  0  0  0  0  0  0  0  0  0
    4.0210   -1.6250    5.6135 H   0  0  0  0  0  0  0  0  0  0  0  0
    3.2837   -1.5318    3.2389 H   0  0  0  0  0  0  0  0  0  0  0  0
    1.9501   -0.0170   -2.0457 H   0  0  0  0  0  0  0  0  0  0  0  0
    4.4687    0.0825    0.7604 H   0  0  0  0  0  0  0  0  0  0  0  0
    6.8815    0.1185    0.2790 H   0  0  0  0  0  0  0  0  0  0  0  0
    7.7103    0.0980   -2.0618 H   0  0  0  0  0  0  0  0  0  0  0  0
    6.0979    0.0493   -3.9464 H   0  0  0  0  0  0  0  0  0  0  0  0
    3.6701    0.0046   -3.5051 H   0  0  0  0  0  0  0  0  0  0  0  0
  1  5  1  0  0  0  0
  2  1  1  0  0  0  0
  2  3  2  0  0  0  0
  3  4  2  0  0  0  0
  4 14  1  0  0  0  0
  5  4  1  0  0  0  0
  5  6  1  1  0  0  0
  6  7  1  0  0  0  0
  6 13  1  0  0  0  0
  7 12  2  0  0  0  0
  8  9  2  0  0  0  0
  8  7  1  0  0  0  0
  9 10  1  0  0  0  0
 10 29  1  0  0  0  0
 10 11  2  0  0  0  0
 11 30  1  0  0  0  0
 12 31  1  0  0  0  0
 12 11  1  0  0  0  0
 13 34  1  0  0  0  0
 14 19  2  0  0  0  0
 14 15  1  0  0  0  0
 15 16  2  0  0  0  0
 16 17  1  0  0  0  0
 16 36  1  0  0  0  0
 17 37  1  0  0  0  0
 18 38  1  0  0  0  0
 18 17  2  0  0  0  0
 19 18  1  0  0  0  0
 20  2  1  0  0  0  0
 21 20  1  0  0  0  0
 21 22  2  0  0  0  0
 22 41  1  0  0  0  0
 23 22  1  0  0  0  0
 23 42  1  0  0  0  0
 24 23  2  0  0  0  0
 25 26  2  0  0  0  0
 25 24  1  0  0  0  0
 26 21  1  0  0  0  0
 27  8  1  0  0  0  0
 28  9  1  0  0  0  0
 32 13  1  0  0  0  0
 33 13  1  0  0  0  0
 35 15  1  0  0  0  0
 39 19  1  0  0  0  0
 40 20  1  0  0  0  0
 43 24  1  0  0  0  0
 44 25  1  0  0  0  0
 45 26  1  0  0  0  0
M  RAD  1   5   2
M  END
$$$$
