45
rmsd23.gzmat
S          0.00000        0.00000        0.00000
C          1.80950        0.00000        0.00000
N          2.33340        0.00000        1.21830
C          1.35790        0.02790        2.21540
C          0.05370        0.03430        1.77710
N         -1.17240       -0.01170        2.45040
C         -1.71930        1.21730        2.89510
C         -2.87830        1.21240        3.69200
C         -3.48660        2.41460        4.03550
C         -2.95830        3.62900        3.60210
C         -1.80500        3.63600        2.82050
C         -1.18030        2.44500        2.47050
C         -1.29340       -1.16890        3.36190
C          1.81040        0.01360        3.60520
C          1.25620        0.89120        4.54070
C          1.67780        0.84640        5.86670
C          2.65490       -0.06740        6.25900
C          3.21930       -0.93250        5.32280
C          2.80300       -0.89150        3.99490
N          2.49170        0.00830       -1.18440
C          3.89970        0.03430       -1.34050
C          4.37620       -0.13250       -2.65530
C          5.74380       -0.09770       -2.89910
C          6.64400        0.09560       -1.85190
C          6.16610        0.25870       -0.55340
C          4.79990        0.23290       -0.28810
H         -3.31320        0.27740        4.03100
H         -4.38640        2.40390        4.64970
H         -3.44200        4.56270        3.87170
H         -1.38380        4.58190        2.48030
H         -0.27450        2.47800        1.86940
H         -0.71670       -2.02500        2.97070
H         -2.35200       -1.47980        3.40670
H         -0.93300       -0.94890        4.38100
H          0.50130        1.61590        4.23320
H          1.24360        1.52860        6.59520
H          2.98060       -0.10180        7.29630
H          3.98830       -1.63880        5.62710
H          3.24900       -1.55450        3.25220
H          1.95130       -0.05560       -2.04520
H          3.68690       -0.28980       -3.47970
H          6.11390       -0.22360       -3.91590
H          7.71220        0.11990       -2.04900
H          6.86600        0.41010        0.26870
H          4.45090        0.36940        0.74070
