rmsd2.gzmat
 OpenBabel08211713373D

 45 48  0  0  1  0  0  0  0  0999 V2000
    0.0000    0.0000    0.0000 S   0  0  0  0  0  0  0  0  0  0  0  0
    1.8086    0.0000    0.0000 C   0  0  0  0  0  0  0  0  0  0  0  0
    2.3342    0.0000    1.2181 N   0  0  0  0  0  0  0  0  0  0  0  0
    1.3590    0.0196    2.2155 C   0  0  0  0  0  0  0  0  0  0  0  0
    0.0542    0.0202    1.7772 C   0  0  2  0  0  0  0  0  0  0  0  0
   -1.1717   -0.0486    2.4484 N   0  0  0  0  0  0  0  0  0  0  0  0
   -1.7145    1.1550    2.9576 C   0  0  0  0  0  0  0  0  0  0  0  0
   -2.8358    1.1108    3.8055 C   0  0  0  0  0  0  0  0  0  0  0  0
   -3.4388    2.2938    4.2176 C   0  0  0  0  0  0  0  0  0  0  0  0
   -2.9389    3.5284    3.8094 C   0  0  0  0  0  0  0  0  0  0  0  0
   -1.8235    3.5743    2.9753 C   0  0  0  0  0  0  0  0  0  0  0  0
   -1.2087    2.4032    2.5495 C   0  0  0  0  0  0  0  0  0  0  0  0
   -1.3067   -1.2601    3.2839 C   0  0  0  0  0  0  0  0  0  0  0  0
    1.8040   -0.0012    3.6077 C   0  0  0  0  0  0  0  0  0  0  0  0
    1.2274    0.8588    4.5463 C   0  0  0  0  0  0  0  0  0  0  0  0
    1.6171    0.7922    5.8807 C   0  0  0  0  0  0  0  0  0  0  0  0
    2.5871   -0.1262    6.2792 C   0  0  0  0  0  0  0  0  0  0  0  0
    3.1847   -0.9632    5.3381 C   0  0  0  0  0  0  0  0  0  0  0  0
    2.8013   -0.8985    4.0011 C   0  0  0  0  0  0  0  0  0  0  0  0
    2.4882    0.0066   -1.1856 N   0  0  0  0  0  0  0  0  0  0  0  0
    3.8962   -0.0123   -1.3428 C   0  0  0  0  0  0  0  0  0  0  0  0
    4.3661   -0.2371   -2.6510 C   0  0  0  0  0  0  0  0  0  0  0  0
    5.7340   -0.2580   -2.8936 C   0  0  0  0  0  0  0  0  0  0  0  0
    6.6394   -0.0583   -1.8523 C   0  0  0  0  0  0  0  0  0  0  0  0
    6.1672    0.1708   -0.5617 C   0  0  0  0  0  0  0  0  0  0  0  0
    4.8010    0.1984   -0.2970 C   0  0  0  0  0  0  0  0  0  0  0  0
   -3.2471    0.1613    4.1333 H   0  0  0  0  0  0  0  0  0  0  0  0
   -4.3117    2.2513    4.8676 H   0  0  0  0  0  0  0  0  0  0  0  0
   -3.4143    4.4470    4.1381 H   0  0  0  0  0  0  0  0  0  0  0  0
   -1.4244    4.5368    2.6560 H   0  0  0  0  0  0  0  0  0  0  0  0
   -0.3370    2.4653    1.9028 H   0  0  0  0  0  0  0  0  0  0  0  0
   -0.7477   -2.0978    2.8319 H   0  0  0  0  0  0  0  0  0  0  0  0
   -2.3702   -1.5560    3.3171 H   0  0  0  0  0  0  0  0  0  0  0  0
   -0.9357   -1.1135    4.3121 H   0  0  0  0  0  0  0  0  0  0  0  0
    0.4781    1.5875    4.2348 H   0  0  0  0  0  0  0  0  0  0  0  0
    1.1637    1.4604    6.6105 H   0  0  0  0  0  0  0  0  0  0  0  0
    2.8814   -0.1843    7.3250 H   0  0  0  0  0  0  0  0  0  0  0  0
    3.9541   -1.6677    5.6462 H   0  0  0  0  0  0  0  0  0  0  0  0
    3.2772   -1.5374    3.2554 H   0  0  0  0  0  0  0  0  0  0  0  0
    1.9470   -0.0498   -2.0462 H   0  0  0  0  0  0  0  0  0  0  0  0
    3.6721   -0.3973   -3.4710 H   0  0  0  0  0  0  0  0  0  0  0  0
    6.0989   -0.4336   -3.9046 H   0  0  0  0  0  0  0  0  0  0  0  0
    7.7080   -0.0805   -2.0482 H   0  0  0  0  0  0  0  0  0  0  0  0
    6.8720    0.3325    0.2543 H   0  0  0  0  0  0  0  0  0  0  0  0
    4.4541    0.3843    0.7248 H   0  0  0  0  0  0  0  0  0  0  0  0
  1  2  1  0  0  0  0
  1  5  1  0  0  0  0
  2  3  2  0  0  0  0
  3  4  2  0  0  0  0
  4 14  1  0  0  0  0
  5  4  1  0  0  0  0
  5  6  1  1  0  0  0
  6  7  1  0  0  0  0
  6 13  1  0  0  0  0
  7  8  1  0  0  0  0
  8 27  1  0  0  0  0
  8  9  2  0  0  0  0
  9 28  1  0  0  0  0
 10 29  1  0  0  0  0
 10  9  1  0  0  0  0
 11 10  2  0  0  0  0
 12  7  2  0  0  0  0
 12 11  1  0  0  0  0
 13 33  1  0  0  0  0
 13 34  1  0  0  0  0
 14 19  2  0  0  0  0
 14 15  1  0  0  0  0
 15 16  2  0  0  0  0
 16 17  1  0  0  0  0
 16 36  1  0  0  0  0
 17 37  1  0  0  0  0
 18 38  1  0  0  0  0
 18 17  2  0  0  0  0
 19 18  1  0  0  0  0
 20  2  1  0  0  0  0
 21 20  1  0  0  0  0
 21 26  2  0  0  0  0
 22 21  1  0  0  0  0
 23 22  2  0  0  0  0
 23 24  1  0  0  0  0
 24 25  2  0  0  0  0
 25 26  1  0  0  0  0
 25 44  1  0  0  0  0
 26 45  1  0  0  0  0
 30 11  1  0  0  0  0
 31 12  1  0  0  0  0
 32 13  1  0  0  0  0
 35 15  1  0  0  0  0
 39 19  1  0  0  0  0
 40 20  1  0  0  0  0
 41 22  1  0  0  0  0
 42 23  1  0  0  0  0
 43 24  1  0  0  0  0
M  RAD  1   5   2
M  END
$$$$
