rmsd176.gzmat
 OpenBabel08211713393D

 53 56  0  0  1  0  0  0  0  0999 V2000
    0.0000    0.0000    0.0000 N   0  0  0  0  0  0  0  0  0  0  0  0
    1.3909    0.0000    0.0000 C   0  0  0  0  0  0  0  0  0  0  0  0
    1.8541    0.0000    1.3124 C   0  0  0  0  0  0  0  0  0  0  0  0
    0.7097    0.0069    2.1666 C   0  0  0  0  0  0  0  0  0  0  0  0
    0.5382    0.0048    3.5570 C   0  0  0  0  0  0  0  0  0  0  0  0
   -0.7441    0.0115    4.0686 C   0  0  0  0  0  0  0  0  0  0  0  0
   -1.8754    0.0160    3.2201 C   0  0  0  0  0  0  0  0  0  0  0  0
   -1.7477    0.0190    1.8463 C   0  0  0  0  0  0  0  0  0  0  0  0
   -0.4470    0.0147    1.3175 C   0  0  0  0  0  0  0  0  0  0  0  0
    2.2046   -0.0774   -1.2690 C   0  0  2  0  0  0  0  0  0  0  0  0
    1.5206    0.6872   -2.2386 O   0  0  0  0  0  0  0  0  0  0  0  0
    2.2125   -1.5272   -1.7207 C   0  0  0  0  0  0  0  0  0  0  0  0
    1.6356   -1.8885   -2.9376 C   0  0  0  0  0  0  0  0  0  0  0  0
    1.6120   -3.2265   -3.3260 C   0  0  0  0  0  0  0  0  0  0  0  0
    2.1640   -4.2037   -2.5005 C   0  0  0  0  0  0  0  0  0  0  0  0
    2.7353   -3.8425   -1.2812 C   0  0  0  0  0  0  0  0  0  0  0  0
    2.7572   -2.5069   -0.8889 C   0  0  0  0  0  0  0  0  0  0  0  0
    3.6175    0.4889   -1.0123 C   0  0  0  0  0  0  0  0  0  0  0  0
    4.4899    0.7367   -2.2566 C   0  0  2  0  0  0  0  0  0  0  0  0
    3.8494    1.8272   -2.9216 O   0  0  0  0  0  0  0  0  0  0  0  0
    4.5859   -0.4331   -3.2307 C   0  0  0  0  0  0  0  0  0  0  0  0
    5.8604    1.1950   -1.7955 C   0  0  0  0  0  0  0  0  0  0  0  0
    6.8230    0.2616   -1.4093 C   0  0  0  0  0  0  0  0  0  0  0  0
    8.0757    0.6915   -0.9787 C   0  0  0  0  0  0  0  0  0  0  0  0
    8.3703    2.0534   -0.9322 C   0  0  0  0  0  0  0  0  0  0  0  0
    7.4042    2.9857   -1.3050 C   0  0  0  0  0  0  0  0  0  0  0  0
    6.1482    2.5578   -1.7308 C   0  0  0  0  0  0  0  0  0  0  0  0
   -0.8460    0.0782   -1.1747 C   0  0  0  0  0  0  0  0  0  0  0  0
    2.8667    0.0015    1.6449 H   0  0  0  0  0  0  0  0  0  0  0  0
    1.4081   -0.0013    4.2078 H   0  0  0  0  0  0  0  0  0  0  0  0
   -0.9022    0.0128    5.1441 H   0  0  0  0  0  0  0  0  0  0  0  0
   -2.8652    0.0166    3.6729 H   0  0  0  0  0  0  0  0  0  0  0  0
   -2.6144    0.0234    1.1953 H   0  0  0  0  0  0  0  0  0  0  0  0
    2.1492    1.3057   -2.6859 H   0  0  0  0  0  0  0  0  0  0  0  0
    1.1995   -1.1245   -3.5835 H   0  0  0  0  0  0  0  0  0  0  0  0
    1.1573   -3.5082   -4.2729 H   0  0  0  0  0  0  0  0  0  0  0  0
    2.1429   -5.2474   -2.8043 H   0  0  0  0  0  0  0  0  0  0  0  0
    3.1548   -4.6061   -0.6299 H   0  0  0  0  0  0  0  0  0  0  0  0
    3.1765   -2.2320    0.0792 H   0  0  0  0  0  0  0  0  0  0  0  0
    4.1660   -0.1750   -0.3151 H   0  0  0  0  0  0  0  0  0  0  0  0
    3.5050    1.4639   -0.4798 H   0  0  0  0  0  0  0  0  0  0  0  0
    4.2304    1.9779   -3.8070 H   0  0  0  0  0  0  0  0  0  0  0  0
    5.4132   -0.3136   -3.9378 H   0  0  0  0  0  0  0  0  0  0  0  0
    3.6591   -0.5373   -3.8140 H   0  0  0  0  0  0  0  0  0  0  0  0
    4.7312   -1.3880   -2.7089 H   0  0  0  0  0  0  0  0  0  0  0  0
    6.6014   -0.8038   -1.4430 H   0  0  0  0  0  0  0  0  0  0  0  0
    8.8260   -0.0368   -0.6784 H   0  0  0  0  0  0  0  0  0  0  0  0
    9.3514    2.3872   -0.6012 H   0  0  0  0  0  0  0  0  0  0  0  0
    7.6280    4.0500   -1.2607 H   0  0  0  0  0  0  0  0  0  0  0  0
    5.3863    3.2915   -2.0016 H   0  0  0  0  0  0  0  0  0  0  0  0
   -1.8915   -0.1687   -0.9285 H   0  0  0  0  0  0  0  0  0  0  0  0
   -0.4943   -0.6267   -1.9547 H   0  0  0  0  0  0  0  0  0  0  0  0
   -0.8076    1.0960   -1.6134 H   0  0  0  0  0  0  0  0  0  0  0  0
  1  2  1  0  0  0  0
  1  9  1  0  0  0  0
  2  3  2  0  0  0  0
  3 29  1  0  0  0  0
  3  4  1  0  0  0  0
  4  5  2  0  0  0  0
  5  6  1  0  0  0  0
  5 30  1  0  0  0  0
  6 31  1  0  0  0  0
  7 32  1  0  0  0  0
  7  6  2  0  0  0  0
  8  7  1  0  0  0  0
  9  8  2  0  0  0  0
  9  4  1  0  0  0  0
 10 11  1  6  0  0  0
 10 18  1  0  0  0  0
 10  2  1  0  0  0  0
 12 10  1  0  0  0  0
 12 17  2  0  0  0  0
 13 12  1  0  0  0  0
 14 13  2  0  0  0  0
 14 15  1  0  0  0  0
 15 16  2  0  0  0  0
 16 17  1  0  0  0  0
 16 38  1  0  0  0  0
 17 39  1  0  0  0  0
 18 41  1  0  0  0  0
 18 40  1  0  0  0  0
 19 20  1  6  0  0  0
 19 22  1  0  0  0  0
 19 18  1  0  0  0  0
 21 45  1  0  0  0  0
 21 19  1  0  0  0  0
 22 27  2  0  0  0  0
 22 23  1  0  0  0  0
 23 24  2  0  0  0  0
 24 25  1  0  0  0  0
 24 47  1  0  0  0  0
 25 48  1  0  0  0  0
 26 49  1  0  0  0  0
 26 25  2  0  0  0  0
 27 26  1  0  0  0  0
 28 51  1  0  0  0  0
 28  1  1  0  0  0  0
 33  8  1  0  0  0  0
 34 11  1  0  0  0  0
 35 13  1  0  0  0  0
 36 14  1  0  0  0  0
 37 15  1  0  0  0  0
 42 20  1  0  0  0  0
 43 21  1  0  0  0  0
 44 21  1  0  0  0  0
 46 23  1  0  0  0  0
 50 27  1  0  0  0  0
 52 28  1  0  0  0  0
 53 28  1  0  0  0  0
M  END
$$$$
