53

N          0.04660       -0.10070        0.09700
C          1.42770        0.05450        0.04410
C          1.91930        0.19000        1.32670
C          0.80440        0.13010        2.22730
C          0.66420        0.20850        3.62480
C         -0.60760        0.12440        4.18250
C         -1.74810       -0.03340        3.36630
C         -1.64040       -0.11360        1.97990
C         -0.35730       -0.04040        1.41880
C          2.17640        0.01820       -1.27580
O          1.54600        0.95430       -2.13640
C          2.10640       -1.40800       -1.85430
C          1.69250       -1.62640       -3.17290
C          1.68720       -2.91630       -3.71230
C          2.09210       -4.00460       -2.93580
C          2.48880       -3.79510       -1.61080
C          2.48960       -2.50700       -1.07370
C          3.64460        0.44920       -1.01530
C          4.63090        0.50740       -2.20710
O          3.94330        1.20020       -3.26470
C          5.08200       -0.86360       -2.73070
C          5.83930        1.33300       -1.74600
C          6.85050        0.76090       -0.95900
C          7.92520        1.52920       -0.50670
C          8.00880        2.88500       -0.83540
C          7.00490        3.46500       -1.61360
C          5.92700        2.69610       -2.06070
C         -0.86820       -0.18650       -1.02350
H          2.96030        0.32190        1.60580
H          1.54390        0.33680        4.26050
H         -0.72990        0.18520        5.26660
H         -2.73600       -0.09030        3.82980
H         -2.53080       -0.22560        1.35880
H          2.21330        1.21540       -2.79530
H          1.38000       -0.77160       -3.77300
H          1.36370       -3.07080       -4.74480
H          2.08920       -5.01310       -3.35630
H          2.79260       -4.64180       -0.99030
H          2.78220       -2.35020       -0.03290
H          4.09340       -0.20500       -0.25670
H          3.59140        1.45590       -0.57760
H          4.49970        1.19950       -4.05530
H          5.90000       -0.73170       -3.45770
H          4.25270       -1.38710       -3.21740
H          5.45330       -1.50720       -1.92230
H          6.80370       -0.29590       -0.68960
H          8.70240        1.06460        0.10490
H          8.85090        3.48580       -0.48390
H          7.05600        4.52560       -1.87220
H          5.13570        3.15380       -2.65540
H         -1.77910       -0.70760       -0.69910
H         -0.41790       -0.75920       -1.84030
H         -1.13320        0.81090       -1.40700
