rmsd155.gzmat
 OpenBabel08211713393D

 53 56  0  0  1  0  0  0  0  0999 V2000
    0.0000    0.0000    0.0000 N   0  0  0  0  0  0  0  0  0  0  0  0
    1.3910    0.0000    0.0000 C   0  0  0  0  0  0  0  0  0  0  0  0
    1.8533    0.0000    1.3127 C   0  0  0  0  0  0  0  0  0  0  0  0
    0.7082    0.0138    2.1662 C   0  0  0  0  0  0  0  0  0  0  0  0
    0.5365    0.0205    3.5565 C   0  0  0  0  0  0  0  0  0  0  0  0
   -0.7455    0.0318    4.0685 C   0  0  0  0  0  0  0  0  0  0  0  0
   -1.8762    0.0346    3.2198 C   0  0  0  0  0  0  0  0  0  0  0  0
   -1.7486    0.0292    1.8458 C   0  0  0  0  0  0  0  0  0  0  0  0
   -0.4481    0.0200    1.3169 C   0  0  0  0  0  0  0  0  0  0  0  0
    2.2008   -0.0598   -1.2722 C   0  0  2  0  0  0  0  0  0  0  0  0
    1.5273    0.7479   -2.2147 O   0  0  0  0  0  0  0  0  0  0  0  0
    2.1900   -1.4932   -1.7723 C   0  0  0  0  0  0  0  0  0  0  0  0
    1.6434   -1.7990   -3.0182 C   0  0  0  0  0  0  0  0  0  0  0  0
    1.6293   -3.1175   -3.4679 C   0  0  0  0  0  0  0  0  0  0  0  0
    2.1563   -4.1324   -2.6720 C   0  0  0  0  0  0  0  0  0  0  0  0
    2.6893   -3.8286   -1.4201 C   0  0  0  0  0  0  0  0  0  0  0  0
    2.7031   -2.5121   -0.9672 C   0  0  0  0  0  0  0  0  0  0  0  0
    3.6238    0.4774   -1.0053 C   0  0  0  0  0  0  0  0  0  0  0  0
    4.5193    0.6955   -2.2389 C   0  0  2  0  0  0  0  0  0  0  0  0
    3.8975    1.7735   -2.9391 O   0  0  0  0  0  0  0  0  0  0  0  0
    4.6368   -0.4972   -3.1836 C   0  0  0  0  0  0  0  0  0  0  0  0
    5.8877    1.1500   -1.7654 C   0  0  0  0  0  0  0  0  0  0  0  0
    6.8079    0.2141   -1.2902 C   0  0  0  0  0  0  0  0  0  0  0  0
    8.0651    0.6301   -0.8598 C   0  0  0  0  0  0  0  0  0  0  0  0
    8.4050    1.9819   -0.8984 C   0  0  0  0  0  0  0  0  0  0  0  0
    7.4804    2.9175   -1.3571 C   0  0  0  0  0  0  0  0  0  0  0  0
    6.2199    2.5032   -1.7849 C   0  0  0  0  0  0  0  0  0  0  0  0
   -0.8469    0.0659   -1.1750 C   0  0  0  0  0  0  0  0  0  0  0  0
    2.8651   -0.0031    1.6477 H   0  0  0  0  0  0  0  0  0  0  0  0
    1.4063    0.0177    4.2072 H   0  0  0  0  0  0  0  0  0  0  0  0
   -0.9037    0.0391    5.1441 H   0  0  0  0  0  0  0  0  0  0  0  0
   -2.8661    0.0416    3.6723 H   0  0  0  0  0  0  0  0  0  0  0  0
   -2.6156    0.0322    1.1958 H   0  0  0  0  0  0  0  0  0  0  0  0
    2.1760    1.3301   -2.6818 H   0  0  0  0  0  0  0  0  0  0  0  0
    1.2266   -1.0055   -3.6408 H   0  0  0  0  0  0  0  0  0  0  0  0
    1.2038   -3.3545   -4.4403 H   0  0  0  0  0  0  0  0  0  0  0  0
    2.1456   -5.1608   -3.0247 H   0  0  0  0  0  0  0  0  0  0  0  0
    3.0879   -4.6222   -0.7917 H   0  0  0  0  0  0  0  0  0  0  0  0
    3.0948   -2.2821    0.0238 H   0  0  0  0  0  0  0  0  0  0  0  0
    4.1484   -0.1924   -0.2955 H   0  0  0  0  0  0  0  0  0  0  0  0
    3.5248    1.4597   -0.4835 H   0  0  0  0  0  0  0  0  0  0  0  0
    4.2783    1.8872   -3.8301 H   0  0  0  0  0  0  0  0  0  0  0  0
    5.5035   -0.4132   -3.8476 H   0  0  0  0  0  0  0  0  0  0  0  0
    3.7406   -0.5945   -3.8128 H   0  0  0  0  0  0  0  0  0  0  0  0
    4.7343   -1.4433   -2.6346 H   0  0  0  0  0  0  0  0  0  0  0  0
    6.5479   -0.8424   -1.2547 H   0  0  0  0  0  0  0  0  0  0  0  0
    8.7836   -0.1000   -0.4929 H   0  0  0  0  0  0  0  0  0  0  0  0
    9.3897    2.3052   -0.5673 H   0  0  0  0  0  0  0  0  0  0  0  0
    7.7397    3.9744   -1.3773 H   0  0  0  0  0  0  0  0  0  0  0  0
    5.4905    3.2418   -2.1223 H   0  0  0  0  0  0  0  0  0  0  0  0
   -1.8818   -0.2265   -0.9335 H   0  0  0  0  0  0  0  0  0  0  0  0
   -0.4684   -0.6121   -1.9660 H   0  0  0  0  0  0  0  0  0  0  0  0
   -0.8466    1.0911   -1.5971 H   0  0  0  0  0  0  0  0  0  0  0  0
  1  2  1  0  0  0  0
  1  9  1  0  0  0  0
  2  3  2  0  0  0  0
  3 29  1  0  0  0  0
  3  4  1  0  0  0  0
  4  5  2  0  0  0  0
  5  6  1  0  0  0  0
  5 30  1  0  0  0  0
  6 31  1  0  0  0  0
  7 32  1  0  0  0  0
  7  6  2  0  0  0  0
  8  7  1  0  0  0  0
  9  8  2  0  0  0  0
  9  4  1  0  0  0  0
 10 11  1  6  0  0  0
 10 18  1  0  0  0  0
 10  2  1  0  0  0  0
 12 10  1  0  0  0  0
 12 17  2  0  0  0  0
 13 12  1  0  0  0  0
 14 13  2  0  0  0  0
 14 15  1  0  0  0  0
 15 16  2  0  0  0  0
 16 17  1  0  0  0  0
 16 38  1  0  0  0  0
 17 39  1  0  0  0  0
 18 41  1  0  0  0  0
 18 40  1  0  0  0  0
 19 20  1  6  0  0  0
 19 22  1  0  0  0  0
 19 18  1  0  0  0  0
 21 45  1  0  0  0  0
 21 19  1  0  0  0  0
 22 23  1  0  0  0  0
 23 46  1  0  0  0  0
 23 24  2  0  0  0  0
 24 47  1  0  0  0  0
 25 24  1  0  0  0  0
 25 48  1  0  0  0  0
 26 25  2  0  0  0  0
 27 22  2  0  0  0  0
 27 26  1  0  0  0  0
 28 51  1  0  0  0  0
 28  1  1  0  0  0  0
 33  8  1  0  0  0  0
 34 11  1  0  0  0  0
 35 13  1  0  0  0  0
 36 14  1  0  0  0  0
 37 15  1  0  0  0  0
 42 20  1  0  0  0  0
 43 21  1  0  0  0  0
 44 21  1  0  0  0  0
 49 26  1  0  0  0  0
 50 27  1  0  0  0  0
 52 28  1  0  0  0  0
 53 28  1  0  0  0  0
M  END
$$$$
