53
rmsd194.gzmat
N          0.00000        0.00000        0.00000
C          1.39110        0.00000        0.00000
C          1.85450        0.00000        1.31240
C          0.70980        0.01050        2.16630
C          0.53960        0.01630        3.55680
C         -0.74220        0.01410        4.06950
C         -1.87370        0.00370        3.22160
C         -1.74730        0.00430        1.84760
C         -0.44720        0.01200        1.31730
C          2.20350       -0.07060       -1.26990
O          1.53180        0.71380       -2.23240
C          2.19840       -1.51380       -1.74300
C          1.61190       -1.85630       -2.96060
C          1.58430       -3.18820       -3.36940
C          2.14240       -4.17870       -2.56410
C          2.72280       -3.83660       -1.34360
C          2.74700       -2.50750       -0.93020
C          3.62420        0.47050       -1.00420
C          4.47590        0.77200       -2.25060
O          3.85470        1.92830       -2.81650
C          4.50110       -0.32540       -3.30940
C          5.87270        1.14520       -1.79310
C          6.19830        2.48600       -1.59320
C          7.47640        2.83610       -1.16220
C          8.42800        1.84730       -0.92180
C          8.09740        0.50550       -1.10550
C          6.82100        0.15350       -1.53730
C         -0.84570        0.06570       -1.17590
H          2.86680       -0.00800        1.64640
H          1.41060        0.02260        4.20600
H         -0.90020        0.01770        5.14510
H         -2.86290       -0.00700        3.67560
H         -2.61440       -0.00350        1.19770
H          2.15010        1.37870       -2.62320
H          1.17240       -1.08190       -3.59160
H          1.12270       -3.45500       -4.31720
H          2.11910       -5.21760       -2.88380
H          3.14870       -4.61030       -0.70820
H          3.17240       -2.24800        0.03920
H          4.17720       -0.23080       -0.34890
H          3.53110        1.42010       -0.42380
H          4.23760        2.14760       -3.68650
H          5.29880       -0.17070       -4.04320
H          3.54720       -0.36720       -3.85610
H          4.64560       -1.31860       -2.86440
H          5.44930        3.26190       -1.76360
H          7.72900        3.88360       -1.00880
H          9.42630        2.12160       -0.58750
H          8.83760       -0.26770       -0.91010
H          6.56810       -0.89710       -1.67140
H         -1.88890       -0.19170       -0.93020
H         -0.48500       -0.63820       -1.95270
H         -0.81820        1.08270       -1.61770
