rmsd167.gzmat
 OpenBabel08211713393D

 53 56  0  0  1  0  0  0  0  0999 V2000
    0.0000    0.0000    0.0000 N   0  0  0  0  0  0  0  0  0  0  0  0
    1.3908    0.0000    0.0000 C   0  0  0  0  0  0  0  0  0  0  0  0
    1.8536    0.0000    1.3128 C   0  0  0  0  0  0  0  0  0  0  0  0
    0.7087    0.0117    2.1665 C   0  0  0  0  0  0  0  0  0  0  0  0
    0.5371    0.0159    3.5568 C   0  0  0  0  0  0  0  0  0  0  0  0
   -0.7450    0.0277    4.0682 C   0  0  0  0  0  0  0  0  0  0  0  0
   -1.8761    0.0326    3.2197 C   0  0  0  0  0  0  0  0  0  0  0  0
   -1.7484    0.0284    1.8456 C   0  0  0  0  0  0  0  0  0  0  0  0
   -0.4477    0.0186    1.3172 C   0  0  0  0  0  0  0  0  0  0  0  0
    2.2046   -0.0634   -1.2694 C   0  0  2  0  0  0  0  0  0  0  0  0
    1.5304    0.7170   -2.2336 O   0  0  0  0  0  0  0  0  0  0  0  0
    2.2147   -1.5048   -1.7467 C   0  0  0  0  0  0  0  0  0  0  0  0
    2.7723   -2.4944   -0.9348 C   0  0  0  0  0  0  0  0  0  0  0  0
    2.7731   -3.8210   -1.3564 C   0  0  0  0  0  0  0  0  0  0  0  0
    2.2112   -4.1646   -2.5851 C   0  0  0  0  0  0  0  0  0  0  0  0
    1.6424   -3.1789   -3.3887 C   0  0  0  0  0  0  0  0  0  0  0  0
    1.6414   -1.8497   -2.9699 C   0  0  0  0  0  0  0  0  0  0  0  0
    3.6201    0.4901   -1.0012 C   0  0  0  0  0  0  0  0  0  0  0  0
    4.4679    0.8031   -2.2476 C   0  0  2  0  0  0  0  0  0  0  0  0
    3.8429    1.9652   -2.7963 O   0  0  0  0  0  0  0  0  0  0  0  0
    4.4900   -0.2812   -3.3200 C   0  0  0  0  0  0  0  0  0  0  0  0
    5.8689    1.1636   -1.7932 C   0  0  0  0  0  0  0  0  0  0  0  0
    6.7845    0.1564   -1.4838 C   0  0  0  0  0  0  0  0  0  0  0  0
    8.0650    0.4888   -1.0492 C   0  0  0  0  0  0  0  0  0  0  0  0
    8.4341    1.8271   -0.9197 C   0  0  0  0  0  0  0  0  0  0  0  0
    7.5161    2.8319   -1.2172 C   0  0  0  0  0  0  0  0  0  0  0  0
    6.2327    2.5012   -1.6485 C   0  0  0  0  0  0  0  0  0  0  0  0
   -0.8478    0.0714   -1.1737 C   0  0  0  0  0  0  0  0  0  0  0  0
    2.8659   -0.0028    1.6470 H   0  0  0  0  0  0  0  0  0  0  0  0
    1.4066    0.0105    4.2078 H   0  0  0  0  0  0  0  0  0  0  0  0
   -0.9027    0.0332    5.1438 H   0  0  0  0  0  0  0  0  0  0  0  0
   -2.8654    0.0386    3.6732 H   0  0  0  0  0  0  0  0  0  0  0  0
   -2.6151    0.0321    1.1948 H   0  0  0  0  0  0  0  0  0  0  0  0
    2.1398    1.3998   -2.6074 H   0  0  0  0  0  0  0  0  0  0  0  0
    3.1870   -2.2332    0.0387 H   0  0  0  0  0  0  0  0  0  0  0  0
    3.2059   -4.5916   -0.7224 H   0  0  0  0  0  0  0  0  0  0  0  0
    2.2105   -5.2016   -2.9118 H   0  0  0  0  0  0  0  0  0  0  0  0
    1.1955   -3.4460   -4.3436 H   0  0  0  0  0  0  0  0  0  0  0  0
    1.1911   -1.0793   -3.5984 H   0  0  0  0  0  0  0  0  0  0  0  0
    4.1785   -0.2067   -0.3461 H   0  0  0  0  0  0  0  0  0  0  0  0
    3.5173    1.4387   -0.4202 H   0  0  0  0  0  0  0  0  0  0  0  0
    4.2082    2.1847   -3.6739 H   0  0  0  0  0  0  0  0  0  0  0  0
    5.2924   -0.1234   -4.0482 H   0  0  0  0  0  0  0  0  0  0  0  0
    3.5376   -0.3107   -3.8705 H   0  0  0  0  0  0  0  0  0  0  0  0
    4.6293   -1.2804   -2.8865 H   0  0  0  0  0  0  0  0  0  0  0  0
    6.5030   -0.8911   -1.5789 H   0  0  0  0  0  0  0  0  0  0  0  0
    8.7776   -0.2969   -0.8071 H   0  0  0  0  0  0  0  0  0  0  0  0
    9.4362    2.0851   -0.5834 H   0  0  0  0  0  0  0  0  0  0  0  0
    7.7992    3.8771   -1.1079 H   0  0  0  0  0  0  0  0  0  0  0  0
    5.5099    3.2910   -1.8597 H   0  0  0  0  0  0  0  0  0  0  0  0
   -1.8817   -0.2265   -0.9336 H   0  0  0  0  0  0  0  0  0  0  0  0
   -0.4673   -0.5990   -1.9703 H   0  0  0  0  0  0  0  0  0  0  0  0
   -0.8522    1.1000   -1.5874 H   0  0  0  0  0  0  0  0  0  0  0  0
  1  9  1  0  0  0  0
  2  1  1  0  0  0  0
  2  3  2  0  0  0  0
  3 29  1  0  0  0  0
  3  4  1  0  0  0  0
  4  5  2  0  0  0  0
  5  6  1  0  0  0  0
  5 30  1  0  0  0  0
  6 31  1  0  0  0  0
  7 32  1  0  0  0  0
  7  6  2  0  0  0  0
  8  7  1  0  0  0  0
  9  8  2  0  0  0  0
  9  4  1  0  0  0  0
 10 11  1  6  0  0  0
 10 18  1  0  0  0  0
 10  2  1  0  0  0  0
 12 10  1  0  0  0  0
 12 13  2  0  0  0  0
 13 35  1  0  0  0  0
 14 13  1  0  0  0  0
 14 36  1  0  0  0  0
 15 14  2  0  0  0  0
 16 17  2  0  0  0  0
 16 15  1  0  0  0  0
 17 12  1  0  0  0  0
 18 41  1  0  0  0  0
 18 40  1  0  0  0  0
 19 20  1  6  0  0  0
 19 22  1  0  0  0  0
 19 18  1  0  0  0  0
 21 45  1  0  0  0  0
 21 19  1  0  0  0  0
 22 27  2  0  0  0  0
 22 23  1  0  0  0  0
 23 24  2  0  0  0  0
 24 25  1  0  0  0  0
 24 47  1  0  0  0  0
 25 48  1  0  0  0  0
 26 49  1  0  0  0  0
 26 25  2  0  0  0  0
 27 26  1  0  0  0  0
 28 51  1  0  0  0  0
 28  1  1  0  0  0  0
 33  8  1  0  0  0  0
 34 11  1  0  0  0  0
 37 15  1  0  0  0  0
 38 16  1  0  0  0  0
 39 17  1  0  0  0  0
 42 20  1  0  0  0  0
 43 21  1  0  0  0  0
 44 21  1  0  0  0  0
 46 23  1  0  0  0  0
 50 27  1  0  0  0  0
 52 28  1  0  0  0  0
 53 28  1  0  0  0  0
M  END
$$$$
