rmsd47.gzmat
 OpenBabel08211713393D

 53 56  0  0  0  0  0  0  0  0999 V2000
    0.0000    0.0000    0.0000 O   0  0  0  0  0  0  0  0  0  0  0  0
    1.2100    0.0000    0.0000 C   0  0  0  0  0  0  0  0  0  0  0  0
    1.9637    0.0000    1.2815 C   0  0  0  0  0  0  0  0  0  0  0  0
    3.0380   -0.8688    1.4734 C   0  0  0  0  0  0  0  0  0  0  0  0
    3.7139   -0.8698    2.6911 C   0  0  0  0  0  0  0  0  0  0  0  0
    3.3188   -0.0013    3.7085 C   0  0  0  0  0  0  0  0  0  0  0  0
    2.2418    0.8619    3.5149 C   0  0  0  0  0  0  0  0  0  0  0  0
    1.5559    0.8581    2.3019 C   0  0  0  0  0  0  0  0  0  0  0  0
    1.9772   -0.0029   -1.2609 C   0  0  0  0  0  0  0  0  0  0  0  0
    1.3949   -0.5693   -2.3972 C   0  0  0  0  0  0  0  0  0  0  0  0
    2.0747   -0.5848   -3.6078 C   0  0  0  0  0  0  0  0  0  0  0  0
    3.3562   -0.0101   -3.6923 C   0  0  0  0  0  0  0  0  0  0  0  0
    4.1177   -0.0538   -4.8643 N   0  0  0  0  0  0  0  0  0  0  0  0
    3.4717   -0.2733   -6.1634 C   0  0  0  0  0  0  0  0  0  0  0  0
    2.6276    0.8473   -6.5919 N   0  0  0  0  0  0  0  0  0  0  0  0
    3.1998    2.0630   -6.9806 C   0  0  0  0  0  0  0  0  0  0  0  0
    2.3770    3.2109   -6.9782 C   0  0  0  0  0  0  0  0  0  0  0  0
    2.8722    4.4145   -7.4517 C   0  0  0  0  0  0  0  0  0  0  0  0
    4.1859    4.5018   -7.9210 C   0  0  0  0  0  0  0  0  0  0  0  0
    4.7444    5.7723   -8.4263 C   0  0  0  0  0  0  0  0  0  0  0  0
    5.9143    6.0445   -8.2777 O   0  0  0  0  0  0  0  0  0  0  0  0
    3.8380    6.7092   -9.1398 C   0  0  0  0  0  0  0  0  0  0  0  0
    4.0175    8.0814   -8.9624 C   0  0  0  0  0  0  0  0  0  0  0  0
    3.1926    8.9795   -9.6365 C   0  0  0  0  0  0  0  0  0  0  0  0
    2.2015    8.5053  -10.4943 C   0  0  0  0  0  0  0  0  0  0  0  0
    2.0337    7.1334  -10.6817 C   0  0  0  0  0  0  0  0  0  0  0  0
    2.8515    6.2328  -10.0038 C   0  0  0  0  0  0  0  0  0  0  0  0
    5.0103    3.3749   -7.8943 C   0  0  0  0  0  0  0  0  0  0  0  0
    4.5278    2.1566   -7.4347 C   0  0  0  0  0  0  0  0  0  0  0  0
    3.9363    0.5799   -2.5474 C   0  0  0  0  0  0  0  0  0  0  0  0
    3.2481    0.5733   -1.3456 C   0  0  0  0  0  0  0  0  0  0  0  0
    3.3433   -1.5463    0.6758 H   0  0  0  0  0  0  0  0  0  0  0  0
    4.5493   -1.5487    2.8487 H   0  0  0  0  0  0  0  0  0  0  0  0
    3.8512   -0.0012    4.6581 H   0  0  0  0  0  0  0  0  0  0  0  0
    1.9318    1.5349    4.3119 H   0  0  0  0  0  0  0  0  0  0  0  0
    0.6988    1.5156    2.1482 H   0  0  0  0  0  0  0  0  0  0  0  0
    0.3911   -1.0008   -2.3261 H   0  0  0  0  0  0  0  0  0  0  0  0
    1.6142   -1.0510   -4.4715 H   0  0  0  0  0  0  0  0  0  0  0  0
    4.9277    0.5595   -4.8934 H   0  0  0  0  0  0  0  0  0  0  0  0
    2.8321   -1.1936   -6.1190 H   0  0  0  0  0  0  0  0  0  0  0  0
    4.2721   -0.4633   -6.9249 H   0  0  0  0  0  0  0  0  0  0  0  0
    1.7365    0.9111   -6.1061 H   0  0  0  0  0  0  0  0  0  0  0  0
    1.3568    3.1494   -6.6103 H   0  0  0  0  0  0  0  0  0  0  0  0
    2.2348    5.3027   -7.4500 H   0  0  0  0  0  0  0  0  0  0  0  0
    4.8084    8.4431   -8.3024 H   0  0  0  0  0  0  0  0  0  0  0  0
    3.3260   10.0502   -9.4968 H   0  0  0  0  0  0  0  0  0  0  0  0
    1.5595    9.2078  -11.0231 H   0  0  0  0  0  0  0  0  0  0  0  0
    1.2649    6.7663  -11.3581 H   0  0  0  0  0  0  0  0  0  0  0  0
    2.7252    5.1598  -10.1532 H   0  0  0  0  0  0  0  0  0  0  0  0
    6.0453    3.4598   -8.2404 H   0  0  0  0  0  0  0  0  0  0  0  0
    5.1767    1.2882   -7.4447 H   0  0  0  0  0  0  0  0  0  0  0  0
    4.9208    1.0352   -2.6079 H   0  0  0  0  0  0  0  0  0  0  0  0
    3.6982    1.0315   -0.4608 H   0  0  0  0  0  0  0  0  0  0  0  0
  2  1  2  0  0  0  0
  2  3  1  0  0  0  0
  3  4  2  0  0  0  0
  3  8  1  0  0  0  0
  4  5  1  0  0  0  0
  5 33  1  0  0  0  0
  5  6  2  0  0  0  0
  6 34  1  0  0  0  0
  7  6  1  0  0  0  0
  7 35  1  0  0  0  0
  8  7  2  0  0  0  0
  9  2  1  0  0  0  0
 10 37  1  0  0  0  0
 10  9  2  0  0  0  0
 11 10  1  0  0  0  0
 12 11  2  0  0  0  0
 12 30  1  0  0  0  0
 13 12  1  0  0  0  0
 14 40  1  0  0  0  0
 14 13  1  0  0  0  0
 15 14  1  0  0  0  0
 15 42  1  0  0  0  0
 16 17  1  0  0  0  0
 16 15  1  0  0  0  0
 17 43  1  0  0  0  0
 18 44  1  0  0  0  0
 18 17  2  0  0  0  0
 19 28  2  0  0  0  0
 19 18  1  0  0  0  0
 20 21  2  0  0  0  0
 20 19  1  0  0  0  0
 22 23  1  0  0  0  0
 22 20  1  0  0  0  0
 23 45  1  0  0  0  0
 24 46  1  0  0  0  0
 24 23  2  0  0  0  0
 25 24  1  0  0  0  0
 26 25  2  0  0  0  0
 26 27  1  0  0  0  0
 27 22  2  0  0  0  0
 28 29  1  0  0  0  0
 29 16  2  0  0  0  0
 30 31  2  0  0  0  0
 31  9  1  0  0  0  0
 31 53  1  0  0  0  0
 32  4  1  0  0  0  0
 36  8  1  0  0  0  0
 38 11  1  0  0  0  0
 39 13  1  0  0  0  0
 41 14  1  0  0  0  0
 47 25  1  0  0  0  0
 48 26  1  0  0  0  0
 49 27  1  0  0  0  0
 50 28  1  0  0  0  0
 51 29  1  0  0  0  0
 52 30  1  0  0  0  0
M  END
$$$$
