53

O          0.16940       -0.33470       -0.15820
C          1.38960       -0.26820       -0.13400
C          2.11060       -0.37130        1.18050
C          1.51860       -1.14270        2.19430
C          2.11470       -1.23820        3.45020
C          3.29730       -0.53930        3.71890
C          3.87760        0.25500        2.72660
C          3.29130        0.33510        1.46110
C          2.16340       -0.08900       -1.39520
C          1.48940        0.42710       -2.51560
C          2.12330        0.57630       -3.74130
C          3.47300        0.18770       -3.90200
N          4.14630        0.33980       -5.09970
C          3.45810        0.47090       -6.36660
N          2.64760       -0.65860       -6.76730
C          3.18370       -1.91040       -7.00620
C          2.34510       -3.04540       -6.99110
C          2.85310       -4.31360       -7.23910
C          4.21910       -4.50670       -7.51760
C          4.82390       -5.82760       -7.85150
O          5.86330       -5.89120       -8.49130
C          4.15360       -7.09530       -7.40130
C          4.30810       -8.23900       -8.20200
C          3.75140       -9.45570       -7.81280
C          3.05650       -9.55220       -6.60170
C          2.92360       -8.42750       -5.78340
C          3.46410       -7.20270       -6.18270
C          5.04670       -3.37150       -7.56150
C          4.55360       -2.10100       -7.29810
C          4.14240       -0.35920       -2.78640
C          3.50350       -0.48620       -1.56000
H          0.58270       -1.65870        1.97250
H          1.65440       -1.85290        4.22740
H          3.76170       -0.60800        4.70560
H          4.78880        0.81900        2.93970
H          3.73870        0.97260        0.69690
H          0.44170        0.70950       -2.39660
H          1.56720        1.00680       -4.57510
H          5.04000       -0.13590       -5.14190
H          4.21910        0.67190       -7.13370
H          2.80280        1.35290       -6.34210
H          1.70550       -0.66880       -6.39460
H          1.27920       -2.91700       -6.78430
H          2.17060       -5.16440       -7.23810
H          4.87590       -8.14880       -9.12980
H          3.86410      -10.33610       -8.45020
H          2.62550      -10.50760       -6.29240
H          2.40040       -8.50420       -4.82730
H          3.37310       -6.33310       -5.53000
H          6.09970       -3.51600       -7.81010
H          5.23530       -1.25040       -7.34000
H          5.17750       -0.69310       -2.89800
H          4.04650       -0.93400       -0.72670
