rmsd77.gzmat
 OpenBabel08211713393D

 53 56  0  0  0  0  0  0  0  0999 V2000
    0.0000    0.0000    0.0000 O   0  0  0  0  0  0  0  0  0  0  0  0
    1.2091    0.0000    0.0000 C   0  0  0  0  0  0  0  0  0  0  0  0
    1.9685    0.0000    1.2820 C   0  0  0  0  0  0  0  0  0  0  0  0
    2.6099   -1.1620    1.7067 C   0  0  0  0  0  0  0  0  0  0  0  0
    3.3117   -1.1579    2.9104 C   0  0  0  0  0  0  0  0  0  0  0  0
    3.3729    0.0047    3.6779 C   0  0  0  0  0  0  0  0  0  0  0  0
    2.7241    1.1622    3.2501 C   0  0  0  0  0  0  0  0  0  0  0  0
    2.0132    1.1608    2.0511 C   0  0  0  0  0  0  0  0  0  0  0  0
    1.9864    0.0081   -1.2521 C   0  0  0  0  0  0  0  0  0  0  0  0
    1.3061   -0.1754   -2.4633 C   0  0  0  0  0  0  0  0  0  0  0  0
    1.9922   -0.1587   -3.6658 C   0  0  0  0  0  0  0  0  0  0  0  0
    3.3869    0.0658   -3.6738 C   0  0  0  0  0  0  0  0  0  0  0  0
    4.0229    0.1756   -4.9111 N   0  0  0  0  0  0  0  0  0  0  0  0
    5.4828    0.1106   -5.0210 C   0  0  0  0  0  0  0  0  0  0  0  0
    6.0221   -1.2399   -4.8316 N   0  0  0  0  0  0  0  0  0  0  0  0
    5.8487   -2.2243   -5.8079 C   0  0  0  0  0  0  0  0  0  0  0  0
    6.0806   -3.5683   -5.4391 C   0  0  0  0  0  0  0  0  0  0  0  0
    6.0220   -4.5656   -6.3983 C   0  0  0  0  0  0  0  0  0  0  0  0
    5.7228   -4.2527   -7.7278 C   0  0  0  0  0  0  0  0  0  0  0  0
    5.6499   -5.2921   -8.7730 C   0  0  0  0  0  0  0  0  0  0  0  0
    4.9648   -5.1451   -9.7599 O   0  0  0  0  0  0  0  0  0  0  0  0
    6.4521   -6.5311   -8.5911 C   0  0  0  0  0  0  0  0  0  0  0  0
    5.8564   -7.7644   -8.8531 C   0  0  0  0  0  0  0  0  0  0  0  0
    6.5981   -8.9344   -8.7012 C   0  0  0  0  0  0  0  0  0  0  0  0
    7.9330   -8.8667   -8.3056 C   0  0  0  0  0  0  0  0  0  0  0  0
    8.5304   -7.6301   -8.0612 C   0  0  0  0  0  0  0  0  0  0  0  0
    7.7895   -6.4592   -8.2016 C   0  0  0  0  0  0  0  0  0  0  0  0
    5.4602   -2.9278   -8.0856 C   0  0  0  0  0  0  0  0  0  0  0  0
    5.5247   -1.9126   -7.1409 C   0  0  0  0  0  0  0  0  0  0  0  0
    4.0724    0.2412   -2.4563 C   0  0  0  0  0  0  0  0  0  0  0  0
    3.3672    0.2132   -1.2614 C   0  0  0  0  0  0  0  0  0  0  0  0
    2.5582   -2.0681    1.1043 H   0  0  0  0  0  0  0  0  0  0  0  0
    3.8101   -2.0628    3.2518 H   0  0  0  0  0  0  0  0  0  0  0  0
    3.9247    0.0073    4.6158 H   0  0  0  0  0  0  0  0  0  0  0  0
    2.7680    2.0661    3.8543 H   0  0  0  0  0  0  0  0  0  0  0  0
    1.4908    2.0581    1.7200 H   0  0  0  0  0  0  0  0  0  0  0  0
    0.2215   -0.3331   -2.4474 H   0  0  0  0  0  0  0  0  0  0  0  0
    1.4573   -0.3037   -4.6000 H   0  0  0  0  0  0  0  0  0  0  0  0
    3.5172   -0.1866   -5.7141 H   0  0  0  0  0  0  0  0  0  0  0  0
    5.9557    0.7844   -4.2592 H   0  0  0  0  0  0  0  0  0  0  0  0
    5.7747    0.5010   -6.0313 H   0  0  0  0  0  0  0  0  0  0  0  0
    6.0355   -1.5604   -3.8681 H   0  0  0  0  0  0  0  0  0  0  0  0
    6.3119   -3.8187   -4.4081 H   0  0  0  0  0  0  0  0  0  0  0  0
    6.2041   -5.6049   -6.1115 H   0  0  0  0  0  0  0  0  0  0  0  0
    4.8169   -7.8071   -9.1822 H   0  0  0  0  0  0  0  0  0  0  0  0
    6.1362   -9.8998   -8.8980 H   0  0  0  0  0  0  0  0  0  0  0  0
    8.5127   -9.7810   -8.1914 H   0  0  0  0  0  0  0  0  0  0  0  0
    9.5750   -7.5796   -7.7617 H   0  0  0  0  0  0  0  0  0  0  0  0
    8.2538   -5.4908   -8.0140 H   0  0  0  0  0  0  0  0  0  0  0  0
    5.2005   -2.6955   -9.1240 H   0  0  0  0  0  0  0  0  0  0  0  0
    5.3377   -0.8890   -7.4452 H   0  0  0  0  0  0  0  0  0  0  0  0
    5.1421    0.4159   -2.4381 H   0  0  0  0  0  0  0  0  0  0  0  0
    3.9040    0.3563   -0.3195 H   0  0  0  0  0  0  0  0  0  0  0  0
  2  1  2  0  0  0  0
  2  3  1  0  0  0  0
  3  4  2  0  0  0  0
  3  8  1  0  0  0  0
  4  5  1  0  0  0  0
  5 33  1  0  0  0  0
  5  6  2  0  0  0  0
  6 34  1  0  0  0  0
  7  6  1  0  0  0  0
  7 35  1  0  0  0  0
  8  7  2  0  0  0  0
  9  2  1  0  0  0  0
 10 37  1  0  0  0  0
 10  9  2  0  0  0  0
 11 10  1  0  0  0  0
 12 11  2  0  0  0  0
 12 30  1  0  0  0  0
 13 12  1  0  0  0  0
 14 13  1  0  0  0  0
 14 15  1  0  0  0  0
 14 40  1  0  0  0  0
 15 42  1  0  0  0  0
 16 17  1  0  0  0  0
 16 15  1  0  0  0  0
 17 43  1  0  0  0  0
 18 44  1  0  0  0  0
 18 17  2  0  0  0  0
 19 18  1  0  0  0  0
 20 22  1  0  0  0  0
 20 19  1  0  0  0  0
 21 20  2  0  0  0  0
 22 27  2  0  0  0  0
 23 24  2  0  0  0  0
 23 22  1  0  0  0  0
 24 25  1  0  0  0  0
 25 47  1  0  0  0  0
 25 26  2  0  0  0  0
 26 48  1  0  0  0  0
 27 26  1  0  0  0  0
 27 49  1  0  0  0  0
 28 19  2  0  0  0  0
 28 29  1  0  0  0  0
 29 16  2  0  0  0  0
 30 52  1  0  0  0  0
 30 31  2  0  0  0  0
 31  9  1  0  0  0  0
 31 53  1  0  0  0  0
 32  4  1  0  0  0  0
 36  8  1  0  0  0  0
 38 11  1  0  0  0  0
 39 13  1  0  0  0  0
 41 14  1  0  0  0  0
 45 23  1  0  0  0  0
 46 24  1  0  0  0  0
 50 28  1  0  0  0  0
 51 29  1  0  0  0  0
M  END
$$$$
