rmsd105.gzmat
 OpenBabel08211713393D

 53 56  0  0  0  0  0  0  0  0999 V2000
    0.0000    0.0000    0.0000 O   0  0  0  0  0  0  0  0  0  0  0  0
    1.2096    0.0000    0.0000 C   0  0  0  0  0  0  0  0  0  0  0  0
    1.9662    0.0000    1.2820 C   0  0  0  0  0  0  0  0  0  0  0  0
    1.8248   -1.0744    2.1581 C   0  0  0  0  0  0  0  0  0  0  0  0
    2.5172   -1.0700    3.3677 C   0  0  0  0  0  0  0  0  0  0  0  0
    3.3313    0.0117    3.7012 C   0  0  0  0  0  0  0  0  0  0  0  0
    3.4600    1.0893    2.8252 C   0  0  0  0  0  0  0  0  0  0  0  0
    2.7793    1.0842    1.6099 C   0  0  0  0  0  0  0  0  0  0  0  0
    1.9818    0.0037   -1.2561 C   0  0  0  0  0  0  0  0  0  0  0  0
    1.3382    0.3945   -2.4336 C   0  0  0  0  0  0  0  0  0  0  0  0
    2.0174    0.4027   -3.6443 C   0  0  0  0  0  0  0  0  0  0  0  0
    3.3663    0.0042   -3.6860 C   0  0  0  0  0  0  0  0  0  0  0  0
    4.1245    0.0571   -4.8584 N   0  0  0  0  0  0  0  0  0  0  0  0
    3.4728    0.0975   -6.1718 C   0  0  0  0  0  0  0  0  0  0  0  0
    2.8281   -1.1660   -6.5453 N   0  0  0  0  0  0  0  0  0  0  0  0
    3.5935   -2.2932   -6.8578 C   0  0  0  0  0  0  0  0  0  0  0  0
    4.9505   -2.2024   -7.2179 C   0  0  0  0  0  0  0  0  0  0  0  0
    5.6386   -3.3490   -7.5902 C   0  0  0  0  0  0  0  0  0  0  0  0
    4.9944   -4.5882   -7.6231 C   0  0  0  0  0  0  0  0  0  0  0  0
    5.7851   -5.7722   -8.0142 C   0  0  0  0  0  0  0  0  0  0  0  0
    6.9731   -5.8286   -7.7849 O   0  0  0  0  0  0  0  0  0  0  0  0
    5.1068   -6.8963   -8.7096 C   0  0  0  0  0  0  0  0  0  0  0  0
    5.5314   -8.1975   -8.4367 C   0  0  0  0  0  0  0  0  0  0  0  0
    4.9364   -9.2715   -9.0948 C   0  0  0  0  0  0  0  0  0  0  0  0
    3.9299   -9.0418  -10.0316 C   0  0  0  0  0  0  0  0  0  0  0  0
    3.5167   -7.7397  -10.3127 C   0  0  0  0  0  0  0  0  0  0  0  0
    4.1050   -6.6639   -9.6518 C   0  0  0  0  0  0  0  0  0  0  0  0
    3.6489   -4.6814   -7.2557 C   0  0  0  0  0  0  0  0  0  0  0  0
    2.9480   -3.5497   -6.8709 C   0  0  0  0  0  0  0  0  0  0  0  0
    4.0135   -0.4032   -2.4977 C   0  0  0  0  0  0  0  0  0  0  0  0
    3.3219   -0.3939   -1.2983 C   0  0  0  0  0  0  0  0  0  0  0  0
    1.1725   -1.9087    1.8991 H   0  0  0  0  0  0  0  0  0  0  0  0
    2.4157   -1.9079    4.0546 H   0  0  0  0  0  0  0  0  0  0  0  0
    3.8652    0.0177    4.6498 H   0  0  0  0  0  0  0  0  0  0  0  0
    4.0891    1.9363    3.0914 H   0  0  0  0  0  0  0  0  0  0  0  0
    2.8783    1.9235    0.9220 H   0  0  0  0  0  0  0  0  0  0  0  0
    0.2856    0.6947   -2.3930 H   0  0  0  0  0  0  0  0  0  0  0  0
    1.5039    0.7304   -4.5409 H   0  0  0  0  0  0  0  0  0  0  0  0
    5.0116   -0.4385   -4.8409 H   0  0  0  0  0  0  0  0  0  0  0  0
    4.2459    0.3711   -6.9367 H   0  0  0  0  0  0  0  0  0  0  0  0
    2.6937    0.9039   -6.1865 H   0  0  0  0  0  0  0  0  0  0  0  0
    1.9402   -1.3409   -6.0840 H   0  0  0  0  0  0  0  0  0  0  0  0
    5.4663   -1.2489   -7.2186 H   0  0  0  0  0  0  0  0  0  0  0  0
    6.6986   -3.2892   -7.8585 H   0  0  0  0  0  0  0  0  0  0  0  0
    6.3347   -8.3647   -7.7159 H   0  0  0  0  0  0  0  0  0  0  0  0
    5.2629  -10.2874   -8.8822 H   0  0  0  0  0  0  0  0  0  0  0  0
    3.4678   -9.8809  -10.5488 H   0  0  0  0  0  0  0  0  0  0  0  0
    2.7364   -7.5640  -11.0503 H   0  0  0  0  0  0  0  0  0  0  0  0
    3.7902   -5.6442   -9.8769 H   0  0  0  0  0  0  0  0  0  0  0  0
    3.1487   -5.6535   -7.2609 H   0  0  0  0  0  0  0  0  0  0  0  0
    1.9031   -3.6278   -6.5844 H   0  0  0  0  0  0  0  0  0  0  0  0
    5.0527   -0.7184   -2.5242 H   0  0  0  0  0  0  0  0  0  0  0  0
    3.8262   -0.7080   -0.3802 H   0  0  0  0  0  0  0  0  0  0  0  0
  2  1  2  0  0  0  0
  2  3  1  0  0  0  0
  3  8  2  0  0  0  0
  3  4  1  0  0  0  0
  4  5  2  0  0  0  0
  5  6  1  0  0  0  0
  5 33  1  0  0  0  0
  6 34  1  0  0  0  0
  7 35  1  0  0  0  0
  7  6  2  0  0  0  0
  8  7  1  0  0  0  0
  9  2  1  0  0  0  0
 10 37  1  0  0  0  0
 10  9  2  0  0  0  0
 11 10  1  0  0  0  0
 12 11  2  0  0  0  0
 12 30  1  0  0  0  0
 13 39  1  0  0  0  0
 13 12  1  0  0  0  0
 14 13  1  0  0  0  0
 15 14  1  0  0  0  0
 15 42  1  0  0  0  0
 16 15  1  0  0  0  0
 17 16  2  0  0  0  0
 18 17  1  0  0  0  0
 19 18  2  0  0  0  0
 19 28  1  0  0  0  0
 20 21  2  0  0  0  0
 20 19  1  0  0  0  0
 22 23  1  0  0  0  0
 22 20  1  0  0  0  0
 23 45  1  0  0  0  0
 24 46  1  0  0  0  0
 24 23  2  0  0  0  0
 25 24  1  0  0  0  0
 26 25  2  0  0  0  0
 26 27  1  0  0  0  0
 27 22  2  0  0  0  0
 28 29  2  0  0  0  0
 29 16  1  0  0  0  0
 29 51  1  0  0  0  0
 30 31  2  0  0  0  0
 31  9  1  0  0  0  0
 31 53  1  0  0  0  0
 32  4  1  0  0  0  0
 36  8  1  0  0  0  0
 38 11  1  0  0  0  0
 40 14  1  0  0  0  0
 41 14  1  0  0  0  0
 43 17  1  0  0  0  0
 44 18  1  0  0  0  0
 47 25  1  0  0  0  0
 48 26  1  0  0  0  0
 49 27  1  0  0  0  0
 50 28  1  0  0  0  0
 52 30  1  0  0  0  0
M  END
$$$$
