53
rmsd146.gzmat
O          0.00000        0.00000        0.00000
C          1.20890        0.00000        0.00000
C          1.96820        0.00000        1.28180
C          2.01600        1.16130        2.04980
C          2.72170        1.16040        3.25180
C          3.35940       -0.00080        3.68520
C          3.29710       -1.16340        2.91740
C          2.60320       -1.16460        1.70940
C          1.98630        0.00040       -1.25230
C          3.36500        0.22010       -1.26310
C          4.07160        0.23020       -2.45710
C          3.39310        0.00470       -3.67030
N          4.06460       -0.08120       -4.89230
C          5.39120        0.52130       -5.06070
N          5.35740        1.98680       -5.09830
C          4.86740        2.66490       -6.21630
C          4.52120        4.02640       -6.06500
C          4.12250        4.76290       -7.16790
C          4.04920        4.16720       -8.43140
C          3.65330        4.92390       -9.63300
O          3.75030        4.44870      -10.74140
C          3.13670        6.30820       -9.44910
C          3.88930        7.38240       -9.91980
C          3.40800        8.68050       -9.75930
C          2.17600        8.89620       -9.14360
C          1.42110        7.81580       -8.68750
C          1.90170        6.51680       -8.83790
C          4.38300        2.81720       -8.57780
C          4.78200        2.06080       -7.48480
C          1.99790       -0.21240       -3.66200
C          1.30960       -0.21250       -2.46020
H          1.50020        2.06060        1.71560
H          2.76870        2.06540        3.85420
H          3.90390       -0.00120        4.62750
H          3.78850       -2.07080        3.26220
H          2.55230       -2.07050        1.10620
H          3.89780        0.38970       -0.32320
H          5.14340        0.39420       -2.44020
H          3.48400       -0.06650       -5.72630
H          5.83920        0.12180       -6.00790
H          6.06440        0.20970       -4.21980
H          5.20390        2.43100       -4.19780
H          4.57840        4.49770       -5.08810
H          3.86460        5.81880       -7.04720
H          4.84400        7.20630      -10.41540
H          3.99260        9.52440      -10.12020
H          1.80020        9.91030       -9.02210
H          0.45580        7.98640       -8.21520
H          1.31440        5.66960       -8.48530
H          4.32830        2.35920       -9.57210
H          5.04410        1.01820       -7.62530
H          1.46640       -0.38300       -4.59380
H          0.22580       -0.37600       -2.44290
