rmsd130.gzmat
 OpenBabel08211713393D

 53 56  0  0  0  0  0  0  0  0999 V2000
    0.0000    0.0000    0.0000 O   0  0  0  0  0  0  0  0  0  0  0  0
    1.2105    0.0000    0.0000 C   0  0  0  0  0  0  0  0  0  0  0  0
    1.9603    0.0000    1.2842 C   0  0  0  0  0  0  0  0  0  0  0  0
    3.0082   -0.8957    1.4962 C   0  0  0  0  0  0  0  0  0  0  0  0
    3.6734   -0.9002    2.7200 C   0  0  0  0  0  0  0  0  0  0  0  0
    3.2944   -0.0083    3.7233 C   0  0  0  0  0  0  0  0  0  0  0  0
    2.2443    0.8830    3.5094 C   0  0  0  0  0  0  0  0  0  0  0  0
    1.5693    0.8835    2.2903 C   0  0  0  0  0  0  0  0  0  0  0  0
    1.9756   -0.0037   -1.2614 C   0  0  0  0  0  0  0  0  0  0  0  0
    3.2732    0.5115   -1.3388 C   0  0  0  0  0  0  0  0  0  0  0  0
    3.9570    0.5125   -2.5431 C   0  0  0  0  0  0  0  0  0  0  0  0
    3.3460   -0.0237   -3.6991 C   0  0  0  0  0  0  0  0  0  0  0  0
    4.1063   -0.0891   -4.8686 N   0  0  0  0  0  0  0  0  0  0  0  0
    3.4745   -0.3344   -6.1683 C   0  0  0  0  0  0  0  0  0  0  0  0
    2.7441    0.8263   -6.6863 N   0  0  0  0  0  0  0  0  0  0  0  0
    3.4183    1.9177   -7.2366 C   0  0  0  0  0  0  0  0  0  0  0  0
    4.7456    1.8302   -7.6962 C   0  0  0  0  0  0  0  0  0  0  0  0
    5.3313    2.9275   -8.3119 C   0  0  0  0  0  0  0  0  0  0  0  0
    4.6177    4.1173   -8.4825 C   0  0  0  0  0  0  0  0  0  0  0  0
    5.2895    5.2508   -9.1428 C   0  0  0  0  0  0  0  0  0  0  0  0
    6.4873    5.2748   -9.3052 O   0  0  0  0  0  0  0  0  0  0  0  0
    4.4332    6.3713   -9.6229 C   0  0  0  0  0  0  0  0  0  0  0  0
    3.7774    6.2559  -10.8472 C   0  0  0  0  0  0  0  0  0  0  0  0
    2.9853    7.3082  -11.3018 C   0  0  0  0  0  0  0  0  0  0  0  0
    2.8505    8.4637  -10.5329 C   0  0  0  0  0  0  0  0  0  0  0  0
    3.5151    8.5748   -9.3122 C   0  0  0  0  0  0  0  0  0  0  0  0
    4.3141    7.5278   -8.8553 C   0  0  0  0  0  0  0  0  0  0  0  0
    3.3003    4.2058   -8.0203 C   0  0  0  0  0  0  0  0  0  0  0  0
    2.7004    3.1247   -7.3974 C   0  0  0  0  0  0  0  0  0  0  0  0
    2.0356   -0.5309   -3.6233 C   0  0  0  0  0  0  0  0  0  0  0  0
    1.3620   -0.5110   -2.4097 C   0  0  0  0  0  0  0  0  0  0  0  0
    3.3001   -1.5926    0.7105 H   0  0  0  0  0  0  0  0  0  0  0  0
    4.4874   -1.6007    2.8944 H   0  0  0  0  0  0  0  0  0  0  0  0
    3.8177   -0.0117    4.6780 H   0  0  0  0  0  0  0  0  0  0  0  0
    1.9459    1.5734    4.2958 H   0  0  0  0  0  0  0  0  0  0  0  0
    0.7327    1.5633    2.1211 H   0  0  0  0  0  0  0  0  0  0  0  0
    3.7489    0.9250   -0.4452 H   0  0  0  0  0  0  0  0  0  0  0  0
    4.9632    0.9179   -2.5967 H   0  0  0  0  0  0  0  0  0  0  0  0
    4.9387    0.4915   -4.9009 H   0  0  0  0  0  0  0  0  0  0  0  0
    2.7553   -1.1916   -6.0888 H   0  0  0  0  0  0  0  0  0  0  0  0
    4.2740   -0.6415   -6.8923 H   0  0  0  0  0  0  0  0  0  0  0  0
    1.8715    1.0281   -6.2070 H   0  0  0  0  0  0  0  0  0  0  0  0
    5.3139    0.9131   -7.5902 H   0  0  0  0  0  0  0  0  0  0  0  0
    6.3652    2.8691   -8.6707 H   0  0  0  0  0  0  0  0  0  0  0  0
    3.8863    5.3521  -11.4461 H   0  0  0  0  0  0  0  0  0  0  0  0
    2.4733    7.2282  -12.2586 H   0  0  0  0  0  0  0  0  0  0  0  0
    2.2286    9.2829  -10.8883 H   0  0  0  0  0  0  0  0  0  0  0  0
    3.4139    9.4807   -8.7181 H   0  0  0  0  0  0  0  0  0  0  0  0
    4.8463    7.6149   -7.9090 H   0  0  0  0  0  0  0  0  0  0  0  0
    2.7402    5.1367   -8.1457 H   0  0  0  0  0  0  0  0  0  0  0  0
    1.6775    3.2016   -7.0406 H   0  0  0  0  0  0  0  0  0  0  0  0
    1.5460   -0.9474   -4.4964 H   0  0  0  0  0  0  0  0  0  0  0  0
    0.3373   -0.8924   -2.3446 H   0  0  0  0  0  0  0  0  0  0  0  0
  2  1  2  0  0  0  0
  2  3  1  0  0  0  0
  3  4  2  0  0  0  0
  3  8  1  0  0  0  0
  4  5  1  0  0  0  0
  5 33  1  0  0  0  0
  5  6  2  0  0  0  0
  6 34  1  0  0  0  0
  7  6  1  0  0  0  0
  7 35  1  0  0  0  0
  8  7  2  0  0  0  0
  9  2  1  0  0  0  0
 10  9  1  0  0  0  0
 10 37  1  0  0  0  0
 11 10  2  0  0  0  0
 12 30  2  0  0  0  0
 12 11  1  0  0  0  0
 13 12  1  0  0  0  0
 14 40  1  0  0  0  0
 14 13  1  0  0  0  0
 15 42  1  0  0  0  0
 15 14  1  0  0  0  0
 16 15  1  0  0  0  0
 17 43  1  0  0  0  0
 17 16  2  0  0  0  0
 18 17  1  0  0  0  0
 19 18  2  0  0  0  0
 19 28  1  0  0  0  0
 20 19  1  0  0  0  0
 21 20  2  0  0  0  0
 22 20  1  0  0  0  0
 22 27  2  0  0  0  0
 23 22  1  0  0  0  0
 24 23  2  0  0  0  0
 24 25  1  0  0  0  0
 25 26  2  0  0  0  0
 26 27  1  0  0  0  0
 26 48  1  0  0  0  0
 27 49  1  0  0  0  0
 28 29  2  0  0  0  0
 29 16  1  0  0  0  0
 29 51  1  0  0  0  0
 30 31  1  0  0  0  0
 31 53  1  0  0  0  0
 31  9  2  0  0  0  0
 32  4  1  0  0  0  0
 36  8  1  0  0  0  0
 38 11  1  0  0  0  0
 39 13  1  0  0  0  0
 41 14  1  0  0  0  0
 44 18  1  0  0  0  0
 45 23  1  0  0  0  0
 46 24  1  0  0  0  0
 47 25  1  0  0  0  0
 50 28  1  0  0  0  0
 52 30  1  0  0  0  0
M  END
$$$$
