53
rmsd37.gzmat
O          0.00000        0.00000        0.00000
C          1.20950        0.00000        0.00000
C          1.96760        0.00000        1.28090
C          2.81150        1.06580        1.59160
C          3.50760        1.06200        2.79810
C          3.36360       -0.00680        3.68270
C          2.51400       -1.06660        3.36930
C          1.80590       -1.06160        2.16870
C          1.98210       -0.00110       -1.25630
C          1.32160        0.32040       -2.44550
C          2.00000        0.31980       -3.65640
C          3.36680       -0.01290       -3.68560
N          4.11990        0.03260       -4.86210
C          3.46150       -0.05870       -6.17120
N          2.83300       -1.36130       -6.41650
C          3.61700       -2.51100       -6.55510
C          4.96620       -2.45530       -6.95020
C          5.67030       -3.63500       -7.14940
C          5.06000       -4.87490       -6.93980
C          5.85310       -6.09650       -7.17290
O          6.85270       -6.07500       -7.85520
C          5.39680       -7.37090       -6.55620
C          5.08280       -7.43690       -5.19900
C          4.69130       -8.65170       -4.64130
C          4.60920       -9.79210       -5.44010
C          4.92420       -9.72260       -6.79630
C          5.32620       -8.51140       -7.35600
C          3.71720       -4.92900       -6.55360
C          2.99580       -3.76350       -6.35600
C          4.03330       -0.34680       -2.48550
C          3.34050       -0.33450       -1.28690
H          2.92290        1.89710        0.89580
H          4.16330        1.89330        3.04930
H          3.91390       -0.01200        4.62190
H          2.39930       -1.89650        4.06360
H          1.12530       -1.87770        1.92580
H          0.25540        0.57170       -2.41360
H          1.47260        0.59110       -4.56390
H          5.03660       -0.40480       -4.82050
H          4.22750        0.15050       -6.96290
H          2.67210        0.73320       -6.25540
H          1.93480       -1.48860       -5.95690
H          5.45650       -1.50460       -7.12650
H          6.71530       -3.60190       -7.47660
H          5.14910       -6.54470       -4.57640
H          4.45060       -8.71130       -3.58190
H          4.30240      -10.73990       -5.00210
H          4.86320      -10.61410       -7.41690
H          5.59260       -8.45200       -8.41240
H          3.23010       -5.89720       -6.40930
H          1.95290       -3.81390       -6.05600
H          5.08690       -0.60960       -2.50200
H          3.86000       -0.59510       -0.36030
