53
rmsd177.gzmat
O          0.00000        0.00000        0.00000
C          1.20940        0.00000        0.00000
C          1.96790        0.00000        1.28260
C          2.26480       -1.21030        1.90550
C          2.96220       -1.20690        3.11220
C          3.35510        0.00050        3.68790
C          3.05110        1.20800        3.06040
C          2.35320        1.21080        1.85430
C          1.98580       -0.00500       -1.25210
C          1.29180       -0.02600       -2.46590
C          1.97360       -0.04410       -3.67450
C          3.38100       -0.05220       -3.67750
N          4.12550       -0.17160       -4.85100
C          3.52650        0.08880       -6.16290
N          3.33140        1.51450       -6.43900
C          4.40580        2.34520       -6.75550
C          5.66190        1.84100       -7.14180
C          6.66100        2.72010       -7.53570
C          6.43930        4.10090       -7.54230
C          7.53180        4.98440       -7.98650
O          8.56900        4.54090       -8.42390
C          7.32000        6.45590       -7.89600
C          7.31150        7.08510       -6.65230
C          7.12950        8.46480       -6.58230
C          6.95230        9.20580       -7.75050
C          6.96540        8.57060       -8.99130
C          7.15610        7.19220       -9.06750
C          5.19280        4.60090       -7.14970
C          4.18330        3.74140       -6.75180
C          4.08390       -0.01310       -2.45150
C          3.38490        0.00420       -1.25690
H          1.94920       -2.15120        1.45630
H          3.19620       -2.14770        3.60670
H          3.89760        0.00040        4.63140
H          3.35510        2.14930        3.51370
H          2.10660        2.15200        1.36470
H          0.19560       -0.02820       -2.45390
H          1.41310       -0.06940       -4.60220
H          5.11670        0.03670       -4.78360
H          2.53030       -0.42120       -6.23940
H          4.19010       -0.36570       -6.94550
H          2.54960        1.94410       -5.95560
H          5.85630        0.77460       -7.15400
H          7.63870        2.33480       -7.84790
H          7.45140        6.50300       -5.74230
H          7.12660        8.96450       -5.61580
H          6.80720       10.28290       -7.69350
H          6.83220        9.15120       -9.90180
H          7.18330        6.69330      -10.03600
H          5.01090        5.67950       -7.15750
H          3.21820        4.13860       -6.45140
H          5.17000       -0.00740       -2.44650
H          3.93310        0.02640       -0.31060
