53

O          0.23480       -0.03280       -0.30210
C          1.45250       -0.13490       -0.31220
C          2.17970       -0.43860        0.96800
C          3.33410       -1.23640        1.01930
C          3.92510       -1.54470        2.24710
C          3.37620       -1.04990        3.43290
C          2.21960       -0.26290        3.39090
C          1.61820        0.02790        2.16790
C          2.21760        0.04330       -1.57830
C          1.52630       -0.10170       -2.79750
C          2.16250        0.09080       -4.01140
C          3.52330        0.47260       -4.06510
N          4.12260        0.69100       -5.29080
C          5.55780        0.71000       -5.46670
N          6.24890       -0.53070       -5.18700
C          6.02810       -1.68520       -5.91500
C          6.38390       -2.93660       -5.36810
C          6.21440       -4.10890       -6.09290
C          5.66790       -4.08750       -7.38960
C          5.38600       -5.30900       -8.19610
O          4.54030       -5.28920       -9.07820
C          6.14320       -6.57850       -7.92500
C          5.49040       -7.79720       -8.17340
C          6.15600       -9.00720       -7.98720
C          7.49420       -9.01430       -7.57730
C          8.16160       -7.80670       -7.35710
C          7.48890       -6.59370       -7.52400
C          5.28480       -2.84340       -7.91990
C          5.46610       -1.66350       -7.21190
C          4.21220        0.64490       -2.84580
C          3.56610        0.43060       -1.63090
H          3.75560       -1.64210        0.09810
H          4.81480       -2.17830        2.27810
H          3.84420       -1.28480        4.39210
H          1.78330        0.11750        4.31770
H          0.70110        0.61750        2.11560
H          0.47050       -0.37580       -2.75960
H          1.61200       -0.04600       -4.94620
H          3.58910        0.36360       -6.08740
H          5.99880        1.48340       -4.82200
H          5.75880        1.01860       -6.50210
H          6.47870       -0.68630       -4.21260
H          6.79270       -2.97760       -4.35480
H          6.48050       -5.05920       -5.62840
H          4.45500       -7.76930       -8.51760
H          5.63470       -9.95020       -8.16850
H          8.01910       -9.96260       -7.43790
H          9.21260       -7.80820       -7.05820
H          8.02130       -5.65400       -7.36930
H          4.83370       -2.82850       -8.91370
H          5.17630       -0.71940       -7.67510
H          5.25340        0.96970       -2.83710
H          4.12080        0.59610       -0.70630
