53

O          0.56360       -0.11430       -0.17780
C          1.74150        0.15860       -0.35580
C          2.55250        0.71220        0.78220
C          2.20690        0.31950        2.08580
C          2.88960        0.83670        3.18500
C          3.90920        1.77690        2.99710
C          4.23990        2.19690        1.70620
C          3.56960        1.66360        0.60250
C          2.37590       -0.05380       -1.68780
C          1.53640       -0.15280       -2.81080
C          2.04490       -0.38410       -4.08140
C          3.43410       -0.55910       -4.27620
N          3.97720       -0.81880       -5.52050
C          3.28440       -0.50870       -6.75270
N          2.98980        0.89010       -6.97880
C          3.97840        1.84880       -7.09670
C          5.31160        1.51990       -7.43290
C          6.26890        2.51570       -7.56910
C          5.96040        3.86940       -7.35040
C          7.04060        4.87580       -7.55570
O          8.02120        4.60550       -8.23330
C          6.92810        6.23670       -6.92770
C          6.33580        6.45160       -5.67280
C          6.32560        7.72880       -5.10670
C          6.89600        8.80400       -5.79290
C          7.49770        8.59590       -7.03930
C          7.52590        7.31840       -7.59520
C          4.62970        4.19640       -7.02920
C          3.65960        3.21050       -6.90680
C          4.27570       -0.49050       -3.14540
C          3.75720       -0.24150       -1.88160
H          1.39130       -0.39480        2.21240
H          2.62330        0.51330        4.19420
H          4.44050        2.18810        3.85900
H          5.02080        2.94650        1.55720
H          3.81970        2.01000       -0.40150
H          0.46150       -0.04100       -2.65690
H          1.35450       -0.44900       -4.92350
H          4.98690       -0.74720       -5.56200
H          2.33090       -1.05410       -6.78980
H          3.89620       -0.89750       -7.57890
H          2.12790        1.22340       -6.56380
H          5.59910        0.48250       -7.60930
H          7.29280        2.26400       -7.85150
H          5.90560        5.61290       -5.12310
H          5.87400        7.88360       -4.12390
H          6.87940        9.80420       -5.35290
H          7.95220        9.43370       -7.57360
H          8.01290        7.13030       -8.55370
H          4.34100        5.23960       -6.89480
H          2.63000        3.48720       -6.66420
H          5.35120       -0.64130       -3.27240
H          4.43660       -0.21540       -1.02870
