41
rmsd48.gzmat
S          0.00000        0.00000        0.00000
O          1.43420        0.00000        0.00000
O         -0.74240        0.00000       -1.23460
N         -0.54410        1.48530        0.78180
C         -0.30770        1.76140        2.10560
O          0.21990        0.97800        2.87560
N         -0.70050        3.01130        2.66510
C         -1.30300        4.09350        2.04810
N         -1.61730        4.05840        0.71850
C         -2.20770        5.15030        0.19560
C         -2.48800        6.28040        0.96230
C         -2.13160        6.24800        2.32540
N         -1.54430        5.16600        2.86980
C         -2.38780        7.40160        3.23080
C         -0.58100       -1.28040        1.04650
C         -1.80370       -1.91590        0.83590
C         -2.21580       -2.95820        1.66280
C         -1.40330       -3.36070        2.72370
C         -0.18750       -2.72210        2.94910
C          0.22500       -1.68370        2.11160
C         -2.74870       -1.50680       -0.24600
O         -3.52500       -0.59050       -0.19970
O         -2.68020       -2.40760       -1.24980
C         -3.41940       -2.11080       -2.44280
C         -2.74620       -0.97900       -3.19370
H         -1.02620        2.19720        0.20490
H         -0.49630        3.11780        3.67090
H         -2.45260        5.08640       -0.87460
H         -2.96160        7.15300        0.53110
H         -1.93800        7.25370        4.22930
H         -3.46820        7.55160        3.38620
H         -1.97620        8.33640        2.82160
H         -3.16750       -3.45810        1.48450
H         -1.72440       -4.17370        3.37420
H          0.44440       -3.02650        3.78190
H          1.18660       -1.18800        2.31300
H         -4.46630       -1.88530       -2.17560
H         -3.35910       -3.07910       -2.97340
H         -2.86560       -0.01880       -2.66330
H         -3.13950       -0.86490       -4.20580
H         -1.65690       -1.13400       -3.25710
