rmsd133.gzmat
 OpenBabel08211713403D

 41 42  0  0  0  0  0  0  0  0999 V2000
    0.0000    0.0000    0.0000 S   0  0  0  0  0  0  0  0  0  0  0  0
    1.4423    0.0000    0.0000 O   0  0  0  0  0  0  0  0  0  0  0  0
   -0.7439    0.0000   -1.2245 O   0  0  0  0  0  0  0  0  0  0  0  0
   -0.3767    1.4655    0.9037 N   0  0  0  0  0  0  0  0  0  0  0  0
   -1.6240    1.7357    1.4107 C   0  0  0  0  0  0  0  0  0  0  0  0
   -2.5867    1.0037    1.2632 O   0  0  0  0  0  0  0  0  0  0  0  0
   -1.8495    2.9231    2.1651 N   0  0  0  0  0  0  0  0  0  0  0  0
   -0.9220    3.8365    2.6367 C   0  0  0  0  0  0  0  0  0  0  0  0
   -1.4280    4.8183    3.4521 N   0  0  0  0  0  0  0  0  0  0  0  0
   -0.5547    5.7160    3.9368 C   0  0  0  0  0  0  0  0  0  0  0  0
    0.8126    5.6650    3.6422 C   0  0  0  0  0  0  0  0  0  0  0  0
    1.2579    4.6341    2.8002 C   0  0  0  0  0  0  0  0  0  0  0  0
    0.3938    3.7320    2.2877 N   0  0  0  0  0  0  0  0  0  0  0  0
    2.6900    4.4600    2.4377 C   0  0  0  0  0  0  0  0  0  0  0  0
   -0.5792   -1.2725    1.0580 C   0  0  0  0  0  0  0  0  0  0  0  0
    0.2506   -1.8398    2.0248 C   0  0  0  0  0  0  0  0  0  0  0  0
   -0.2127   -2.8556    2.8544 C   0  0  0  0  0  0  0  0  0  0  0  0
   -1.5295   -3.3016    2.7238 C   0  0  0  0  0  0  0  0  0  0  0  0
   -2.3668   -2.7334    1.7686 C   0  0  0  0  0  0  0  0  0  0  0  0
   -1.8939   -1.7173    0.9350 C   0  0  0  0  0  0  0  0  0  0  0  0
    1.6489   -1.3568    2.2289 C   0  0  0  0  0  0  0  0  0  0  0  0
    1.9791   -0.4171    2.9024 O   0  0  0  0  0  0  0  0  0  0  0  0
    2.4981   -2.1886    1.5898 O   0  0  0  0  0  0  0  0  0  0  0  0
    3.8578   -1.7528    1.4734 C   0  0  0  0  0  0  0  0  0  0  0  0
    4.6041   -2.0167    2.7692 C   0  0  0  0  0  0  0  0  0  0  0  0
    0.3980    2.1207    1.1188 H   0  0  0  0  0  0  0  0  0  0  0  0
   -2.8244    3.0646    2.4715 H   0  0  0  0  0  0  0  0  0  0  0  0
   -0.9849    6.4935    4.5845 H   0  0  0  0  0  0  0  0  0  0  0  0
    1.5023    6.3928    4.0497 H   0  0  0  0  0  0  0  0  0  0  0  0
    2.8238    3.7822    1.5745 H   0  0  0  0  0  0  0  0  0  0  0  0
    3.2497    4.0045    3.2732 H   0  0  0  0  0  0  0  0  0  0  0  0
    3.1747    5.4150    2.1908 H   0  0  0  0  0  0  0  0  0  0  0  0
    0.4435   -3.2994    3.6021 H   0  0  0  0  0  0  0  0  0  0  0  0
   -1.8989   -4.0942    3.3733 H   0  0  0  0  0  0  0  0  0  0  0  0
   -3.3965   -3.0736    1.6716 H   0  0  0  0  0  0  0  0  0  0  0  0
   -2.5760   -1.2696    0.1973 H   0  0  0  0  0  0  0  0  0  0  0  0
    3.8700   -0.6861    1.1764 H   0  0  0  0  0  0  0  0  0  0  0  0
    4.2112   -2.3803    0.6340 H   0  0  0  0  0  0  0  0  0  0  0  0
    4.2228   -1.3783    3.5802 H   0  0  0  0  0  0  0  0  0  0  0  0
    5.6746   -1.8113    2.6626 H   0  0  0  0  0  0  0  0  0  0  0  0
    4.4908   -3.0579    3.0934 H   0  0  0  0  0  0  0  0  0  0  0  0
  1  4  1  0  0  0  0
  1 15  1  0  0  0  0
  2  1  2  0  0  0  0
  3  1  2  0  0  0  0
  4 26  1  0  0  0  0
  4  5  1  0  0  0  0
  5  7  1  0  0  0  0
  6  5  2  0  0  0  0
  7 27  1  0  0  0  0
  7  8  1  0  0  0  0
  8  9  2  0  0  0  0
  9 10  2  0  0  0  0
 10 28  1  0  0  0  0
 11 10  1  0  0  0  0
 11 29  1  0  0  0  0
 12 11  1  0  0  0  0
 13  8  2  0  0  0  0
 13 12  2  0  0  0  0
 14 12  1  0  0  0  0
 14 31  1  0  0  0  0
 15 16  1  0  0  0  0
 16 21  1  0  0  0  0
 16 17  2  0  0  0  0
 17 33  1  0  0  0  0
 18 17  1  0  0  0  0
 18 34  1  0  0  0  0
 19 18  2  0  0  0  0
 20 15  2  0  0  0  0
 20 19  1  0  0  0  0
 21 22  2  0  0  0  0
 23 21  1  0  0  0  0
 24 23  1  0  0  0  0
 24 25  1  0  0  0  0
 25 41  1  0  0  0  0
 25 39  1  0  0  0  0
 30 14  1  0  0  0  0
 32 14  1  0  0  0  0
 35 19  1  0  0  0  0
 36 20  1  0  0  0  0
 37 24  1  0  0  0  0
 38 24  1  0  0  0  0
 40 25  1  0  0  0  0
M  RAD  1  11   2
M  END
$$$$
