41
rmsd82.gzmat
S          0.00000        0.00000        0.00000
O          1.44140        0.00000        0.00000
O         -0.73740        0.00000       -1.22970
N         -0.38560        1.47890        0.87700
C         -1.64660        1.77270        1.33480
O         -2.59320        1.01180        1.24050
N         -1.90890        3.01890        1.97300
C         -1.03750        4.05990        2.24180
N         -1.59820        5.14490        2.87030
C         -0.78330        6.17470        3.14920
C          0.57950        6.15890        2.82860
C          1.08330        5.01490        2.19150
N          0.27870        3.97290        1.89120
C          2.51440        4.87890        1.80790
C         -0.59560       -1.28450        1.03380
C          0.20880       -1.90380        1.98920
C         -0.28160       -2.95720        2.75710
C         -1.59880       -3.38390        2.58240
C         -2.41430       -2.75640        1.64550
C         -1.91470       -1.70780        0.87120
C          1.60590       -1.45920        2.27120
O          1.92720       -0.49630        2.91460
O          2.46650       -2.37980        1.78520
C          3.86100       -2.04620        1.82080
C          4.15490       -0.98890        0.77440
H          0.37140        2.16920        1.03210
H         -2.88530        3.15290        2.27840
H         -1.25690        7.03270        3.64810
H          1.22160        6.99800        3.06400
H          2.75640        5.52100        0.94570
H          2.77120        3.84310        1.51710
H          3.18600        5.15970        2.63290
H          0.35830       -3.44690        3.49090
H         -1.98590       -4.20650        3.18310
H         -3.44640       -3.07820        1.51580
H         -2.57990       -1.21920        0.14320
H          4.31860       -3.02560        1.58840
H          4.13440       -1.72850        2.84180
H          3.71490       -1.25750       -0.19870
H          5.22610       -0.82890        0.63880
H          3.68990       -0.02320        1.03910
