rmsd104.gzmat
 OpenBabel08211713403D

 41 42  0  0  0  0  0  0  0  0999 V2000
    0.0000    0.0000    0.0000 S   0  0  0  0  0  0  0  0  0  0  0  0
    1.4411    0.0000    0.0000 O   0  0  0  0  0  0  0  0  0  0  0  0
   -0.7444    0.0000   -1.2253 O   0  0  0  0  0  0  0  0  0  0  0  0
   -0.3854    1.4819    0.8789 N   0  0  0  0  0  0  0  0  0  0  0  0
   -1.6201    1.7287    1.4247 C   0  0  0  0  0  0  0  0  0  0  0  0
   -2.5476    0.9392    1.3816 O   0  0  0  0  0  0  0  0  0  0  0  0
   -1.8751    2.9482    2.1151 N   0  0  0  0  0  0  0  0  0  0  0  0
   -1.0205    4.0103    2.3539 C   0  0  0  0  0  0  0  0  0  0  0  0
    0.2480    4.0189    1.8452 N   0  0  0  0  0  0  0  0  0  0  0  0
    1.0160    5.0898    2.1228 C   0  0  0  0  0  0  0  0  0  0  0  0
    0.5514    6.1556    2.8926 C   0  0  0  0  0  0  0  0  0  0  0  0
   -0.7668    6.0790    3.3842 C   0  0  0  0  0  0  0  0  0  0  0  0
   -1.5516    5.0178    3.1186 N   0  0  0  0  0  0  0  0  0  0  0  0
   -1.3620    7.1635    4.2122 C   0  0  0  0  0  0  0  0  0  0  0  0
   -0.5865   -1.2742    1.0508 C   0  0  0  0  0  0  0  0  0  0  0  0
    0.2454   -1.8845    1.9889 C   0  0  0  0  0  0  0  0  0  0  0  0
   -0.2311   -2.9024    2.8093 C   0  0  0  0  0  0  0  0  0  0  0  0
   -1.5621   -3.3088    2.6980 C   0  0  0  0  0  0  0  0  0  0  0  0
   -2.4000   -2.7025    1.7673 C   0  0  0  0  0  0  0  0  0  0  0  0
   -1.9141   -1.6858    0.9423 C   0  0  0  0  0  0  0  0  0  0  0  0
    1.6643   -1.4582    2.1768 C   0  0  0  0  0  0  0  0  0  0  0  0
    2.0458   -0.5696    2.8910 O   0  0  0  0  0  0  0  0  0  0  0  0
    2.4665   -2.2856    1.4740 O   0  0  0  0  0  0  0  0  0  0  0  0
    3.8471   -1.9151    1.3781 C   0  0  0  0  0  0  0  0  0  0  0  0
    4.5787   -2.2994    2.6521 C   0  0  0  0  0  0  0  0  0  0  0  0
    0.3537    2.2007    0.9781 H   0  0  0  0  0  0  0  0  0  0  0  0
   -2.8228    3.0293    2.5147 H   0  0  0  0  0  0  0  0  0  0  0  0
    2.0314    5.0631    1.7023 H   0  0  0  0  0  0  0  0  0  0  0  0
    1.1781    7.0109    3.1092 H   0  0  0  0  0  0  0  0  0  0  0  0
   -2.2370    6.8110    4.7877 H   0  0  0  0  0  0  0  0  0  0  0  0
   -1.7186    7.9908    3.5761 H   0  0  0  0  0  0  0  0  0  0  0  0
   -0.6396    7.5804    4.9283 H   0  0  0  0  0  0  0  0  0  0  0  0
    0.4264   -3.3786    3.5358 H   0  0  0  0  0  0  0  0  0  0  0  0
   -1.9416   -4.1000    3.3438 H   0  0  0  0  0  0  0  0  0  0  0  0
   -3.4404   -3.0126    1.6836 H   0  0  0  0  0  0  0  0  0  0  0  0
   -2.5971   -1.2131    0.2214 H   0  0  0  0  0  0  0  0  0  0  0  0
    3.9159   -0.8342    1.1484 H   0  0  0  0  0  0  0  0  0  0  0  0
    4.1657   -2.5068    0.5001 H   0  0  0  0  0  0  0  0  0  0  0  0
    4.2424   -1.6844    3.4998 H   0  0  0  0  0  0  0  0  0  0  0  0
    5.6602   -2.1570    2.5512 H   0  0  0  0  0  0  0  0  0  0  0  0
    4.3995   -3.3476    2.9171 H   0  0  0  0  0  0  0  0  0  0  0  0
  1  4  1  0  0  0  0
  1 15  1  0  0  0  0
  2  1  2  0  0  0  0
  3  1  2  0  0  0  0
  4 26  1  0  0  0  0
  4  5  1  0  0  0  0
  5  7  1  0  0  0  0
  6  5  2  0  0  0  0
  7  8  1  0  0  0  0
  7 27  1  0  0  0  0
  8 13  2  0  0  0  0
  9 10  2  0  0  0  0
  9  8  2  0  0  0  0
 10 11  1  0  0  0  0
 11 29  1  0  0  0  0
 11 12  1  0  0  0  0
 12 14  1  0  0  0  0
 13 12  2  0  0  0  0
 14 30  1  0  0  0  0
 14 32  1  0  0  0  0
 15 16  1  0  0  0  0
 16 21  1  0  0  0  0
 16 17  2  0  0  0  0
 17 33  1  0  0  0  0
 18 17  1  0  0  0  0
 18 34  1  0  0  0  0
 19 18  2  0  0  0  0
 20 15  2  0  0  0  0
 20 19  1  0  0  0  0
 21 22  2  0  0  0  0
 23 21  1  0  0  0  0
 24 23  1  0  0  0  0
 24 25  1  0  0  0  0
 25 41  1  0  0  0  0
 25 39  1  0  0  0  0
 28 10  1  0  0  0  0
 31 14  1  0  0  0  0
 35 19  1  0  0  0  0
 36 20  1  0  0  0  0
 37 24  1  0  0  0  0
 38 24  1  0  0  0  0
 40 25  1  0  0  0  0
M  RAD  1  11   2
M  END
$$$$
