41
rmsd168.gzmat
S          0.00000        0.00000        0.00000
O          1.43320        0.00000        0.00000
O         -0.75040        0.00000       -1.23130
N         -0.54380        1.49870        0.76070
C         -0.32070        1.80620        2.07890
O          0.20660        1.04820        2.87330
N         -0.72620        3.07010        2.60050
C         -1.33170        4.12840        1.94830
N         -1.53410        5.24820        2.71770
C         -2.11180        6.30240        2.12140
C         -2.50040        6.28010        0.77650
C         -2.26850        5.10080        0.05390
N         -1.68820        4.02790        0.63330
C         -2.63540        4.96710       -1.38230
C         -0.59000       -1.26740        1.05600
C         -1.79740       -1.92190        0.81190
C         -2.23690       -2.94140        1.65150
C         -1.46020       -3.31100        2.75100
C         -0.25560       -2.66120        3.00220
C          0.18070       -1.63900        2.15670
C         -2.66040       -1.58400       -0.35980
O         -2.86500       -2.28790       -1.31110
O         -3.24580       -0.38570       -0.14030
C         -3.87240        0.24810       -1.26130
C         -5.21070       -0.39970       -1.56720
H         -1.03110        2.19320        0.16930
H         -0.50720        3.21690        3.59870
H         -2.25870        7.18690        2.75840
H         -2.96060        7.14210        0.31060
H         -2.44200        3.95250       -1.77340
H         -2.05430        5.66640       -2.00550
H         -3.70120        5.18470       -1.54900
H         -3.17890       -3.45200        1.45070
H         -1.80020       -4.10990        3.40960
H          0.35080       -2.94400        3.86130
H          1.13100       -1.13190        2.38090
H         -3.17280        0.21820       -2.12010
H         -3.97170        1.28430       -0.88590
H         -5.07500       -1.41560       -1.96880
H         -5.77200        0.17600       -2.31040
H         -5.83070       -0.48750       -0.66710
