41

S         -0.38580        0.07280       -0.17620
O          1.06260        0.07340       -0.38690
O         -1.31040       -0.05680       -1.29170
N         -0.68290        1.51400        0.64160
C         -1.92220        1.85500        1.14280
O         -2.95410        1.25750        0.92820
N         -1.91270        2.99450        1.96080
C         -0.86210        3.69380        2.52750
N         -1.21120        4.63630        3.41460
C         -0.20530        5.28060        3.99970
C          1.13800        4.99640        3.73690
C          1.40090        4.00360        2.78620
N          0.38610        3.38040        2.17420
C          2.78050        3.56210        2.40220
C         -0.78400       -1.20380        1.02420
C          0.12350       -1.55480        2.03740
C         -0.19240       -2.63600        2.86760
C         -1.40400       -3.31590        2.71650
C         -2.30600       -2.93520        1.72100
C         -1.99140       -1.88100        0.86070
C          1.38240       -0.77620        2.29340
O          1.40220        0.40500        2.55250
O          2.45820       -1.56480        2.26070
C          3.74380       -0.92460        2.40090
C          4.19690       -0.33200        1.07870
H          0.13700        1.99910        1.05810
H         -2.83180        3.25320        2.30590
H         -0.47890        6.05820        4.72220
H          1.94270        5.52560        4.24780
H          2.95730        3.76780        1.33420
H          2.84710        2.47090        2.53350
H          3.55520        4.06410        2.99690
H          0.51680       -2.93630        3.64100
H         -1.64100       -4.15010        3.38060
H         -3.25350       -3.46520        1.60380
H         -2.66230       -1.57190        0.05940
H          4.41530       -1.72480        2.74140
H          3.67470       -0.15710        3.18590
H          4.26890       -1.11320        0.30750
H          5.18730        0.13520        1.19830
H          3.48390        0.42570        0.72470
