rmsd93.gzmat
 OpenBabel08211713403D

 41 42  0  0  0  0  0  0  0  0999 V2000
    0.0000    0.0000    0.0000 S   0  0  0  0  0  0  0  0  0  0  0  0
    1.4403    0.0000    0.0000 O   0  0  0  0  0  0  0  0  0  0  0  0
   -0.7376    0.0000   -1.2300 O   0  0  0  0  0  0  0  0  0  0  0  0
   -0.3966    1.4790    0.8761 N   0  0  0  0  0  0  0  0  0  0  0  0
   -1.6541    1.7424    1.3593 C   0  0  0  0  0  0  0  0  0  0  0  0
   -2.5848    0.9592    1.2830 O   0  0  0  0  0  0  0  0  0  0  0  0
   -1.9356    2.9777    2.0105 N   0  0  0  0  0  0  0  0  0  0  0  0
   -1.0906    4.0445    2.2605 C   0  0  0  0  0  0  0  0  0  0  0  0
    0.2140    4.0171    1.8541 N   0  0  0  0  0  0  0  0  0  0  0  0
    0.9721    5.0922    2.1421 C   0  0  0  0  0  0  0  0  0  0  0  0
    0.4620    6.1982    2.8211 C   0  0  0  0  0  0  0  0  0  0  0  0
   -0.8931    6.1600    3.2048 C   0  0  0  0  0  0  0  0  0  0  0  0
   -1.6688    5.0947    2.9290 N   0  0  0  0  0  0  0  0  0  0  0  0
   -1.5341    7.2850    3.9392 C   0  0  0  0  0  0  0  0  0  0  0  0
   -0.5996   -1.2800    1.0372 C   0  0  0  0  0  0  0  0  0  0  0  0
    0.1992   -1.8980    1.9977 C   0  0  0  0  0  0  0  0  0  0  0  0
   -0.3044   -2.9324    2.7830 C   0  0  0  0  0  0  0  0  0  0  0  0
   -1.6282   -3.3429    2.6195 C   0  0  0  0  0  0  0  0  0  0  0  0
   -2.4358   -2.7226    1.6711 C   0  0  0  0  0  0  0  0  0  0  0  0
   -1.9229   -1.6931    0.8794 C   0  0  0  0  0  0  0  0  0  0  0  0
    1.6052   -1.4761    2.2691 C   0  0  0  0  0  0  0  0  0  0  0  0
    1.9509   -0.4975    2.8748 O   0  0  0  0  0  0  0  0  0  0  0  0
    2.4428   -2.4413    1.8281 O   0  0  0  0  0  0  0  0  0  0  0  0
    3.8477   -2.1591    1.8855 C   0  0  0  0  0  0  0  0  0  0  0  0
    4.2237   -1.2472    0.7337 C   0  0  0  0  0  0  0  0  0  0  0  0
    0.3466    2.1878    1.0109 H   0  0  0  0  0  0  0  0  0  0  0  0
   -2.9066    3.0791    2.3447 H   0  0  0  0  0  0  0  0  0  0  0  0
    2.0175    5.0359    1.8050 H   0  0  0  0  0  0  0  0  0  0  0  0
    1.0809    7.0569    3.0471 H   0  0  0  0  0  0  0  0  0  0  0  0
   -2.6370    7.2338    3.8935 H   0  0  0  0  0  0  0  0  0  0  0  0
   -1.2311    8.2633    3.5394 H   0  0  0  0  0  0  0  0  0  0  0  0
   -1.2621    7.2609    5.0078 H   0  0  0  0  0  0  0  0  0  0  0  0
    0.3314   -3.4197    3.5218 H   0  0  0  0  0  0  0  0  0  0  0  0
   -2.0265   -4.1471    3.2373 H   0  0  0  0  0  0  0  0  0  0  0  0
   -3.4720   -3.0332    1.5464 H   0  0  0  0  0  0  0  0  0  0  0  0
   -2.5824   -1.2104    0.1424 H   0  0  0  0  0  0  0  0  0  0  0  0
    4.2744   -3.1748    1.7919 H   0  0  0  0  0  0  0  0  0  0  0  0
    4.0994   -1.7283    2.8705 H   0  0  0  0  0  0  0  0  0  0  0  0
    3.9835   -1.6991   -0.2371 H   0  0  0  0  0  0  0  0  0  0  0  0
    5.2850   -0.9901    0.7448 H   0  0  0  0  0  0  0  0  0  0  0  0
    3.6459   -0.3040    0.7713 H   0  0  0  0  0  0  0  0  0  0  0  0
  1  4  1  0  0  0  0
  1 15  1  0  0  0  0
  2  1  2  0  0  0  0
  3  1  2  0  0  0  0
  4 26  1  0  0  0  0
  4  5  1  0  0  0  0
  5  7  1  0  0  0  0
  6  5  2  0  0  0  0
  7  8  1  0  0  0  0
  7 27  1  0  0  0  0
  8 13  2  0  0  0  0
  9 10  2  0  0  0  0
  9  8  2  0  0  0  0
 10 11  1  0  0  0  0
 11 29  1  0  0  0  0
 11 12  1  0  0  0  0
 12 14  1  0  0  0  0
 13 12  2  0  0  0  0
 14 32  1  0  0  0  0
 15 16  1  0  0  0  0
 16 21  1  0  0  0  0
 16 17  2  0  0  0  0
 17 33  1  0  0  0  0
 18 17  1  0  0  0  0
 18 34  1  0  0  0  0
 19 18  2  0  0  0  0
 20 15  2  0  0  0  0
 20 19  1  0  0  0  0
 21 22  2  0  0  0  0
 23 24  1  0  0  0  0
 23 21  1  0  0  0  0
 24 38  1  0  0  0  0
 25 40  1  0  0  0  0
 25 41  1  0  0  0  0
 25 24  1  0  0  0  0
 28 10  1  0  0  0  0
 30 14  1  0  0  0  0
 31 14  1  0  0  0  0
 35 19  1  0  0  0  0
 36 20  1  0  0  0  0
 37 24  1  0  0  0  0
 39 25  1  0  0  0  0
M  RAD  1  11   2
M  END
$$$$
