rmsd167.gzmat
 OpenBabel08211713403D

 41 42  0  0  0  0  0  0  0  0999 V2000
    0.0000    0.0000    0.0000 S   0  0  0  0  0  0  0  0  0  0  0  0
    1.4408    0.0000    0.0000 O   0  0  0  0  0  0  0  0  0  0  0  0
   -0.7373    0.0000   -1.2300 O   0  0  0  0  0  0  0  0  0  0  0  0
   -0.3858    1.4755    0.8845 N   0  0  0  0  0  0  0  0  0  0  0  0
   -1.6265    1.7240    1.4172 C   0  0  0  0  0  0  0  0  0  0  0  0
   -2.5633    0.9488    1.3368 O   0  0  0  0  0  0  0  0  0  0  0  0
   -1.8760    2.9312    2.1313 N   0  0  0  0  0  0  0  0  0  0  0  0
   -1.0052    3.9668    2.4216 C   0  0  0  0  0  0  0  0  0  0  0  0
    0.2735    3.9637    1.9399 N   0  0  0  0  0  0  0  0  0  0  0  0
    1.0609    5.0040    2.2733 C   0  0  0  0  0  0  0  0  0  0  0  0
    0.6040    6.0535    3.0693 C   0  0  0  0  0  0  0  0  0  0  0  0
   -0.7292    5.9961    3.5216 C   0  0  0  0  0  0  0  0  0  0  0  0
   -1.5321    4.9637    3.2035 N   0  0  0  0  0  0  0  0  0  0  0  0
   -1.3142    7.0666    4.3748 C   0  0  0  0  0  0  0  0  0  0  0  0
   -0.6017   -1.2776    1.0394 C   0  0  0  0  0  0  0  0  0  0  0  0
    0.1779   -1.8531    2.0412 C   0  0  0  0  0  0  0  0  0  0  0  0
   -0.3219   -2.8914    2.8236 C   0  0  0  0  0  0  0  0  0  0  0  0
   -1.6245   -3.3472    2.6164 C   0  0  0  0  0  0  0  0  0  0  0  0
   -2.4169   -2.7633    1.6324 C   0  0  0  0  0  0  0  0  0  0  0  0
   -1.9071   -1.7294    0.8441 C   0  0  0  0  0  0  0  0  0  0  0  0
    1.5537   -1.3724    2.3655 C   0  0  0  0  0  0  0  0  0  0  0  0
    1.8253   -0.4074    3.0295 O   0  0  0  0  0  0  0  0  0  0  0  0
    2.4554   -2.2570    1.8899 O   0  0  0  0  0  0  0  0  0  0  0  0
    3.8397   -1.8935    1.9940 C   0  0  0  0  0  0  0  0  0  0  0  0
    4.1502   -0.7700    1.0247 C   0  0  0  0  0  0  0  0  0  0  0  0
    0.3633    2.1779    1.0201 H   0  0  0  0  0  0  0  0  0  0  0  0
   -2.8303    3.0192    2.5128 H   0  0  0  0  0  0  0  0  0  0  0  0
    2.0852    4.9656    1.8750 H   0  0  0  0  0  0  0  0  0  0  0  0
    1.2464    6.8835    3.3340 H   0  0  0  0  0  0  0  0  0  0  0  0
   -2.3949    6.9151    4.5483 H   0  0  0  0  0  0  0  0  0  0  0  0
   -1.1923    8.0602    3.9179 H   0  0  0  0  0  0  0  0  0  0  0  0
   -0.8315    7.0926    5.3648 H   0  0  0  0  0  0  0  0  0  0  0  0
    0.2989   -3.3451    3.5955 H   0  0  0  0  0  0  0  0  0  0  0  0
   -2.0190   -4.1572    3.2291 H   0  0  0  0  0  0  0  0  0  0  0  0
   -3.4391   -3.1053    1.4781 H   0  0  0  0  0  0  0  0  0  0  0  0
   -2.5552   -1.2728    0.0814 H   0  0  0  0  0  0  0  0  0  0  0  0
    4.3274   -2.8475    1.7200 H   0  0  0  0  0  0  0  0  0  0  0  0
    4.0680   -1.6321    3.0415 H   0  0  0  0  0  0  0  0  0  0  0  0
    3.7249   -0.9740    0.0284 H   0  0  0  0  0  0  0  0  0  0  0  0
    5.2238   -0.6050    0.9156 H   0  0  0  0  0  0  0  0  0  0  0  0
    3.6841    0.1768    1.3442 H   0  0  0  0  0  0  0  0  0  0  0  0
  1  4  1  0  0  0  0
  1 15  1  0  0  0  0
  2  1  2  0  0  0  0
  3  1  2  0  0  0  0
  4 26  1  0  0  0  0
  4  5  1  0  0  0  0
  5  7  1  0  0  0  0
  6  5  2  0  0  0  0
  7  8  1  0  0  0  0
  7 27  1  0  0  0  0
  8 13  2  0  0  0  0
  9 10  2  0  0  0  0
  9  8  2  0  0  0  0
 10 11  1  0  0  0  0
 11 29  1  0  0  0  0
 11 12  1  0  0  0  0
 12 14  1  0  0  0  0
 13 12  2  0  0  0  0
 14 30  1  0  0  0  0
 14 32  1  0  0  0  0
 15 16  1  0  0  0  0
 16 21  1  0  0  0  0
 16 17  2  0  0  0  0
 17 33  1  0  0  0  0
 18 17  1  0  0  0  0
 18 34  1  0  0  0  0
 19 18  2  0  0  0  0
 20 15  2  0  0  0  0
 20 19  1  0  0  0  0
 21 22  2  0  0  0  0
 23 24  1  0  0  0  0
 23 21  1  0  0  0  0
 24 38  1  0  0  0  0
 25 41  1  0  0  0  0
 25 24  1  0  0  0  0
 28 10  1  0  0  0  0
 31 14  1  0  0  0  0
 35 19  1  0  0  0  0
 36 20  1  0  0  0  0
 37 24  1  0  0  0  0
 39 25  1  0  0  0  0
 40 25  1  0  0  0  0
M  RAD  1  11   2
M  END
$$$$
