41
rmsd93.gzmat
S          0.00000        0.00000        0.00000
O          1.44030        0.00000        0.00000
O         -0.73760        0.00000       -1.23000
N         -0.39660        1.47900        0.87610
C         -1.65410        1.74240        1.35930
O         -2.58480        0.95920        1.28300
N         -1.93560        2.97770        2.01050
C         -1.09060        4.04450        2.26050
N          0.21400        4.01710        1.85410
C          0.97210        5.09220        2.14210
C          0.46200        6.19820        2.82110
C         -0.89310        6.16000        3.20480
N         -1.66880        5.09470        2.92900
C         -1.53410        7.28500        3.93920
C         -0.59960       -1.28000        1.03720
C          0.19920       -1.89800        1.99770
C         -0.30440       -2.93240        2.78300
C         -1.62820       -3.34290        2.61950
C         -2.43580       -2.72260        1.67110
C         -1.92290       -1.69310        0.87940
C          1.60520       -1.47610        2.26910
O          1.95090       -0.49750        2.87480
O          2.44280       -2.44130        1.82810
C          3.84770       -2.15910        1.88550
C          4.22370       -1.24720        0.73370
H          0.34660        2.18780        1.01090
H         -2.90660        3.07910        2.34470
H          2.01750        5.03590        1.80500
H          1.08090        7.05690        3.04710
H         -2.63700        7.23380        3.89350
H         -1.23110        8.26330        3.53940
H         -1.26210        7.26090        5.00780
H          0.33140       -3.41970        3.52180
H         -2.02650       -4.14710        3.23730
H         -3.47200       -3.03320        1.54640
H         -2.58240       -1.21040        0.14240
H          4.27440       -3.17480        1.79190
H          4.09940       -1.72830        2.87050
H          3.98350       -1.69910       -0.23710
H          5.28500       -0.99010        0.74480
H          3.64590       -0.30400        0.77130
