rmsd45.gzmat
 OpenBabel08211713403D

 41 42  0  0  0  0  0  0  0  0999 V2000
    0.0000    0.0000    0.0000 S   0  0  0  0  0  0  0  0  0  0  0  0
    1.4419    0.0000    0.0000 O   0  0  0  0  0  0  0  0  0  0  0  0
   -0.7366    0.0000   -1.2298 O   0  0  0  0  0  0  0  0  0  0  0  0
   -0.3862    1.4608    0.9040 N   0  0  0  0  0  0  0  0  0  0  0  0
   -1.6411    1.7310    1.3932 C   0  0  0  0  0  0  0  0  0  0  0  0
   -2.6011    0.9982    1.2348 O   0  0  0  0  0  0  0  0  0  0  0  0
   -1.8788    2.9257    2.1324 N   0  0  0  0  0  0  0  0  0  0  0  0
   -0.9602    3.8483    2.6018 C   0  0  0  0  0  0  0  0  0  0  0  0
   -1.4842    4.8641    3.3625 N   0  0  0  0  0  0  0  0  0  0  0  0
   -0.6181    5.7674    3.8499 C   0  0  0  0  0  0  0  0  0  0  0  0
    0.7590    5.6884    3.6123 C   0  0  0  0  0  0  0  0  0  0  0  0
    1.2218    4.6269    2.8188 C   0  0  0  0  0  0  0  0  0  0  0  0
    0.3661    3.7189    2.3043 N   0  0  0  0  0  0  0  0  0  0  0  0
    2.6641    4.4320    2.5095 C   0  0  0  0  0  0  0  0  0  0  0  0
   -0.5932   -1.2776    1.0446 C   0  0  0  0  0  0  0  0  0  0  0  0
    0.1966   -1.8371    2.0480 C   0  0  0  0  0  0  0  0  0  0  0  0
   -0.2891   -2.8758    2.8380 C   0  0  0  0  0  0  0  0  0  0  0  0
   -1.5897   -3.3424    2.6405 C   0  0  0  0  0  0  0  0  0  0  0  0
   -2.3926   -2.7711    1.6579 C   0  0  0  0  0  0  0  0  0  0  0  0
   -1.8957   -1.7393    0.8590 C   0  0  0  0  0  0  0  0  0  0  0  0
    1.5657   -1.3299    2.3594 C   0  0  0  0  0  0  0  0  0  0  0  0
    1.8277   -0.3202    2.9575 O   0  0  0  0  0  0  0  0  0  0  0  0
    2.4775   -2.2413    1.9567 O   0  0  0  0  0  0  0  0  0  0  0  0
    3.8570   -1.8578    2.0437 C   0  0  0  0  0  0  0  0  0  0  0  0
    4.1657   -0.8156    0.9865 C   0  0  0  0  0  0  0  0  0  0  0  0
    0.3875    2.1102    1.1388 H   0  0  0  0  0  0  0  0  0  0  0  0
   -2.8601    3.0772    2.4119 H   0  0  0  0  0  0  0  0  0  0  0  0
   -1.0626    6.5730    4.4518 H   0  0  0  0  0  0  0  0  0  0  0  0
    1.4433    6.4180    4.0256 H   0  0  0  0  0  0  0  0  0  0  0  0
    2.8301    3.6218    1.7754 H   0  0  0  0  0  0  0  0  0  0  0  0
    3.2248    4.1500    3.4167 H   0  0  0  0  0  0  0  0  0  0  0  0
    3.1226    5.3449    2.1023 H   0  0  0  0  0  0  0  0  0  0  0  0
    0.3406   -3.3222    3.6072 H   0  0  0  0  0  0  0  0  0  0  0  0
   -1.9749   -4.1505    3.2615 H   0  0  0  0  0  0  0  0  0  0  0  0
   -3.4130   -3.1220    1.5116 H   0  0  0  0  0  0  0  0  0  0  0  0
   -2.5511   -1.2915    0.0973 H   0  0  0  0  0  0  0  0  0  0  0  0
    4.3573   -2.8258    1.8577 H   0  0  0  0  0  0  0  0  0  0  0  0
    4.0718   -1.5062    3.0675 H   0  0  0  0  0  0  0  0  0  0  0  0
    3.7543   -1.1057    0.0062 H   0  0  0  0  0  0  0  0  0  0  0  0
    5.2387   -0.6478    0.8759 H   0  0  0  0  0  0  0  0  0  0  0  0
    3.6835    0.1485    1.2218 H   0  0  0  0  0  0  0  0  0  0  0  0
  1  4  1  0  0  0  0
  1 15  1  0  0  0  0
  2  1  2  0  0  0  0
  3  1  2  0  0  0  0
  4 26  1  0  0  0  0
  4  5  1  0  0  0  0
  5  7  1  0  0  0  0
  6  5  2  0  0  0  0
  7 27  1  0  0  0  0
  7  8  1  0  0  0  0
  8  9  2  0  0  0  0
  9 10  2  0  0  0  0
 10 28  1  0  0  0  0
 11 10  1  0  0  0  0
 11 29  1  0  0  0  0
 12 11  1  0  0  0  0
 13  8  2  0  0  0  0
 13 12  2  0  0  0  0
 14 12  1  0  0  0  0
 14 31  1  0  0  0  0
 15 16  1  0  0  0  0
 16 21  1  0  0  0  0
 16 17  2  0  0  0  0
 17 33  1  0  0  0  0
 18 17  1  0  0  0  0
 18 34  1  0  0  0  0
 19 18  2  0  0  0  0
 20 15  2  0  0  0  0
 20 19  1  0  0  0  0
 21 22  2  0  0  0  0
 23 24  1  0  0  0  0
 23 21  1  0  0  0  0
 24 38  1  0  0  0  0
 25 41  1  0  0  0  0
 25 24  1  0  0  0  0
 30 14  1  0  0  0  0
 32 14  1  0  0  0  0
 35 19  1  0  0  0  0
 36 20  1  0  0  0  0
 37 24  1  0  0  0  0
 39 25  1  0  0  0  0
 40 25  1  0  0  0  0
M  RAD  1  11   2
M  END
$$$$
