41

S         -0.54050       -0.14550       -0.37660
O          0.90350       -0.16010       -0.61450
O         -1.48530       -0.35890       -1.46280
N         -0.82420        1.35980        0.32870
C         -2.02300        1.68260        0.92530
O         -3.03970        1.02710        0.84680
N         -1.99670        2.86790        1.67190
C         -0.95160        3.69110        2.04760
N          0.27170        3.45920        1.55490
C          1.24840        4.26020        1.97890
C          1.01850        5.30410        2.86970
C         -0.30380        5.48320        3.31090
N         -1.27980        4.67030        2.89800
C         -0.69070        6.58090        4.25970
C         -0.92030       -1.33270        0.92010
C         -0.02170       -1.57490        1.97210
C         -0.31300       -2.60610        2.87230
C         -1.49330       -3.34330        2.74850
C         -2.38820       -3.07030        1.71200
C         -2.09690       -2.06740        0.78510
C          1.19780       -0.72760        2.19150
O          1.16970        0.47440        2.31400
O          2.30040       -1.47570        2.28850
C          3.55630       -0.77200        2.38830
C          4.05400       -0.37830        1.00920
H          0.00910        1.90280        0.61990
H         -2.88910        3.09430        2.09950
H          2.24960        4.05560        1.58580
H          1.82620        5.95450        3.20580
H         -1.44230        7.23340        3.78790
H          0.17300        7.18820        4.56200
H         -1.16220        6.15000        5.15680
H          0.39150       -2.82050        3.67780
H         -1.71200       -4.13710        3.46630
H         -3.31220       -3.64430        1.61590
H         -2.76310       -1.84240       -0.04740
H          4.23520       -1.48070        2.88280
H          3.41890        0.10860        3.03230
H          4.18830       -1.26760        0.37530
H          5.02190        0.14100        1.09350
H          3.33380        0.28700        0.51220
