
     RDKit          3D

 41 42  0  0  0  0  0  0  0  0999 V2000
   -0.3147    0.0915    0.0381 S   0  0  0  0  0  0  0  0  0  0  0  0
    1.1177    0.1133   -0.2552 O   0  0  0  0  0  0  0  0  0  0  0  0
   -1.2977    0.1338   -1.0364 O   0  0  0  0  0  0  0  0  0  0  0  0
   -0.5434    1.4369    1.0360 N   0  0  0  0  0  0  0  0  0  0  0  0
   -1.7135    1.7115    1.6977 C   0  0  0  0  0  0  0  0  0  0  0  0
   -2.7196    1.0373    1.6508 O   0  0  0  0  0  0  0  0  0  0  0  0
   -1.6713    2.8704    2.4889 N   0  0  0  0  0  0  0  0  0  0  0  0
   -0.6846    3.8131    2.6941 C   0  0  0  0  0  0  0  0  0  0  0  0
   -1.0399    4.8356    3.4863 N   0  0  0  0  0  0  0  0  0  0  0  0
   -0.1167    5.7700    3.6855 C   0  0  0  0  0  0  0  0  0  0  0  0
    1.1545    5.7159    3.1079 C   0  0  0  0  0  0  0  0  0  0  0  0
    1.4386    4.6059    2.3057 C   0  0  0  0  0  0  0  0  0  0  0  0
    0.5119    3.6551    2.1128 N   0  0  0  0  0  0  0  0  0  0  0  0
    2.7725    4.4059    1.6490 C   0  0  0  0  0  0  0  0  0  0  0  0
   -0.7145   -1.3368    1.0623 C   0  0  0  0  0  0  0  0  0  0  0  0
    0.2004   -1.9183    1.9586 C   0  0  0  0  0  0  0  0  0  0  0  0
   -0.1483   -3.1276    2.5732 C   0  0  0  0  0  0  0  0  0  0  0  0
   -1.3932   -3.7143    2.3437 C   0  0  0  0  0  0  0  0  0  0  0  0
   -2.3021   -3.1074    1.4749 C   0  0  0  0  0  0  0  0  0  0  0  0
   -1.9575   -1.9243    0.8202 C   0  0  0  0  0  0  0  0  0  0  0  0
    1.5433   -1.3522    2.3102 C   0  0  0  0  0  0  0  0  0  0  0  0
    2.5334   -2.0267    2.4447 O   0  0  0  0  0  0  0  0  0  0  0  0
    1.4747   -0.0324    2.5373 O   0  0  0  0  0  0  0  0  0  0  0  0
    2.6957    0.6939    2.7475 C   0  0  0  0  0  0  0  0  0  0  0  0
    2.6126    1.4454    4.0608 C   0  0  0  0  0  0  0  0  0  0  0  0
    0.2715    2.0429    1.2151 H   0  0  0  0  0  0  0  0  0  0  0  0
   -2.5464    3.0641    2.9661 H   0  0  0  0  0  0  0  0  0  0  0  0
   -0.4010    6.6077    4.3327 H   0  0  0  0  0  0  0  0  0  0  0  0
    1.8909    6.5020    3.2754 H   0  0  0  0  0  0  0  0  0  0  0  0
    2.6459    3.9568    0.6537 H   0  0  0  0  0  0  0  0  0  0  0  0
    3.3822    3.7103    2.2486 H   0  0  0  0  0  0  0  0  0  0  0  0
    3.3262    5.3504    1.5607 H   0  0  0  0  0  0  0  0  0  0  0  0
    0.5779   -3.5954    3.2400 H   0  0  0  0  0  0  0  0  0  0  0  0
   -1.6516   -4.6504    2.8436 H   0  0  0  0  0  0  0  0  0  0  0  0
   -3.2790   -3.5601    1.2924 H   0  0  0  0  0  0  0  0  0  0  0  0
   -2.6358   -1.4456    0.1154 H   0  0  0  0  0  0  0  0  0  0  0  0
    2.7919    1.3744    1.8876 H   0  0  0  0  0  0  0  0  0  0  0  0
    3.5353   -0.0135    2.7326 H   0  0  0  0  0  0  0  0  0  0  0  0
    1.7397    2.1147    4.0742 H   0  0  0  0  0  0  0  0  0  0  0  0
    3.5198    2.0530    4.2079 H   0  0  0  0  0  0  0  0  0  0  0  0
    2.5296    0.7470    4.9073 H   0  0  0  0  0  0  0  0  0  0  0  0
  1  2  2  0
  1  3  2  0
  1  4  1  0
  1 15  1  0
  4  5  1  0
  4 26  1  0
  5  6  2  0
  5  7  1  0
  7  8  1  0
  7 27  1  0
  8  9  2  0
  8 13  1  0
  9 10  1  0
 10 11  2  0
 10 28  1  0
 11 12  1  0
 11 29  1  0
 12 13  2  0
 12 14  1  0
 14 30  1  0
 14 31  1  0
 14 32  1  0
 15 16  2  0
 15 20  1  0
 16 17  1  0
 16 21  1  0
 17 18  2  0
 17 33  1  0
 18 19  1  0
 18 34  1  0
 19 20  2  0
 19 35  1  0
 20 36  1  0
 21 22  2  0
 21 23  1  0
 23 24  1  0
 24 25  1  0
 24 37  1  0
 24 38  1  0
 25 39  1  0
 25 40  1  0
 25 41  1  0
M  END

