42
rmsd183.gzmat
N          0.00000        0.00000        0.00000
C          1.35920        0.00000        0.00000
N          2.16980        0.00000        1.07450
C          1.51290       -0.03620        2.26500
C          0.08420       -0.08360        2.39690
C         -0.66970       -0.05730        1.19250
N         -2.02780       -0.08900        1.17630
N         -0.26140       -0.07750        3.74430
C          0.88160       -0.01930        4.42360
N          2.00800       -0.00850        3.55950
C          3.39500        0.23170        3.94010
C          3.91200        1.58180        3.42530
C          3.26740        2.78010        4.09920
O          3.87710        3.50800        4.85630
N          1.94340        2.99810        3.79570
C          1.22850        4.18980        4.25610
C          0.91270        5.13430        3.07290
C          0.15920        4.40590        2.00520
C         -1.21660        4.19030        2.13080
C         -1.90590        3.44570        1.18050
C         -1.18640        2.91320        0.10770
C          0.17880        3.15250       -0.06420
C          0.84500        3.90580        0.89530
O         -1.88690        2.13320       -0.76270
H          1.84470        0.01750       -0.99220
H         -2.52010        0.17190        0.33740
H         -2.52530       -0.04200        2.04910
H          0.98250        0.00300        5.49850
H          4.02490       -0.59030        3.51030
H          3.48490        0.17370        5.05060
H          3.78990        1.64620        2.31970
H          5.01130        1.64080        3.59530
H          1.45070        2.40320        3.15070
H          1.84030        4.72560        5.02050
H          0.28410        3.86840        4.75210
H          1.85810        5.55710        2.67490
H          0.33820        6.00620        3.44380
H         -1.75250        4.59840        2.98730
H         -2.97370        3.26710        1.26310
H          0.70630        2.75410       -0.92570
H          1.91190        4.09880        0.78270
H         -1.27850        1.48460       -1.21760
