rmsd178.gzmat
 OpenBabel08211713373D

 42 44  0  0  0  0  0  0  0  0999 V2000
    0.0000    0.0000    0.0000 N   0  0  0  0  0  0  0  0  0  0  0  0
    1.3590    0.0000    0.0000 C   0  0  0  0  0  0  0  0  0  0  0  0
    2.1704    0.0000    1.0737 N   0  0  0  0  0  0  0  0  0  0  0  0
    1.5137    0.0265    2.2650 C   0  0  0  0  0  0  0  0  0  0  0  0
    0.0848    0.0597    2.3979 C   0  0  0  0  0  0  0  0  0  0  0  0
   -0.6695    0.0427    1.1933 C   0  0  0  0  0  0  0  0  0  0  0  0
   -2.0278    0.0669    1.1772 N   0  0  0  0  0  0  0  0  0  0  0  0
   -0.2592    0.0388    3.7457 N   0  0  0  0  0  0  0  0  0  0  0  0
    0.8855   -0.0115    4.4234 C   0  0  0  0  0  0  0  0  0  0  0  0
    2.0105   -0.0041    3.5583 N   0  0  0  0  0  0  0  0  0  0  0  0
    3.4047   -0.2042    3.9356 C   0  0  0  0  0  0  0  0  0  0  0  0
    3.9630   -1.5250    3.3880 C   0  0  0  0  0  0  0  0  0  0  0  0
    3.2833   -2.7351    4.0019 C   0  0  0  0  0  0  0  0  0  0  0  0
    3.7841   -3.3821    4.8993 O   0  0  0  0  0  0  0  0  0  0  0  0
    2.0654   -3.0691    3.4596 N   0  0  0  0  0  0  0  0  0  0  0  0
    1.2908   -4.2140    3.9452 C   0  0  0  0  0  0  0  0  0  0  0  0
    0.9148   -5.1452    2.7707 C   0  0  0  0  0  0  0  0  0  0  0  0
    0.1353   -4.3950    1.7370 C   0  0  0  0  0  0  0  0  0  0  0  0
   -1.2294   -4.1520    1.9199 C   0  0  0  0  0  0  0  0  0  0  0  0
   -1.9388   -3.3776    1.0089 C   0  0  0  0  0  0  0  0  0  0  0  0
   -1.2490   -2.8446   -0.0828 C   0  0  0  0  0  0  0  0  0  0  0  0
    0.1008   -3.1179   -0.3164 C   0  0  0  0  0  0  0  0  0  0  0  0
    0.7870   -3.9006    0.6045 C   0  0  0  0  0  0  0  0  0  0  0  0
   -1.9602   -2.0239   -0.9072 O   0  0  0  0  0  0  0  0  0  0  0  0
    1.8444   -0.0133   -0.9925 H   0  0  0  0  0  0  0  0  0  0  0  0
   -2.5176   -0.1918    0.3355 H   0  0  0  0  0  0  0  0  0  0  0  0
   -2.5252    0.0125    2.0493 H   0  0  0  0  0  0  0  0  0  0  0  0
    0.9880   -0.0457    5.4980 H   0  0  0  0  0  0  0  0  0  0  0  0
    3.4905   -0.1728    5.0479 H   0  0  0  0  0  0  0  0  0  0  0  0
    4.0079    0.6483    3.5287 H   0  0  0  0  0  0  0  0  0  0  0  0
    5.0524   -1.5866    3.6084 H   0  0  0  0  0  0  0  0  0  0  0  0
    3.8907   -1.5452    2.2769 H   0  0  0  0  0  0  0  0  0  0  0  0
    1.6200   -2.4869    2.7689 H   0  0  0  0  0  0  0  0  0  0  0  0
    0.3701   -3.8458    4.4528 H   0  0  0  0  0  0  0  0  0  0  0  0
    1.8853   -4.7760    4.7051 H   0  0  0  0  0  0  0  0  0  0  0  0
    0.3369   -6.0077    3.1584 H   0  0  0  0  0  0  0  0  0  0  0  0
    1.8374   -5.5829    2.3364 H   0  0  0  0  0  0  0  0  0  0  0  0
   -1.7403   -4.5615    2.7908 H   0  0  0  0  0  0  0  0  0  0  0  0
   -2.9984   -3.1785    1.1357 H   0  0  0  0  0  0  0  0  0  0  0  0
    0.6014   -2.7187   -1.1933 H   0  0  0  0  0  0  0  0  0  0  0  0
    1.8436   -4.1184    0.4461 H   0  0  0  0  0  0  0  0  0  0  0  0
   -1.3497   -1.3757   -1.3596 H   0  0  0  0  0  0  0  0  0  0  0  0
  1  6  2  0  0  0  0
  2  1  2  0  0  0  0
  2  3  2  0  0  0  0
  3  4  2  0  0  0  0
  4  5  1  0  0  0  0
  4 10  1  0  0  0  0
  5  8  2  0  0  0  0
  6  5  1  0  0  0  0
  7  6  1  0  0  0  0
  7 27  1  0  0  0  0
  8  9  2  0  0  0  0
  9 28  1  0  0  0  0
 10 11  1  0  0  0  0
 10  9  1  0  0  0  0
 11 29  1  0  0  0  0
 12 31  1  0  0  0  0
 12 11  1  0  0  0  0
 12 13  1  0  0  0  0
 13 14  2  0  0  0  0
 15 16  1  0  0  0  0
 15 13  1  0  0  0  0
 16 34  1  0  0  0  0
 16 35  1  0  0  0  0
 17 36  1  0  0  0  0
 17 16  1  0  0  0  0
 18 19  1  0  0  0  0
 18 17  1  0  0  0  0
 19 38  1  0  0  0  0
 20 39  1  0  0  0  0
 20 19  2  0  0  0  0
 21 20  1  0  0  0  0
 22 21  2  0  0  0  0
 22 23  1  0  0  0  0
 23 18  2  0  0  0  0
 24 21  1  0  0  0  0
 25  2  1  0  0  0  0
 26  7  1  0  0  0  0
 30 11  1  0  0  0  0
 32 12  1  0  0  0  0
 33 15  1  0  0  0  0
 37 17  1  0  0  0  0
 40 22  1  0  0  0  0
 41 23  1  0  0  0  0
 42 24  1  0  0  0  0
M  END
$$$$
