42
rmsd78.gzmat
N          0.00000        0.00000        0.00000
C          1.35760        0.00000        0.00000
N          2.16950        0.00000        1.07550
C          1.50970        0.01040        2.26450
C          0.07870        0.00060        2.39920
C         -0.66930        0.00080        1.19120
N         -2.02690        0.00440        1.16610
N         -0.26140        0.00240        3.74840
C          0.88740        0.01640        4.42350
N          2.00720        0.03230        3.55620
C          3.41350        0.04920        3.92600
C          4.06940       -1.30570        3.60970
C          5.49180       -1.27980        4.12160
O          5.93270       -0.36310        4.78690
N          6.25330       -2.39310        3.83520
C          7.67770       -2.41120        4.17980
C          8.55580       -2.11630        2.94310
C          8.36700       -3.17300        1.90180
C          9.04530       -4.39300        2.01720
C          8.85530       -5.39860        1.08030
C          7.97050       -5.15980        0.02210
C          7.28630       -3.95260       -0.12020
C          7.49720       -2.95780        0.83180
O          7.83220       -6.18710       -0.85630
H          1.84060        0.00090       -0.99300
H         -2.52230        0.01350        0.29610
H         -2.54150        0.01320        2.02630
H          0.99240        0.02330        5.49750
H          3.51890        0.29740        5.00940
H          3.93580        0.86350        3.35990
H          4.03820       -1.49020        2.51240
H          3.50350       -2.13860        4.07280
H          5.94520       -3.09550        3.18110
H          7.92690       -3.41030        4.60240
H          7.88110       -1.65680        4.97810
H          9.61770       -2.05000        3.25380
H          8.31120       -1.10860        2.54710
H          9.72820       -4.55560        2.85050
H          9.37240       -6.35250        1.14910
H          6.61240       -3.78530       -0.95370
H          6.97760       -2.00340        0.73380
H          7.19000       -5.97830       -1.57660
