42

N         -0.07320        0.06830        0.15260
C          1.27030        0.02210        0.09710
N          2.12940       -0.02980        1.11020
C          1.51080       -0.04110        2.29840
C          0.12470       -0.00900        2.51220
C         -0.68530        0.04960        1.35550
N         -2.03340        0.09960        1.42590
N         -0.16540        0.03680        3.85890
C          1.00840        0.02930        4.44440
N          2.06960       -0.03670        3.55750
C          3.48690        0.10300        3.85910
C          3.98920        1.50580        3.49920
C          3.19220        2.54740        4.27830
O          3.33460        2.68990        5.48330
N          2.28840        3.24510        3.54040
C          1.36230        4.19700        4.12570
C          0.87340        5.21200        3.07860
C          0.14310        4.53210        1.94470
C         -1.22610        4.24030        2.04040
C         -1.86790        3.44610        1.09070
C         -1.14440        2.90500        0.02000
C          0.20670        3.24700       -0.12810
C          0.83620        4.05090        0.82250
O         -1.75020        2.02210       -0.82270
H          1.70130        0.04740       -0.91000
H         -2.52650        0.45820        0.61350
H         -2.43700        0.26780        2.33940
H          1.18620        0.08190        5.51900
H          4.04260       -0.66250        3.29850
H          3.61990       -0.07860        4.93470
H          3.91600        1.64950        2.41120
H          5.04490        1.59400        3.79530
H          2.12080        2.95990        2.58130
H          1.88050        4.69870        4.95580
H          0.49240        3.66980        4.55980
H          1.73850        5.77790        2.69620
H          0.21080        5.93100        3.58500
H         -1.79620        4.61830        2.89370
H         -2.92710        3.19950        1.18840
H          0.76330        2.86090       -0.98430
H          1.89320        4.30170        0.69200
H         -1.12690        1.26090       -0.91810
