42
rmsd182.gzmat
N          0.00000        0.00000        0.00000
C          1.35950        0.00000        0.00000
N          2.17040        0.00000        1.07420
C          1.51390       -0.03840        2.26490
C          0.08530       -0.09160        2.39600
C         -0.66900       -0.06190        1.19250
N         -2.02680       -0.09280        1.17900
N         -0.26120       -0.08930        3.74290
C          0.88110       -0.02630        4.42310
N          2.00810       -0.00700        3.55970
C          3.39420        0.23340        3.94520
C          3.92540        1.56750        3.40500
C          3.31990        2.78800        4.07520
O          3.97500        3.54080        4.76690
N          1.97760        2.99510        3.85180
C          1.30120        4.21520        4.29620
C          1.03520        5.16550        3.10470
C          0.25750        4.45760        2.04070
C         -1.12910        4.31490        2.15220
C         -1.84210        3.57250        1.21790
C         -1.13590        2.97160        0.17230
C          0.24070        3.14380        0.01000
C          0.93100        3.89480        0.95390
O         -1.86110        2.19730       -0.68170
H          1.84440        0.01910       -0.99260
H         -2.52320        0.16360        0.34190
H         -2.52240       -0.04760        2.05300
H          0.98010       -0.00690        5.49830
H          4.02150       -0.60290        3.54040
H          3.47330        0.20120        5.05760
H          3.78180        1.62300        2.30110
H          5.02970        1.60760        3.54920
H          1.45380        2.39220        3.23950
H          1.92300        4.73130        5.06570
H          0.33990        3.92920        4.78130
H          2.00230        5.54100        2.71060
H          0.49930        6.06610        3.46370
H         -1.65490        4.78100        2.98490
H         -2.91810        3.44820        1.29130
H          0.75910        2.69510       -0.83220
H          2.00680        4.03610        0.84810
H         -1.27010        1.54100       -1.14830
