42
rmsd178.gzmat
N          0.00000        0.00000        0.00000
C          1.35900        0.00000        0.00000
N          2.17040        0.00000        1.07370
C          1.51370        0.02650        2.26500
C          0.08480        0.05970        2.39790
C         -0.66950        0.04270        1.19330
N         -2.02780        0.06690        1.17720
N         -0.25920        0.03880        3.74570
C          0.88550       -0.01150        4.42340
N          2.01050       -0.00410        3.55830
C          3.40470       -0.20420        3.93560
C          3.96300       -1.52500        3.38800
C          3.28330       -2.73510        4.00190
O          3.78410       -3.38210        4.89930
N          2.06540       -3.06910        3.45960
C          1.29080       -4.21400        3.94520
C          0.91480       -5.14520        2.77070
C          0.13530       -4.39500        1.73700
C         -1.22940       -4.15200        1.91990
C         -1.93880       -3.37760        1.00890
C         -1.24900       -2.84460       -0.08280
C          0.10080       -3.11790       -0.31640
C          0.78700       -3.90060        0.60450
O         -1.96020       -2.02390       -0.90720
H          1.84440       -0.01330       -0.99250
H         -2.51760       -0.19180        0.33550
H         -2.52520        0.01250        2.04930
H          0.98800       -0.04570        5.49800
H          3.49050       -0.17280        5.04790
H          4.00790        0.64830        3.52870
H          5.05240       -1.58660        3.60840
H          3.89070       -1.54520        2.27690
H          1.62000       -2.48690        2.76890
H          0.37010       -3.84580        4.45280
H          1.88530       -4.77600        4.70510
H          0.33690       -6.00770        3.15840
H          1.83740       -5.58290        2.33640
H         -1.74030       -4.56150        2.79080
H         -2.99840       -3.17850        1.13570
H          0.60140       -2.71870       -1.19330
H          1.84360       -4.11840        0.44610
H         -1.34970       -1.37570       -1.35960
