42

N         -0.29630       -0.35280        0.25100
C          1.03440       -0.41980        0.16230
N          1.93030       -0.31600        1.14990
C          1.35260       -0.12350        2.34440
C         -0.02680       -0.04090        2.58780
C         -0.86620       -0.16440        1.45420
N         -2.20900       -0.10020        1.54660
N         -0.27810        0.15140        3.92970
C          0.91100        0.18420        4.48020
N          1.94790        0.02740        3.57650
C          3.37780        0.01200        3.84980
C          4.04470       -1.36430        3.60710
C          5.19930       -1.30720        2.60180
O          6.35200       -1.54970        2.93140
N          4.83580       -0.95640        1.34200
C          5.83410       -0.77120        0.30920
C          6.54760        0.59140        0.39690
C          7.64240        0.72880       -0.63020
C          7.42350        1.36910       -1.85980
C          8.42110        1.44950       -2.83020
C          9.67680        0.87750       -2.58830
C          9.91330        0.23100       -1.36770
C          8.90440        0.16010       -0.40600
O         10.62250        0.97980       -3.56020
H          1.44110       -0.58130       -0.84250
H         -2.76630       -0.19610        0.70850
H         -2.64590        0.04000        2.44680
H          1.11560        0.32330        5.54280
H          3.50520        0.32930        4.89370
H          3.84980        0.78190        3.22000
H          3.28420       -2.07390        3.24580
H          4.46180       -1.76520        4.53920
H          3.85280       -0.73100        1.14470
H          5.34900       -0.87970       -0.67330
H          6.58580       -1.56970        0.40100
H          6.96700        0.68010        1.41120
H          5.80260        1.39500        0.27550
H          6.44820        1.82180       -2.06110
H          8.24880        1.95390       -3.78280
H         10.89310       -0.21550       -1.16980
H          9.10210       -0.34710        0.54260
H         11.43250        0.54610       -3.26230
