rmsd97.gzmat
 OpenBabel08211713373D

 42 44  0  0  0  0  0  0  0  0999 V2000
    0.0000    0.0000    0.0000 N   0  0  0  0  0  0  0  0  0  0  0  0
    1.3596    0.0000    0.0000 C   0  0  0  0  0  0  0  0  0  0  0  0
    2.1711    0.0000    1.0726 N   0  0  0  0  0  0  0  0  0  0  0  0
    1.5092    0.0185    2.2624 C   0  0  0  0  0  0  0  0  0  0  0  0
    0.0813    0.0552    2.4002 C   0  0  0  0  0  0  0  0  0  0  0  0
   -0.6689    0.0553    1.1936 C   0  0  0  0  0  0  0  0  0  0  0  0
   -2.0250    0.1546    1.1685 N   0  0  0  0  0  0  0  0  0  0  0  0
   -0.2554    0.0445    3.7524 N   0  0  0  0  0  0  0  0  0  0  0  0
    0.8930    0.0028    4.4261 C   0  0  0  0  0  0  0  0  0  0  0  0
    2.0099    0.0122    3.5528 N   0  0  0  0  0  0  0  0  0  0  0  0
    3.4100   -0.1395    3.9094 C   0  0  0  0  0  0  0  0  0  0  0  0
    3.7778   -1.6254    4.0617 C   0  0  0  0  0  0  0  0  0  0  0  0
    3.3015   -2.1490    5.3933 C   0  0  0  0  0  0  0  0  0  0  0  0
    2.7800   -1.4336    6.2313 O   0  0  0  0  0  0  0  0  0  0  0  0
    3.5239   -3.4722    5.7228 N   0  0  0  0  0  0  0  0  0  0  0  0
    3.9304   -4.5037    4.7704 C   0  0  0  0  0  0  0  0  0  0  0  0
    2.7283   -5.3397    4.2788 C   0  0  0  0  0  0  0  0  0  0  0  0
    1.8288   -4.5554    3.3752 C   0  0  0  0  0  0  0  0  0  0  0  0
    0.6244   -4.0372    3.8674 C   0  0  0  0  0  0  0  0  0  0  0  0
   -0.2494   -3.3631    3.0275 C   0  0  0  0  0  0  0  0  0  0  0  0
    0.1054   -3.2143    1.6814 C   0  0  0  0  0  0  0  0  0  0  0  0
    1.3166   -3.6859    1.1747 C   0  0  0  0  0  0  0  0  0  0  0  0
    2.1750   -4.3625    2.0375 C   0  0  0  0  0  0  0  0  0  0  0  0
   -0.8147   -2.5851    0.9078 O   0  0  0  0  0  0  0  0  0  0  0  0
    1.8403   -0.0102   -0.9931 H   0  0  0  0  0  0  0  0  0  0  0  0
   -2.5213    0.0535    0.3050 H   0  0  0  0  0  0  0  0  0  0  0  0
   -2.5365    0.0619    2.0275 H   0  0  0  0  0  0  0  0  0  0  0  0
    1.0126   -0.0365    5.5043 H   0  0  0  0  0  0  0  0  0  0  0  0
    3.6061    0.4128    4.8631 H   0  0  0  0  0  0  0  0  0  0  0  0
    4.0378    0.3278    3.1088 H   0  0  0  0  0  0  0  0  0  0  0  0
    4.8753   -1.7504    3.9677 H   0  0  0  0  0  0  0  0  0  0  0  0
    3.3294   -2.2119    3.2260 H   0  0  0  0  0  0  0  0  0  0  0  0
    3.1525   -3.8012    6.6073 H   0  0  0  0  0  0  0  0  0  0  0  0
    4.6667   -5.1719    5.2776 H   0  0  0  0  0  0  0  0  0  0  0  0
    4.4643   -4.0571    3.9043 H   0  0  0  0  0  0  0  0  0  0  0  0
    2.1644   -5.7333    5.1494 H   0  0  0  0  0  0  0  0  0  0  0  0
    3.1045   -6.2423    3.7533 H   0  0  0  0  0  0  0  0  0  0  0  0
    0.3670   -4.1624    4.9195 H   0  0  0  0  0  0  0  0  0  0  0  0
   -1.1862   -2.9444    3.3920 H   0  0  0  0  0  0  0  0  0  0  0  0
    1.5842   -3.5348    0.1341 H   0  0  0  0  0  0  0  0  0  0  0  0
    3.1177   -4.7516    1.6564 H   0  0  0  0  0  0  0  0  0  0  0  0
   -0.4872   -2.4095   -0.0129 H   0  0  0  0  0  0  0  0  0  0  0  0
  1  2  2  0  0  0  0
  1  6  2  0  0  0  0
  2  3  2  0  0  0  0
  3  4  2  0  0  0  0
  4  5  1  0  0  0  0
  4 10  1  0  0  0  0
  5  8  2  0  0  0  0
  6  5  1  0  0  0  0
  7  6  1  0  0  0  0
  7 27  1  0  0  0  0
  8  9  2  0  0  0  0
  9 28  1  0  0  0  0
 10 11  1  0  0  0  0
 10  9  1  0  0  0  0
 11 12  1  0  0  0  0
 11 29  1  0  0  0  0
 12 13  1  0  0  0  0
 13 15  1  0  0  0  0
 13 14  2  0  0  0  0
 15 33  1  0  0  0  0
 16 34  1  0  0  0  0
 16 15  1  0  0  0  0
 17 16  1  0  0  0  0
 17 36  1  0  0  0  0
 18 19  1  0  0  0  0
 18 17  1  0  0  0  0
 19 38  1  0  0  0  0
 20 39  1  0  0  0  0
 20 19  2  0  0  0  0
 21 20  1  0  0  0  0
 22 21  2  0  0  0  0
 22 23  1  0  0  0  0
 23 18  2  0  0  0  0
 24 21  1  0  0  0  0
 25  2  1  0  0  0  0
 26  7  1  0  0  0  0
 30 11  1  0  0  0  0
 31 12  1  0  0  0  0
 32 12  1  0  0  0  0
 35 16  1  0  0  0  0
 37 17  1  0  0  0  0
 40 22  1  0  0  0  0
 41 23  1  0  0  0  0
 42 24  1  0  0  0  0
M  END
$$$$
