41
rmsd29.gzmat
S          0.00000        0.00000        0.00000
C          1.84700        0.00000        0.00000
H          2.19250        0.00000        1.06340
C          2.38670       -1.25910       -0.68220
O          3.75250       -1.29500       -0.27450
C          4.60220       -1.98760       -1.17050
C          4.81730       -1.19590       -2.42630
C          5.25100        0.12700       -2.32780
C          5.42620        0.88920       -3.47950
C          5.19110        0.32190       -4.73140
C          4.77630       -1.00480       -4.82930
C          4.58000       -1.76370       -3.67710
C          2.29020        1.27850       -0.70230
C          1.19050        1.83770       -1.63250
H          1.29880        2.96660       -1.67340
N          1.36710        1.36420       -3.02300
C          2.15390        2.22530       -3.92050
O          2.60030        3.23840       -3.43830
N          2.29850        1.81770       -5.21880
C          1.78450        0.64760       -5.63410
N          1.99640        0.33380       -6.94980
C          1.06220       -0.23300       -4.76340
C          0.88530        0.16840       -3.45970
C         -0.18550        1.49070       -1.05620
H          2.30320       -1.21860       -1.78190
H          1.91650       -2.18930       -0.31380
H          4.21340       -3.00370       -1.35670
H          5.53670       -2.06900       -0.57470
H          5.44480        0.56060       -1.34620
H          5.73510        1.93200       -3.40580
H          5.31710        0.92490       -5.63010
H          4.59950       -1.44740       -5.80630
H          4.24320       -2.79390       -3.75920
H          2.56420        2.05470        0.04150
H          3.22850        1.10700       -1.27600
H          2.48130        0.97940       -7.54470
H          1.60920       -0.48710       -7.35480
H          0.67670       -1.17590       -5.12010
H          0.33540       -0.47170       -2.75350
H         -0.56810        2.32400       -0.43650
H         -0.94900        1.31680       -1.83320
