rmsd28.gzmat
 OpenBabel08211713403D

 41 43  0  0  1  0  0  0  0  0999 V2000
    0.0000    0.0000    0.0000 S   0  0  0  0  0  0  0  0  0  0  0  0
    1.8423    0.0000    0.0000 C   0  0  1  0  0  0  0  0  0  0  0  0
    2.1859    0.0000    1.0587 H   0  0  0  0  0  0  0  0  0  0  0  0
    2.3535   -1.2601   -0.7060 C   0  0  0  0  0  0  0  0  0  0  0  0
    3.7078   -1.0925   -1.0836 O   0  0  0  0  0  0  0  0  0  0  0  0
    4.6535   -1.3571   -0.0639 C   0  0  0  0  0  0  0  0  0  0  0  0
    4.7450   -2.8251    0.2293 C   0  0  0  0  0  0  0  0  0  0  0  0
    4.5608   -3.7444   -0.8046 C   0  0  0  0  0  0  0  0  0  0  0  0
    4.6485   -5.1094   -0.5449 C   0  0  0  0  0  0  0  0  0  0  0  0
    4.9271   -5.5572    0.7456 C   0  0  0  0  0  0  0  0  0  0  0  0
    5.1171   -4.6383    1.7762 C   0  0  0  0  0  0  0  0  0  0  0  0
    5.0248   -3.2713    1.5206 C   0  0  0  0  0  0  0  0  0  0  0  0
    2.2623    1.2918   -0.6962 C   0  0  0  0  0  0  0  0  0  0  0  0
    1.1628    1.8184   -1.6541 C   0  0  1  0  0  0  0  0  0  0  0  0
    0.9289    2.8879   -1.3594 H   0  0  0  0  0  0  0  0  0  0  0  0
    1.6181    1.8605   -3.0588 N   0  0  0  0  0  0  0  0  0  0  0  0
    1.3030    3.0630   -3.8457 C   0  0  0  0  0  0  0  0  0  0  0  0
    0.7100    3.9429   -3.2702 O   0  0  0  0  0  0  0  0  0  0  0  0
    1.7061    3.0792   -5.1537 N   0  0  0  0  0  0  0  0  0  0  0  0
    2.3447    2.0267   -5.6922 C   0  0  0  0  0  0  0  0  0  0  0  0
    2.6967    2.1474   -7.0086 N   0  0  0  0  0  0  0  0  0  0  0  0
    2.6470    0.8380   -4.9470 C   0  0  0  0  0  0  0  0  0  0  0  0
    2.2621    0.8029   -3.6289 C   0  0  0  0  0  0  0  0  0  0  0  0
   -0.1235    0.9811   -1.5384 C   0  0  0  0  0  0  0  0  0  0  0  0
    1.8682   -1.4407   -1.6866 H   0  0  0  0  0  0  0  0  0  0  0  0
    2.2234   -2.1673   -0.0873 H   0  0  0  0  0  0  0  0  0  0  0  0
    4.4291   -0.7518    0.8321 H   0  0  0  0  0  0  0  0  0  0  0  0
    5.5937   -0.9812   -0.5241 H   0  0  0  0  0  0  0  0  0  0  0  0
    4.3473   -3.3872   -1.8127 H   0  0  0  0  0  0  0  0  0  0  0  0
    4.5016   -5.8268   -1.3498 H   0  0  0  0  0  0  0  0  0  0  0  0
    4.9963   -6.6239    0.9477 H   0  0  0  0  0  0  0  0  0  0  0  0
    5.3359   -4.9889    2.7832 H   0  0  0  0  0  0  0  0  0  0  0  0
    5.1707   -2.5589    2.3295 H   0  0  0  0  0  0  0  0  0  0  0  0
    2.4785    2.0774    0.0578 H   0  0  0  0  0  0  0  0  0  0  0  0
    3.2289    1.1575   -1.2263 H   0  0  0  0  0  0  0  0  0  0  0  0
    2.4815    2.9893   -7.5092 H   0  0  0  0  0  0  0  0  0  0  0  0
    3.1723    1.4183   -7.4872 H   0  0  0  0  0  0  0  0  0  0  0  0
    3.1639    0.0095   -5.4066 H   0  0  0  0  0  0  0  0  0  0  0  0
    2.4746   -0.0781   -3.0004 H   0  0  0  0  0  0  0  0  0  0  0  0
   -1.0198    1.6276   -1.4945 H   0  0  0  0  0  0  0  0  0  0  0  0
   -0.2692    0.3164   -2.4073 H   0  0  0  0  0  0  0  0  0  0  0  0
  2  1  1  0  0  0  0
  2  3  1  1  0  0  0
  4 26  1  0  0  0  0
  4  2  1  0  0  0  0
  5  4  1  0  0  0  0
  5  6  1  0  0  0  0
  6  7  1  0  0  0  0
  6 27  1  0  0  0  0
  7 12  2  0  0  0  0
  8  9  2  0  0  0  0
  8  7  1  0  0  0  0
  9 10  1  0  0  0  0
 10 31  1  0  0  0  0
 10 11  2  0  0  0  0
 11 32  1  0  0  0  0
 12 11  1  0  0  0  0
 12 33  1  0  0  0  0
 13  2  1  0  0  0  0
 13 34  1  0  0  0  0
 14 24  1  0  0  0  0
 14 15  1  1  0  0  0
 14 13  1  0  0  0  0
 16 14  1  0  0  0  0
 17 18  2  0  0  0  0
 17 16  1  0  0  0  0
 19 17  2  0  0  0  0
 20 19  2  0  0  0  0
 20 22  1  0  0  0  0
 21 20  1  0  0  0  0
 22 23  2  0  0  0  0
 23 16  1  0  0  0  0
 23 39  1  0  0  0  0
 24 40  1  0  0  0  0
 24  1  1  0  0  0  0
 25  4  1  0  0  0  0
 28  6  1  0  0  0  0
 29  8  1  0  0  0  0
 30  9  1  0  0  0  0
 35 13  1  0  0  0  0
 36 21  1  0  0  0  0
 37 21  1  0  0  0  0
 38 22  1  0  0  0  0
 41 24  1  0  0  0  0
M  END
$$$$
