
     RDKit          3D

 41 43  0  0  0  0  0  0  0  0999 V2000
   -0.1020   -0.1799   -0.1841 S   0  0  0  0  0  0  0  0  0  0  0  0
    1.7376   -0.0082   -0.0090 C   0  0  1  0  0  0  0  0  0  0  0  0
    1.9900   -0.1473    1.0523 H   0  0  0  0  0  0  0  0  0  0  0  0
    2.4539   -1.1007   -0.7948 C   0  0  0  0  0  0  0  0  0  0  0  0
    3.8273   -1.0124   -0.4895 O   0  0  0  0  0  0  0  0  0  0  0  0
    4.6390   -1.8892   -1.2397 C   0  0  0  0  0  0  0  0  0  0  0  0
    4.7281   -1.5286   -2.7088 C   0  0  0  0  0  0  0  0  0  0  0  0
    4.6488   -2.5150   -3.6989 C   0  0  0  0  0  0  0  0  0  0  0  0
    4.7731   -2.1783   -5.0506 C   0  0  0  0  0  0  0  0  0  0  0  0
    4.9669   -0.8464   -5.4230 C   0  0  0  0  0  0  0  0  0  0  0  0
    5.0307    0.1486   -4.4415 C   0  0  0  0  0  0  0  0  0  0  0  0
    4.9124   -0.1923   -3.0941 C   0  0  0  0  0  0  0  0  0  0  0  0
    2.0870    1.4213   -0.4498 C   0  0  0  0  0  0  0  0  0  0  0  0
    1.0648    1.9167   -1.4843 C   0  0  1  0  0  0  0  0  0  0  0  0
    1.1233    3.0116   -1.5359 H   0  0  0  0  0  0  0  0  0  0  0  0
    1.3554    1.4681   -2.8576 N   0  0  0  0  0  0  0  0  0  0  0  0
    2.3230    2.2544   -3.5787 C   0  0  0  0  0  0  0  0  0  0  0  0
    2.9015    3.1461   -2.9802 O   0  0  0  0  0  0  0  0  0  0  0  0
    2.5215    1.9450   -4.8906 N   0  0  0  0  0  0  0  0  0  0  0  0
    1.9391    0.9018   -5.4440 C   0  0  0  0  0  0  0  0  0  0  0  0
    2.1903    0.6646   -6.7573 N   0  0  0  0  0  0  0  0  0  0  0  0
    1.0488    0.0364   -4.7235 C   0  0  0  0  0  0  0  0  0  0  0  0
    0.7786    0.3832   -3.4337 C   0  0  0  0  0  0  0  0  0  0  0  0
   -0.3059    1.4774   -0.9697 C   0  0  0  0  0  0  0  0  0  0  0  0
    2.2838   -0.9835   -1.8785 H   0  0  0  0  0  0  0  0  0  0  0  0
    2.0565   -2.0951   -0.5073 H   0  0  0  0  0  0  0  0  0  0  0  0
    4.2896   -2.9356   -1.1330 H   0  0  0  0  0  0  0  0  0  0  0  0
    5.6387   -1.8292   -0.7789 H   0  0  0  0  0  0  0  0  0  0  0  0
    4.4894   -3.5578   -3.4096 H   0  0  0  0  0  0  0  0  0  0  0  0
    4.7149   -2.9597   -5.8127 H   0  0  0  0  0  0  0  0  0  0  0  0
    5.0585   -0.5797   -6.4784 H   0  0  0  0  0  0  0  0  0  0  0  0
    5.1467    1.1957   -4.7241 H   0  0  0  0  0  0  0  0  0  0  0  0
    4.9537    0.5884   -2.3316 H   0  0  0  0  0  0  0  0  0  0  0  0
    2.0317    2.0942    0.4192 H   0  0  0  0  0  0  0  0  0  0  0  0
    3.1102    1.4816   -0.8408 H   0  0  0  0  0  0  0  0  0  0  0  0
    2.8993    1.2321   -7.2040 H   0  0  0  0  0  0  0  0  0  0  0  0
    1.9207   -0.2086   -7.1861 H   0  0  0  0  0  0  0  0  0  0  0  0
    0.5888   -0.8400   -5.1776 H   0  0  0  0  0  0  0  0  0  0  0  0
    0.1129   -0.2079   -2.8030 H   0  0  0  0  0  0  0  0  0  0  0  0
   -0.6536    2.1931   -0.2115 H   0  0  0  0  0  0  0  0  0  0  0  0
   -1.0686    1.4253   -1.7597 H   0  0  0  0  0  0  0  0  0  0  0  0
  1  2  1  0
  1 24  1  0
  2  3  1  1
  2  4  1  0
  2 13  1  0
  4  5  1  0
  4 25  1  0
  4 26  1  0
  5  6  1  0
  6  7  1  0
  6 27  1  0
  6 28  1  0
  7  8  2  0
  7 12  1  0
  8  9  1  0
  8 29  1  0
  9 10  2  0
  9 30  1  0
 10 11  1  0
 10 31  1  0
 11 12  2  0
 11 32  1  0
 12 33  1  0
 13 14  1  0
 13 34  1  0
 13 35  1  0
 14 15  1  6
 14 16  1  0
 14 24  1  0
 16 17  1  0
 16 23  1  0
 17 18  2  0
 17 19  1  0
 19 20  2  0
 20 21  1  0
 20 22  1  0
 21 36  1  0
 21 37  1  0
 22 23  2  0
 22 38  1  0
 23 39  1  0
 24 40  1  0
 24 41  1  0
M  END

