
     RDKit          3D

 41 43  0  0  0  0  0  0  0  0999 V2000
    0.1182   -0.1988   -0.1662 S   0  0  0  0  0  0  0  0  0  0  0  0
    1.9680   -0.0293   -0.1102 C   0  0  1  0  0  0  0  0  0  0  0  0
    2.2526   -0.1086    0.9485 H   0  0  0  0  0  0  0  0  0  0  0  0
    2.6287   -1.1752   -0.8884 C   0  0  0  0  0  0  0  0  0  0  0  0
    4.0363   -1.0660   -0.9552 O   0  0  0  0  0  0  0  0  0  0  0  0
    4.7350   -1.1543    0.2731 C   0  0  0  0  0  0  0  0  0  0  0  0
    4.4781   -2.4388    1.0304 C   0  0  0  0  0  0  0  0  0  0  0  0
    4.6047   -3.6739    0.3758 C   0  0  0  0  0  0  0  0  0  0  0  0
    4.3679   -4.8661    1.0598 C   0  0  0  0  0  0  0  0  0  0  0  0
    4.0028   -4.8408    2.4109 C   0  0  0  0  0  0  0  0  0  0  0  0
    3.8712   -3.6169    3.0696 C   0  0  0  0  0  0  0  0  0  0  0  0
    4.1027   -2.4230    2.3785 C   0  0  0  0  0  0  0  0  0  0  0  0
    2.2970    1.3729   -0.6417 C   0  0  0  0  0  0  0  0  0  0  0  0
    1.2203    1.8099   -1.6482 C   0  0  1  0  0  0  0  0  0  0  0  0
    1.2796    2.8982   -1.7789 H   0  0  0  0  0  0  0  0  0  0  0  0
    1.4507    1.2557   -2.9934 N   0  0  0  0  0  0  0  0  0  0  0  0
    2.4587    1.9330   -3.7762 C   0  0  0  0  0  0  0  0  0  0  0  0
    3.0281    2.8854   -3.2722 O   0  0  0  0  0  0  0  0  0  0  0  0
    2.6977    1.4541   -5.0283 N   0  0  0  0  0  0  0  0  0  0  0  0
    2.0529    0.4064   -5.4981 C   0  0  0  0  0  0  0  0  0  0  0  0
    2.3510   -0.0015   -6.7566 N   0  0  0  0  0  0  0  0  0  0  0  0
    1.0562   -0.2994   -4.7397 C   0  0  0  0  0  0  0  0  0  0  0  0
    0.7973    0.1761   -3.4888 C   0  0  0  0  0  0  0  0  0  0  0  0
   -0.1198    1.4142   -1.0317 C   0  0  0  0  0  0  0  0  0  0  0  0
    2.2890   -1.1777   -1.9316 H   0  0  0  0  0  0  0  0  0  0  0  0
    2.3249   -2.1375   -0.4370 H   0  0  0  0  0  0  0  0  0  0  0  0
    4.5187   -0.2889    0.9272 H   0  0  0  0  0  0  0  0  0  0  0  0
    5.7990   -1.0859   -0.0045 H   0  0  0  0  0  0  0  0  0  0  0  0
    4.8812   -3.6880   -0.6815 H   0  0  0  0  0  0  0  0  0  0  0  0
    4.4695   -5.8219    0.5396 H   0  0  0  0  0  0  0  0  0  0  0  0
    3.8182   -5.7750    2.9467 H   0  0  0  0  0  0  0  0  0  0  0  0
    3.5807   -3.5889    4.1226 H   0  0  0  0  0  0  0  0  0  0  0  0
    3.9902   -1.4649    2.8942 H   0  0  0  0  0  0  0  0  0  0  0  0
    2.2915    2.0947    0.1893 H   0  0  0  0  0  0  0  0  0  0  0  0
    3.2947    1.4035   -1.0993 H   0  0  0  0  0  0  0  0  0  0  0  0
    3.0878    0.4862   -7.2501 H   0  0  0  0  0  0  0  0  0  0  0  0
    1.9454   -0.8349   -7.1548 H   0  0  0  0  0  0  0  0  0  0  0  0
    0.5294   -1.1699   -5.1290 H   0  0  0  0  0  0  0  0  0  0  0  0
    0.0838   -0.3130   -2.8246 H   0  0  0  0  0  0  0  0  0  0  0  0
   -0.4148    2.1755   -0.2960 H   0  0  0  0  0  0  0  0  0  0  0  0
   -0.9304    1.3283   -1.7695 H   0  0  0  0  0  0  0  0  0  0  0  0
  1  2  1  0
  1 24  1  0
  2  3  1  1
  2  4  1  0
  2 13  1  0
  4  5  1  0
  4 25  1  0
  4 26  1  0
  5  6  1  0
  6  7  1  0
  6 27  1  0
  6 28  1  0
  7  8  2  0
  7 12  1  0
  8  9  1  0
  8 29  1  0
  9 10  2  0
  9 30  1  0
 10 11  1  0
 10 31  1  0
 11 12  2  0
 11 32  1  0
 12 33  1  0
 13 14  1  0
 13 34  1  0
 13 35  1  0
 14 15  1  6
 14 16  1  0
 14 24  1  0
 16 17  1  0
 16 23  1  0
 17 18  2  0
 17 19  1  0
 19 20  2  0
 20 21  1  0
 20 22  1  0
 21 36  1  0
 21 37  1  0
 22 23  2  0
 22 38  1  0
 23 39  1  0
 24 40  1  0
 24 41  1  0
M  END

