
     RDKit          3D

 41 43  0  0  0  0  0  0  0  0999 V2000
   -0.0877   -0.2197   -0.1825 S   0  0  0  0  0  0  0  0  0  0  0  0
    1.7484   -0.0137   -0.0078 C   0  0  1  0  0  0  0  0  0  0  0  0
    2.0044   -0.1554    1.0523 H   0  0  0  0  0  0  0  0  0  0  0  0
    2.4847   -1.0867   -0.8018 C   0  0  0  0  0  0  0  0  0  0  0  0
    3.8565   -0.9737   -0.4978 O   0  0  0  0  0  0  0  0  0  0  0  0
    4.6840   -1.8304   -1.2541 C   0  0  0  0  0  0  0  0  0  0  0  0
    4.7631   -1.4605   -2.7214 C   0  0  0  0  0  0  0  0  0  0  0  0
    4.9209   -0.1189   -3.1001 C   0  0  0  0  0  0  0  0  0  0  0  0
    5.0294    0.2313   -4.4459 C   0  0  0  0  0  0  0  0  0  0  0  0
    4.9818   -0.7594   -5.4325 C   0  0  0  0  0  0  0  0  0  0  0  0
    4.8144   -2.0967   -5.0668 C   0  0  0  0  0  0  0  0  0  0  0  0
    4.7000   -2.4429   -3.7166 C   0  0  0  0  0  0  0  0  0  0  0  0
    2.0697    1.4253   -0.4388 C   0  0  0  0  0  0  0  0  0  0  0  0
    1.0368    1.9086   -1.4684 C   0  0  1  0  0  0  0  0  0  0  0  0
    1.0742    3.0047   -1.5120 H   0  0  0  0  0  0  0  0  0  0  0  0
    1.3343    1.4758   -2.8453 N   0  0  0  0  0  0  0  0  0  0  0  0
    2.2859    2.2858   -3.5616 C   0  0  0  0  0  0  0  0  0  0  0  0
    2.8475    3.1842   -2.9572 O   0  0  0  0  0  0  0  0  0  0  0  0
    2.4892    1.9896   -4.8757 N   0  0  0  0  0  0  0  0  0  0  0  0
    1.9263    0.9396   -5.4362 C   0  0  0  0  0  0  0  0  0  0  0  0
    2.1807    0.7166   -6.7514 N   0  0  0  0  0  0  0  0  0  0  0  0
    1.0534    0.0521   -4.7213 C   0  0  0  0  0  0  0  0  0  0  0  0
    0.7780    0.3842   -3.4288 C   0  0  0  0  0  0  0  0  0  0  0  0
   -0.3245    1.4391   -0.9555 C   0  0  0  0  0  0  0  0  0  0  0  0
    2.3108   -0.9657   -1.8845 H   0  0  0  0  0  0  0  0  0  0  0  0
    2.1072   -2.0905   -0.5204 H   0  0  0  0  0  0  0  0  0  0  0  0
    4.3554   -2.8840   -1.1523 H   0  0  0  0  0  0  0  0  0  0  0  0
    5.6832   -1.7532   -0.7947 H   0  0  0  0  0  0  0  0  0  0  0  0
    4.9493    0.6584   -2.3335 H   0  0  0  0  0  0  0  0  0  0  0  0
    5.1247    1.2819   -4.7232 H   0  0  0  0  0  0  0  0  0  0  0  0
    5.0656   -0.4855   -6.4867 H   0  0  0  0  0  0  0  0  0  0  0  0
    4.7691   -2.8751   -5.8329 H   0  0  0  0  0  0  0  0  0  0  0  0
    4.5612   -3.4901   -3.4325 H   0  0  0  0  0  0  0  0  0  0  0  0
    2.0028    2.0908    0.4351 H   0  0  0  0  0  0  0  0  0  0  0  0
    3.0910    1.5081   -0.8306 H   0  0  0  0  0  0  0  0  0  0  0  0
    2.8781    1.3009   -7.1948 H   0  0  0  0  0  0  0  0  0  0  0  0
    1.9272   -0.1583   -7.1864 H   0  0  0  0  0  0  0  0  0  0  0  0
    0.6098   -0.8297   -5.1813 H   0  0  0  0  0  0  0  0  0  0  0  0
    0.1244   -0.2241   -2.8018 H   0  0  0  0  0  0  0  0  0  0  0  0
   -0.6850    2.1424   -0.1917 H   0  0  0  0  0  0  0  0  0  0  0  0
   -1.0871    1.3782   -1.7451 H   0  0  0  0  0  0  0  0  0  0  0  0
  1  2  1  0
  1 24  1  0
  2  3  1  1
  2  4  1  0
  2 13  1  0
  4  5  1  0
  4 25  1  0
  4 26  1  0
  5  6  1  0
  6  7  1  0
  6 27  1  0
  6 28  1  0
  7  8  2  0
  7 12  1  0
  8  9  1  0
  8 29  1  0
  9 10  2  0
  9 30  1  0
 10 11  1  0
 10 31  1  0
 11 12  2  0
 11 32  1  0
 12 33  1  0
 13 14  1  0
 13 34  1  0
 13 35  1  0
 14 15  1  6
 14 16  1  0
 14 24  1  0
 16 17  1  0
 16 23  1  0
 17 18  2  0
 17 19  1  0
 19 20  2  0
 20 21  1  0
 20 22  1  0
 21 36  1  0
 21 37  1  0
 22 23  2  0
 22 38  1  0
 23 39  1  0
 24 40  1  0
 24 41  1  0
M  END

