rmsd44.gzmat
 OpenBabel08211713403D

 41 43  0  0  1  0  0  0  0  0999 V2000
    0.0000    0.0000    0.0000 S   0  0  0  0  0  0  0  0  0  0  0  0
    1.8452    0.0000    0.0000 C   0  0  1  0  0  0  0  0  0  0  0  0
    2.1746    0.0000    1.0654 H   0  0  0  0  0  0  0  0  0  0  0  0
    2.3680   -1.2658   -0.6839 C   0  0  0  0  0  0  0  0  0  0  0  0
    3.7831   -1.2558   -0.7135 O   0  0  0  0  0  0  0  0  0  0  0  0
    4.4195   -1.5807    0.5087 C   0  0  0  0  0  0  0  0  0  0  0  0
    4.1402   -2.9928    0.9281 C   0  0  0  0  0  0  0  0  0  0  0  0
    4.1346   -4.0053   -0.0329 C   0  0  0  0  0  0  0  0  0  0  0  0
    3.8710   -5.3196    0.3437 C   0  0  0  0  0  0  0  0  0  0  0  0
    3.6175   -5.6242    1.6808 C   0  0  0  0  0  0  0  0  0  0  0  0
    3.6292   -4.6133    2.6400 C   0  0  0  0  0  0  0  0  0  0  0  0
    3.8891   -3.2963    2.2653 C   0  0  0  0  0  0  0  0  0  0  0  0
    2.3134    1.2760   -0.6934 C   0  0  0  0  0  0  0  0  0  0  0  0
    1.1779    1.9862   -1.4682 C   0  0  1  0  0  0  0  0  0  0  0  0
    1.3051    3.1061   -1.3327 H   0  0  0  0  0  0  0  0  0  0  0  0
    1.2786    1.7323   -2.9204 N   0  0  0  0  0  0  0  0  0  0  0  0
    1.7614    2.8303   -3.7744 C   0  0  0  0  0  0  0  0  0  0  0  0
    2.0056    3.8752   -3.2213 O   0  0  0  0  0  0  0  0  0  0  0  0
    1.8851    2.5762   -5.1131 N   0  0  0  0  0  0  0  0  0  0  0  0
    1.5883    1.3665   -5.6177 C   0  0  0  0  0  0  0  0  0  0  0  0
    1.7558    1.2233   -6.9676 N   0  0  0  0  0  0  0  0  0  0  0  0
    1.1248    0.2803   -4.8028 C   0  0  0  0  0  0  0  0  0  0  0  0
    0.9896    0.5130   -3.4548 C   0  0  0  0  0  0  0  0  0  0  0  0
   -0.1895    1.5791   -0.9083 C   0  0  0  0  0  0  0  0  0  0  0  0
    2.1326   -1.3069   -1.7657 H   0  0  0  0  0  0  0  0  0  0  0  0
    1.9960   -2.1904   -0.2049 H   0  0  0  0  0  0  0  0  0  0  0  0
    4.1506   -0.8403    1.2831 H   0  0  0  0  0  0  0  0  0  0  0  0
    5.4909   -1.4419    0.2435 H   0  0  0  0  0  0  0  0  0  0  0  0
    4.3324   -3.7574   -1.0763 H   0  0  0  0  0  0  0  0  0  0  0  0
    3.8636   -6.1094   -0.4049 H   0  0  0  0  0  0  0  0  0  0  0  0
    3.4131   -6.6513    1.9754 H   0  0  0  0  0  0  0  0  0  0  0  0
    3.4337   -4.8516    3.6835 H   0  0  0  0  0  0  0  0  0  0  0  0
    3.8936   -2.5107    3.0179 H   0  0  0  0  0  0  0  0  0  0  0  0
    2.7326    1.9833    0.0513 H   0  0  0  0  0  0  0  0  0  0  0  0
    3.1686    1.0604   -1.3724 H   0  0  0  0  0  0  0  0  0  0  0  0
    2.0779    1.9985   -7.5169 H   0  0  0  0  0  0  0  0  0  0  0  0
    1.5345    0.3725   -7.4309 H   0  0  0  0  0  0  0  0  0  0  0  0
    0.8965   -0.6820   -5.2349 H   0  0  0  0  0  0  0  0  0  0  0  0
    0.6354   -0.2825   -2.7823 H   0  0  0  0  0  0  0  0  0  0  0  0
   -0.5743    2.3510   -0.2152 H   0  0  0  0  0  0  0  0  0  0  0  0
   -0.9557    1.4715   -1.6965 H   0  0  0  0  0  0  0  0  0  0  0  0
  1  2  1  0  0  0  0
  2  3  1  1  0  0  0
  4 26  1  0  0  0  0
  4  2  1  0  0  0  0
  5  4  1  0  0  0  0
  5  6  1  0  0  0  0
  6  7  1  0  0  0  0
  6 27  1  0  0  0  0
  7 12  2  0  0  0  0
  8  9  2  0  0  0  0
  8  7  1  0  0  0  0
  9 10  1  0  0  0  0
 10 31  1  0  0  0  0
 10 11  2  0  0  0  0
 11 32  1  0  0  0  0
 12 11  1  0  0  0  0
 12 33  1  0  0  0  0
 13  2  1  0  0  0  0
 13 34  1  0  0  0  0
 14 15  1  1  0  0  0
 14 24  1  0  0  0  0
 14 13  1  0  0  0  0
 16 14  1  0  0  0  0
 17 18  2  0  0  0  0
 17 16  1  0  0  0  0
 19 17  2  0  0  0  0
 20 19  2  0  0  0  0
 20 22  1  0  0  0  0
 21 20  1  0  0  0  0
 22 23  2  0  0  0  0
 23 16  1  0  0  0  0
 23 39  1  0  0  0  0
 24 40  1  0  0  0  0
 24  1  1  0  0  0  0
 25  4  1  0  0  0  0
 28  6  1  0  0  0  0
 29  8  1  0  0  0  0
 30  9  1  0  0  0  0
 35 13  1  0  0  0  0
 36 21  1  0  0  0  0
 37 21  1  0  0  0  0
 38 22  1  0  0  0  0
 41 24  1  0  0  0  0
M  END
$$$$
