rmsd29.gzmat
 OpenBabel08211713403D

 41 43  0  0  1  0  0  0  0  0999 V2000
    0.0000    0.0000    0.0000 S   0  0  0  0  0  0  0  0  0  0  0  0
    1.8470    0.0000    0.0000 C   0  0  1  0  0  0  0  0  0  0  0  0
    2.1925    0.0000    1.0634 H   0  0  0  0  0  0  0  0  0  0  0  0
    2.3867   -1.2591   -0.6822 C   0  0  0  0  0  0  0  0  0  0  0  0
    3.7525   -1.2950   -0.2745 O   0  0  0  0  0  0  0  0  0  0  0  0
    4.6022   -1.9876   -1.1705 C   0  0  0  0  0  0  0  0  0  0  0  0
    4.8173   -1.1959   -2.4263 C   0  0  0  0  0  0  0  0  0  0  0  0
    5.2510    0.1270   -2.3278 C   0  0  0  0  0  0  0  0  0  0  0  0
    5.4262    0.8892   -3.4795 C   0  0  0  0  0  0  0  0  0  0  0  0
    5.1911    0.3219   -4.7314 C   0  0  0  0  0  0  0  0  0  0  0  0
    4.7763   -1.0048   -4.8293 C   0  0  0  0  0  0  0  0  0  0  0  0
    4.5800   -1.7637   -3.6771 C   0  0  0  0  0  0  0  0  0  0  0  0
    2.2902    1.2785   -0.7023 C   0  0  0  0  0  0  0  0  0  0  0  0
    1.1905    1.8377   -1.6325 C   0  0  1  0  0  0  0  0  0  0  0  0
    1.2988    2.9666   -1.6734 H   0  0  0  0  0  0  0  0  0  0  0  0
    1.3671    1.3642   -3.0230 N   0  0  0  0  0  0  0  0  0  0  0  0
    2.1539    2.2253   -3.9205 C   0  0  0  0  0  0  0  0  0  0  0  0
    2.6003    3.2384   -3.4383 O   0  0  0  0  0  0  0  0  0  0  0  0
    2.2985    1.8177   -5.2188 N   0  0  0  0  0  0  0  0  0  0  0  0
    1.7845    0.6476   -5.6341 C   0  0  0  0  0  0  0  0  0  0  0  0
    1.9964    0.3338   -6.9498 N   0  0  0  0  0  0  0  0  0  0  0  0
    1.0622   -0.2330   -4.7634 C   0  0  0  0  0  0  0  0  0  0  0  0
    0.8853    0.1684   -3.4597 C   0  0  0  0  0  0  0  0  0  0  0  0
   -0.1855    1.4907   -1.0562 C   0  0  0  0  0  0  0  0  0  0  0  0
    2.3032   -1.2186   -1.7819 H   0  0  0  0  0  0  0  0  0  0  0  0
    1.9165   -2.1893   -0.3138 H   0  0  0  0  0  0  0  0  0  0  0  0
    4.2134   -3.0037   -1.3567 H   0  0  0  0  0  0  0  0  0  0  0  0
    5.5367   -2.0690   -0.5747 H   0  0  0  0  0  0  0  0  0  0  0  0
    5.4448    0.5606   -1.3462 H   0  0  0  0  0  0  0  0  0  0  0  0
    5.7351    1.9320   -3.4058 H   0  0  0  0  0  0  0  0  0  0  0  0
    5.3171    0.9249   -5.6301 H   0  0  0  0  0  0  0  0  0  0  0  0
    4.5995   -1.4474   -5.8063 H   0  0  0  0  0  0  0  0  0  0  0  0
    4.2432   -2.7939   -3.7592 H   0  0  0  0  0  0  0  0  0  0  0  0
    2.5642    2.0547    0.0415 H   0  0  0  0  0  0  0  0  0  0  0  0
    3.2285    1.1070   -1.2760 H   0  0  0  0  0  0  0  0  0  0  0  0
    2.4813    0.9794   -7.5447 H   0  0  0  0  0  0  0  0  0  0  0  0
    1.6092   -0.4871   -7.3548 H   0  0  0  0  0  0  0  0  0  0  0  0
    0.6767   -1.1759   -5.1201 H   0  0  0  0  0  0  0  0  0  0  0  0
    0.3354   -0.4717   -2.7535 H   0  0  0  0  0  0  0  0  0  0  0  0
   -0.5681    2.3240   -0.4365 H   0  0  0  0  0  0  0  0  0  0  0  0
   -0.9490    1.3168   -1.8332 H   0  0  0  0  0  0  0  0  0  0  0  0
  2  1  1  0  0  0  0
  2  3  1  1  0  0  0
  4 26  1  0  0  0  0
  4  5  1  0  0  0  0
  4  2  1  0  0  0  0
  6 28  1  0  0  0  0
  6  5  1  0  0  0  0
  7  8  1  0  0  0  0
  7  6  1  0  0  0  0
  8 29  1  0  0  0  0
  9 30  1  0  0  0  0
  9  8  2  0  0  0  0
 10  9  1  0  0  0  0
 11 10  2  0  0  0  0
 11 12  1  0  0  0  0
 12  7  2  0  0  0  0
 13  2  1  0  0  0  0
 13 34  1  0  0  0  0
 14 15  1  6  0  0  0
 14 24  1  0  0  0  0
 14 13  1  0  0  0  0
 16 14  1  0  0  0  0
 17 18  2  0  0  0  0
 17 16  1  0  0  0  0
 19 17  2  0  0  0  0
 20 19  2  0  0  0  0
 20 22  1  0  0  0  0
 21 20  1  0  0  0  0
 22 23  2  0  0  0  0
 23 16  1  0  0  0  0
 23 39  1  0  0  0  0
 24 40  1  0  0  0  0
 24  1  1  0  0  0  0
 25  4  1  0  0  0  0
 27  6  1  0  0  0  0
 31 10  1  0  0  0  0
 32 11  1  0  0  0  0
 33 12  1  0  0  0  0
 35 13  1  0  0  0  0
 36 21  1  0  0  0  0
 37 21  1  0  0  0  0
 38 22  1  0  0  0  0
 41 24  1  0  0  0  0
M  END
$$$$
