rmsd10.gzmat
 OpenBabel08211713403D

 41 43  0  0  1  0  0  0  0  0999 V2000
    0.0000    0.0000    0.0000 S   0  0  0  0  0  0  0  0  0  0  0  0
    1.8413    0.0000    0.0000 C   0  0  1  0  0  0  0  0  0  0  0  0
    2.1789    0.0000    1.0615 H   0  0  0  0  0  0  0  0  0  0  0  0
    2.3571   -1.2620   -0.6978 C   0  0  0  0  0  0  0  0  0  0  0  0
    3.7237   -1.1203   -1.0385 O   0  0  0  0  0  0  0  0  0  0  0  0
    4.6339   -1.2958    0.0318 C   0  0  0  0  0  0  0  0  0  0  0  0
    4.6742   -2.7191    0.5029 C   0  0  0  0  0  0  0  0  0  0  0  0
    4.5133   -3.7534   -0.4199 C   0  0  0  0  0  0  0  0  0  0  0  0
    4.5556   -5.0783    0.0065 C   0  0  0  0  0  0  0  0  0  0  0  0
    4.7661   -5.3717    1.3532 C   0  0  0  0  0  0  0  0  0  0  0  0
    4.9327   -4.3384    2.2733 C   0  0  0  0  0  0  0  0  0  0  0  0
    4.8840   -3.0109    1.8508 C   0  0  0  0  0  0  0  0  0  0  0  0
    2.2708    1.2905   -0.6931 C   0  0  0  0  0  0  0  0  0  0  0  0
    1.1671    1.8477   -1.6273 C   0  0  1  0  0  0  0  0  0  0  0  0
    0.9664    2.9215   -1.3226 H   0  0  0  0  0  0  0  0  0  0  0  0
    1.5871    1.8905   -3.0435 N   0  0  0  0  0  0  0  0  0  0  0  0
    1.1779    3.0615   -3.8355 C   0  0  0  0  0  0  0  0  0  0  0  0
    0.5925    3.9345   -3.2420 O   0  0  0  0  0  0  0  0  0  0  0  0
    1.4938    3.0596   -5.1672 N   0  0  0  0  0  0  0  0  0  0  0  0
    2.1474    2.0236   -5.7199 C   0  0  0  0  0  0  0  0  0  0  0  0
    2.3971    2.1212   -7.0615 N   0  0  0  0  0  0  0  0  0  0  0  0
    2.5587    0.8742   -4.9648 C   0  0  0  0  0  0  0  0  0  0  0  0
    2.2450    0.8496   -3.6276 C   0  0  0  0  0  0  0  0  0  0  0  0
   -0.1385    1.0430   -1.4949 C   0  0  0  0  0  0  0  0  0  0  0  0
    1.8976   -1.4332   -1.6918 H   0  0  0  0  0  0  0  0  0  0  0  0
    2.2010   -2.1690   -0.0842 H   0  0  0  0  0  0  0  0  0  0  0  0
    4.4070   -0.5806    0.8424 H   0  0  0  0  0  0  0  0  0  0  0  0
    5.5966   -1.0047   -0.4433 H   0  0  0  0  0  0  0  0  0  0  0  0
    4.3533   -3.5168   -1.4723 H   0  0  0  0  0  0  0  0  0  0  0  0
    4.4265   -5.8850   -0.7123 H   0  0  0  0  0  0  0  0  0  0  0  0
    4.8004   -6.4073    1.6853 H   0  0  0  0  0  0  0  0  0  0  0  0
    5.0995   -4.5688    3.3241 H   0  0  0  0  0  0  0  0  0  0  0  0
    5.0089   -2.2080    2.5742 H   0  0  0  0  0  0  0  0  0  0  0  0
    2.5130    2.0641    0.0657 H   0  0  0  0  0  0  0  0  0  0  0  0
    3.2277    1.1442   -1.2377 H   0  0  0  0  0  0  0  0  0  0  0  0
    2.1001    2.9353   -7.5681 H   0  0  0  0  0  0  0  0  0  0  0  0
    2.8926    1.4118   -7.5505 H   0  0  0  0  0  0  0  0  0  0  0  0
    3.0949    0.0626   -5.4333 H   0  0  0  0  0  0  0  0  0  0  0  0
    2.5285   -0.0086   -2.9954 H   0  0  0  0  0  0  0  0  0  0  0  0
   -1.0130    1.7137   -1.3962 H   0  0  0  0  0  0  0  0  0  0  0  0
   -0.3353    0.4174   -2.3830 H   0  0  0  0  0  0  0  0  0  0  0  0
  2  1  1  0  0  0  0
  2  3  1  1  0  0  0
  4 26  1  0  0  0  0
  4  2  1  0  0  0  0
  5  4  1  0  0  0  0
  5  6  1  0  0  0  0
  6  7  1  0  0  0  0
  6 27  1  0  0  0  0
  7 12  2  0  0  0  0
  8  9  2  0  0  0  0
  8  7  1  0  0  0  0
  9 10  1  0  0  0  0
 10 31  1  0  0  0  0
 10 11  2  0  0  0  0
 11 32  1  0  0  0  0
 12 11  1  0  0  0  0
 12 33  1  0  0  0  0
 13  2  1  0  0  0  0
 13 34  1  0  0  0  0
 14 24  1  0  0  0  0
 14 15  1  1  0  0  0
 14 13  1  0  0  0  0
 16 14  1  0  0  0  0
 17 18  2  0  0  0  0
 17 16  1  0  0  0  0
 19 17  2  0  0  0  0
 20 19  2  0  0  0  0
 20 22  1  0  0  0  0
 21 20  1  0  0  0  0
 22 23  2  0  0  0  0
 23 16  1  0  0  0  0
 23 39  1  0  0  0  0
 24 40  1  0  0  0  0
 24  1  1  0  0  0  0
 25  4  1  0  0  0  0
 28  6  1  0  0  0  0
 29  8  1  0  0  0  0
 30  9  1  0  0  0  0
 35 13  1  0  0  0  0
 36 21  1  0  0  0  0
 37 21  1  0  0  0  0
 38 22  1  0  0  0  0
 41 24  1  0  0  0  0
M  END
$$$$
