41
rmsd12.gzmat
S          0.00000        0.00000        0.00000
C          1.84760        0.00000        0.00000
H          2.17890        0.00000        1.06440
C          2.37480       -1.26060       -0.69070
O          3.76790       -1.17810       -0.91850
C          4.58580       -1.20310        0.23660
C          4.43150       -2.47490        1.01440
C          4.41090       -3.69470        0.33560
C          4.26400       -4.88280        1.04610
C          4.13980       -4.85430        2.43490
C          4.16420       -3.63650        3.11190
C          4.30970       -2.44540        2.40290
C          2.28900        1.28130       -0.69650
C          1.19450        1.81990       -1.64900
H          1.28990        2.94870       -1.70580
N          1.42050        1.32680       -3.02510
C          2.36890        2.10390       -3.84380
O          2.78260        3.12630       -3.35260
N          2.68970        1.60970       -5.07760
C          2.16480        0.45150       -5.51380
N          2.56090        0.04610       -6.75900
C          1.24540       -0.32360       -4.73260
C          0.91630        0.14890       -3.48310
C         -0.18530        1.46710       -1.08890
H          2.00510       -1.37920       -1.72890
H          2.13700       -2.17720       -0.11900
H          4.40090       -0.29910        0.84390
H          5.60070       -1.12310       -0.21350
H          4.50670       -3.70760       -0.75070
H          4.24800       -5.83430        0.51840
H          4.02500       -5.78280        2.98970
H          4.06870       -3.61470        4.19560
H          4.32890       -1.49780        2.93670
H          2.53810        2.06480        0.04680
H          3.23750        1.11920       -1.25950
H          3.21550        0.59910       -7.28080
H          2.23190       -0.80260       -7.15720
H          0.83590       -1.24750       -5.11100
H          0.22540       -0.41830       -2.84180
H         -0.58680        2.30790       -0.49140
H         -0.93590        1.27200       -1.87260
