41

S         -0.10200       -0.17990       -0.18410
C          1.73760       -0.00820       -0.00900
H          1.99000       -0.14730        1.05230
C          2.45390       -1.10070       -0.79480
O          3.82730       -1.01240       -0.48950
C          4.63900       -1.88920       -1.23970
C          4.72810       -1.52860       -2.70880
C          4.64880       -2.51500       -3.69890
C          4.77310       -2.17830       -5.05060
C          4.96690       -0.84640       -5.42300
C          5.03070        0.14860       -4.44150
C          4.91240       -0.19230       -3.09410
C          2.08700        1.42130       -0.44980
C          1.06480        1.91670       -1.48430
H          1.12330        3.01160       -1.53590
N          1.35540        1.46810       -2.85760
C          2.32300        2.25440       -3.57870
O          2.90150        3.14610       -2.98020
N          2.52150        1.94500       -4.89060
C          1.93910        0.90180       -5.44400
N          2.19030        0.66460       -6.75730
C          1.04880        0.03640       -4.72350
C          0.77860        0.38320       -3.43370
C         -0.30590        1.47740       -0.96970
H          2.28380       -0.98350       -1.87850
H          2.05650       -2.09510       -0.50730
H          4.28960       -2.93560       -1.13300
H          5.63870       -1.82920       -0.77890
H          4.48940       -3.55780       -3.40960
H          4.71490       -2.95970       -5.81270
H          5.05850       -0.57970       -6.47840
H          5.14670        1.19570       -4.72410
H          4.95370        0.58840       -2.33160
H          2.03170        2.09420        0.41920
H          3.11020        1.48160       -0.84080
H          2.89930        1.23210       -7.20400
H          1.92070       -0.20860       -7.18610
H          0.58880       -0.84000       -5.17760
H          0.11290       -0.20790       -2.80300
H         -0.65360        2.19310       -0.21150
H         -1.06860        1.42530       -1.75970
