41
rmsd37.gzmat
S          0.00000        0.00000        0.00000
C          1.84530        0.00000        0.00000
H          2.18010        0.00000        1.06320
C          2.35540       -1.27020       -0.68620
O          3.75280       -1.17110       -0.89120
C          4.55130       -1.49400        0.23210
C          4.52570       -2.96420        0.52610
C          4.38510       -3.87280       -0.52370
C          4.36890       -5.24020       -0.26230
C          4.50040       -5.70160        1.04690
C          4.64960       -4.79340        2.09370
C          4.65950       -3.42390        1.83590
C          2.32280        1.27490       -0.69570
C          1.15970        2.13440       -1.24280
H          1.36810        3.21860       -0.98140
N          1.06480        2.07510       -2.71630
C          0.89620        3.34500       -3.44140
O          0.91310        4.35110       -2.77470
N          0.73370        3.27630       -4.79810
C          0.73080        2.09240       -5.43460
N          0.55010        2.14120       -6.78930
C          0.89830        0.84390       -4.74790
C          1.05150        0.88730       -3.38280
C         -0.16940        1.71890       -0.59860
H          1.98690       -1.38790       -1.72500
H          2.10330       -2.18630       -0.12090
H          4.26090       -0.87720        1.10060
H          5.55980       -1.17370       -0.11190
H          4.28750       -3.50290       -1.54520
H          4.25650       -5.94850       -1.08050
H          4.48730       -6.77020        1.25140
H          4.75780       -5.15420        3.11460
H          4.77150       -2.71940        2.65700
H          2.91710        1.88820        0.01270
H          3.04740        1.03500       -1.50490
H          0.43110        3.02610       -7.24710
H          0.54360        1.31520       -7.34220
H          0.89850       -0.09130       -5.28600
H          1.17320       -0.03840       -2.79940
H         -0.42250        2.38640        0.24590
H         -1.01770        1.78760       -1.30470
