41
rmsd31.gzmat
S          0.00000        0.00000        0.00000
C          1.84630        0.00000        0.00000
H          2.19190        0.00000        1.06310
C          2.38020       -1.26220       -0.68070
O          3.75670       -1.28380       -0.30980
C          4.58970       -1.96750       -1.22810
C          4.74810       -1.18550       -2.49870
C          5.18580        0.13830       -2.43740
C          5.30470        0.88700       -3.60540
C          5.00480        0.30730       -4.83740
C          4.58540       -1.02010       -4.89970
C          4.45040       -1.76630       -3.73070
C          2.29610        1.27680       -0.70160
C          1.18610        1.88030       -1.59070
H          1.29790        3.00970       -1.58070
N          1.34260        1.47050       -3.00340
C          2.07040        2.39330       -3.88880
O          2.49250        3.40480       -3.38160
N          2.19470        2.03830       -5.20490
C          1.71690        0.86350       -5.64850
N          1.91210        0.60000       -6.97820
C          1.05300       -0.07520       -4.79200
C          0.89560        0.27250       -3.47090
C         -0.18690        1.51510       -1.01860
H          2.26600       -1.23670       -1.77780
H          1.92750       -2.19100       -0.28780
H          4.21250       -2.99210       -1.39320
H          5.54360       -2.02910       -0.66200
H          5.42880        0.58280       -1.47220
H          5.62080        1.92970       -3.55870
H          5.08570        0.89950       -5.74820
H          4.35850       -1.47390       -5.86120
H          4.11470       -2.79870       -3.78420
H          2.61440        2.03480        0.04310
H          3.21140        1.08820       -1.30600
H          2.34840        1.28770       -7.56390
H          1.52980       -0.21210       -7.40480
H          0.69940       -1.02150       -5.17150
H          0.39010       -0.41230       -2.77360
H         -0.56970        2.33190       -0.37820
H         -0.95130        1.35790       -1.79820
