41

S          0.11820       -0.19880       -0.16620
C          1.96800       -0.02930       -0.11020
H          2.25260       -0.10860        0.94850
C          2.62870       -1.17520       -0.88840
O          4.03630       -1.06600       -0.95520
C          4.73500       -1.15430        0.27310
C          4.47810       -2.43880        1.03040
C          4.60470       -3.67390        0.37580
C          4.36790       -4.86610        1.05980
C          4.00280       -4.84080        2.41090
C          3.87120       -3.61690        3.06960
C          4.10270       -2.42300        2.37850
C          2.29700        1.37290       -0.64170
C          1.22030        1.80990       -1.64820
H          1.27960        2.89820       -1.77890
N          1.45070        1.25570       -2.99340
C          2.45870        1.93300       -3.77620
O          3.02810        2.88540       -3.27220
N          2.69770        1.45410       -5.02830
C          2.05290        0.40640       -5.49810
N          2.35100       -0.00150       -6.75660
C          1.05620       -0.29940       -4.73970
C          0.79730        0.17610       -3.48880
C         -0.11980        1.41420       -1.03170
H          2.28900       -1.17770       -1.93160
H          2.32490       -2.13750       -0.43700
H          4.51870       -0.28890        0.92720
H          5.79900       -1.08590       -0.00450
H          4.88120       -3.68800       -0.68150
H          4.46950       -5.82190        0.53960
H          3.81820       -5.77500        2.94670
H          3.58070       -3.58890        4.12260
H          3.99020       -1.46490        2.89420
H          2.29150        2.09470        0.18930
H          3.29470        1.40350       -1.09930
H          3.08780        0.48620       -7.25010
H          1.94540       -0.83490       -7.15480
H          0.52940       -1.16990       -5.12900
H          0.08380       -0.31300       -2.82460
H         -0.41480        2.17550       -0.29600
H         -0.93040        1.32830       -1.76950
