rmsd106.gzmat
 OpenBabel08211713393D

 21 22  0  0  1  0  0  0  0  0999 V2000
    0.0000    0.0000    0.0000 S   0  0  0  0  0  0  0  0  0  0  0  0
    1.7751    0.0000    0.0000 C   0  0  0  0  0  0  0  0  0  0  0  0
    2.3306    0.0000    1.2286 N   0  0  0  0  0  0  0  0  0  0  0  0
    1.3730   -0.0027    2.2075 C   0  0  0  0  0  0  0  0  0  0  0  0
    0.0624   -0.0059    1.7510 C   0  0  2  0  0  0  0  0  0  0  0  0
   -1.0879   -0.0193    2.5788 N   0  0  0  0  0  0  0  0  0  0  0  0
   -2.1896   -0.0492    2.0515 O   0  0  0  0  0  0  0  0  0  0  0  0
   -0.9169   -0.0041    3.7897 O   0  0  0  0  0  0  0  0  0  0  0  0
    2.5860   -0.0070   -1.1116 N   0  0  0  0  0  0  0  0  0  0  0  0
    2.0654   -0.0167   -2.4264 C   0  0  0  0  0  0  0  0  0  0  0  0
    0.8644   -0.0158   -2.5766 O   0  0  0  0  0  0  0  0  0  0  0  0
    3.0587   -0.0459   -3.4874 C   0  0  0  0  0  0  0  0  0  0  0  0
    2.7326   -0.8525   -4.9865 S   0  0  0  0  0  0  0  0  0  0  0  0
    4.2662   -0.4321   -5.6343 C   0  0  0  0  0  0  0  0  0  0  0  0
    4.9962    0.3080   -4.7376 C   0  0  0  0  0  0  0  0  0  0  0  0
    4.3068    0.5351   -3.5119 C   0  0  0  0  0  0  0  0  0  0  0  0
    1.6914   -0.0028    3.2528 H   0  0  0  0  0  0  0  0  0  0  0  0
    3.5962   -0.0314   -0.9530 H   0  0  0  0  0  0  0  0  0  0  0  0
    4.5782   -0.7254   -6.6241 H   0  0  0  0  0  0  0  0  0  0  0  0
    5.9907    0.6889   -4.9214 H   0  0  0  0  0  0  0  0  0  0  0  0
    4.7377    1.1221   -2.7119 H   0  0  0  0  0  0  0  0  0  0  0  0
  1  2  1  0  0  0  0
  1  5  1  0  0  0  0
  2  3  2  0  0  0  0
  3  4  2  0  0  0  0
  4 17  1  0  0  0  0
  5  4  1  0  0  0  0
  5  6  1  6  0  0  0
  6  8  2  0  0  0  0
  7  6  2  0  0  0  0
  9 18  1  0  0  0  0
  9  2  1  0  0  0  0
 10  9  1  0  0  0  0
 11 10  2  0  0  0  0
 12 10  1  0  0  0  0
 13 12  1  0  0  0  0
 14 13  1  0  0  0  0
 14 15  2  0  0  0  0
 15 16  1  0  0  0  0
 16 12  2  0  0  0  0
 16 21  1  0  0  0  0
 19 14  1  0  0  0  0
 20 15  1  0  0  0  0
M  RAD  1   5   2
M  END
$$$$
