21
rmsd117.gzmat
S          0.00000        0.00000        0.00000
C          1.77520        0.00000        0.00000
N          2.33150        0.00000        1.22810
C          1.37420        0.00000        2.20730
C          0.06360        0.00110        1.75120
N         -1.08480        0.00310        2.58130
O         -2.18820       -0.02210        2.05710
O         -0.91080        0.03050        3.79140
N          2.58410        0.00180       -1.11340
C          2.05460       -0.01340       -2.42410
O          0.85150       -0.01210       -2.56230
C          3.03150       -0.01650       -3.49980
S          2.65720        0.70110       -5.03360
C          4.18490        0.27660       -5.69100
C          4.94790       -0.40230       -4.77320
C          4.29130       -0.57190       -3.52040
H          1.69060       -0.00300        3.25320
H          3.59450        0.02200       -0.95700
H          4.47150        0.52610       -6.70030
H          5.94370       -0.77890       -4.95960
H          4.75460       -1.10040       -2.69820
