rmsd117.gzmat
 OpenBabel08211713393D

 21 22  0  0  1  0  0  0  0  0999 V2000
    0.0000    0.0000    0.0000 S   0  0  0  0  0  0  0  0  0  0  0  0
    1.7752    0.0000    0.0000 C   0  0  0  0  0  0  0  0  0  0  0  0
    2.3315    0.0000    1.2281 N   0  0  0  0  0  0  0  0  0  0  0  0
    1.3742    0.0000    2.2073 C   0  0  0  0  0  0  0  0  0  0  0  0
    0.0636    0.0011    1.7512 C   0  0  1  0  0  0  0  0  0  0  0  0
   -1.0848    0.0031    2.5813 N   0  0  0  0  0  0  0  0  0  0  0  0
   -2.1882   -0.0221    2.0571 O   0  0  0  0  0  0  0  0  0  0  0  0
   -0.9108    0.0305    3.7914 O   0  0  0  0  0  0  0  0  0  0  0  0
    2.5841    0.0018   -1.1134 N   0  0  0  0  0  0  0  0  0  0  0  0
    2.0546   -0.0134   -2.4241 C   0  0  0  0  0  0  0  0  0  0  0  0
    0.8515   -0.0121   -2.5623 O   0  0  0  0  0  0  0  0  0  0  0  0
    3.0315   -0.0165   -3.4998 C   0  0  0  0  0  0  0  0  0  0  0  0
    2.6572    0.7011   -5.0336 S   0  0  0  0  0  0  0  0  0  0  0  0
    4.1849    0.2766   -5.6910 C   0  0  0  0  0  0  0  0  0  0  0  0
    4.9479   -0.4023   -4.7732 C   0  0  0  0  0  0  0  0  0  0  0  0
    4.2913   -0.5719   -3.5204 C   0  0  0  0  0  0  0  0  0  0  0  0
    1.6906   -0.0030    3.2532 H   0  0  0  0  0  0  0  0  0  0  0  0
    3.5945    0.0220   -0.9570 H   0  0  0  0  0  0  0  0  0  0  0  0
    4.4715    0.5261   -6.7003 H   0  0  0  0  0  0  0  0  0  0  0  0
    5.9437   -0.7789   -4.9596 H   0  0  0  0  0  0  0  0  0  0  0  0
    4.7546   -1.1004   -2.6982 H   0  0  0  0  0  0  0  0  0  0  0  0
  1  2  1  0  0  0  0
  1  5  1  0  0  0  0
  2  3  2  0  0  0  0
  3  4  2  0  0  0  0
  4 17  1  0  0  0  0
  5  4  1  0  0  0  0
  5  6  1  6  0  0  0
  6  8  2  0  0  0  0
  7  6  2  0  0  0  0
  9 18  1  0  0  0  0
  9  2  1  0  0  0  0
 10  9  1  0  0  0  0
 11 10  2  0  0  0  0
 12 10  1  0  0  0  0
 13 12  1  0  0  0  0
 14 13  1  0  0  0  0
 14 15  2  0  0  0  0
 15 16  1  0  0  0  0
 16 12  2  0  0  0  0
 16 21  1  0  0  0  0
 19 14  1  0  0  0  0
 20 15  1  0  0  0  0
M  RAD  1   5   2
M  END
$$$$
