21
rmsd120.gzmat
S          0.00000        0.00000        0.00000
C          1.77410        0.00000        0.00000
N          2.33020        0.00000        1.22880
C          1.37370       -0.00220        2.20800
C          0.06290       -0.00510        1.75110
N         -1.08620       -0.01010        2.58020
O         -2.18930       -0.01300        2.05490
O         -0.91180       -0.01180        3.79060
N          2.58770       -0.00990       -1.10830
C          2.08420       -0.01730       -2.43090
O          0.89010        0.03120       -2.60900
C          3.11150       -0.09260       -3.45920
S          3.06110        0.88940       -4.88380
C          4.50270        0.18770       -5.50830
C          4.99030       -0.77540       -4.66180
C          4.19620       -0.93840       -3.48910
H          1.69190       -0.00210        3.25370
H          3.59890       -0.00680       -0.94220
H          4.93550        0.49090       -6.44780
H          5.87960       -1.36350       -4.84010
H          4.43630       -1.66890       -2.72790
