rmsd101.gzmat
 OpenBabel08211713393D

 21 22  0  0  1  0  0  0  0  0999 V2000
    0.0000    0.0000    0.0000 S   0  0  0  0  0  0  0  0  0  0  0  0
    1.7748    0.0000    0.0000 C   0  0  0  0  0  0  0  0  0  0  0  0
    2.3317    0.0000    1.2282 N   0  0  0  0  0  0  0  0  0  0  0  0
    1.3745    0.0051    2.2072 C   0  0  0  0  0  0  0  0  0  0  0  0
    0.0637    0.0098    1.7505 C   0  0  1  0  0  0  0  0  0  0  0  0
   -1.0854    0.0309    2.5792 N   0  0  0  0  0  0  0  0  0  0  0  0
   -2.1881    0.0400    2.0531 O   0  0  0  0  0  0  0  0  0  0  0  0
   -0.9121    0.0441    3.7898 O   0  0  0  0  0  0  0  0  0  0  0  0
    2.5837    0.0103   -1.1125 N   0  0  0  0  0  0  0  0  0  0  0  0
    2.0595    0.0252   -2.4262 C   0  0  0  0  0  0  0  0  0  0  0  0
    0.8592    0.0179   -2.5760 O   0  0  0  0  0  0  0  0  0  0  0  0
    3.0559    0.0658   -3.4841 C   0  0  0  0  0  0  0  0  0  0  0  0
    2.7919    0.9772   -4.9336 S   0  0  0  0  0  0  0  0  0  0  0  0
    4.3085    0.5098   -5.5923 C   0  0  0  0  0  0  0  0  0  0  0  0
    4.9825   -0.3278   -4.7391 C   0  0  0  0  0  0  0  0  0  0  0  0
    4.2676   -0.5850   -3.5333 C   0  0  0  0  0  0  0  0  0  0  0  0
    1.6915    0.0069    3.2532 H   0  0  0  0  0  0  0  0  0  0  0  0
    3.5948    0.0292   -0.9553 H   0  0  0  0  0  0  0  0  0  0  0  0
    4.6520    0.8491   -6.5561 H   0  0  0  0  0  0  0  0  0  0  0  0
    5.9531   -0.7594   -4.9376 H   0  0  0  0  0  0  0  0  0  0  0  0
    4.6543   -1.2397   -2.7639 H   0  0  0  0  0  0  0  0  0  0  0  0
  1  2  1  0  0  0  0
  1  5  1  0  0  0  0
  2  3  2  0  0  0  0
  3  4  2  0  0  0  0
  4 17  1  0  0  0  0
  5  4  1  0  0  0  0
  5  6  1  6  0  0  0
  6  8  2  0  0  0  0
  7  6  2  0  0  0  0
  9 18  1  0  0  0  0
  9  2  1  0  0  0  0
 10  9  1  0  0  0  0
 11 10  2  0  0  0  0
 12 10  1  0  0  0  0
 13 12  1  0  0  0  0
 14 13  1  0  0  0  0
 14 15  2  0  0  0  0
 15 16  1  0  0  0  0
 16 12  2  0  0  0  0
 16 21  1  0  0  0  0
 19 14  1  0  0  0  0
 20 15  1  0  0  0  0
M  RAD  1   5   2
M  END
$$$$
