rmsd115.gzmat
 OpenBabel08211713393D

 21 22  0  0  1  0  0  0  0  0999 V2000
    0.0000    0.0000    0.0000 S   0  0  0  0  0  0  0  0  0  0  0  0
    1.7750    0.0000    0.0000 C   0  0  0  0  0  0  0  0  0  0  0  0
    2.3310    0.0000    1.2285 N   0  0  0  0  0  0  0  0  0  0  0  0
    1.3738    0.0009    2.2076 C   0  0  0  0  0  0  0  0  0  0  0  0
    0.0630    0.0005    1.7511 C   0  0  1  0  0  0  0  0  0  0  0  0
   -1.0863    0.0029    2.5804 N   0  0  0  0  0  0  0  0  0  0  0  0
   -2.1892    0.0037    2.0548 O   0  0  0  0  0  0  0  0  0  0  0  0
   -0.9127    0.0045    3.7909 O   0  0  0  0  0  0  0  0  0  0  0  0
    2.5850    0.0021   -1.1120 N   0  0  0  0  0  0  0  0  0  0  0  0
    2.0638    0.0309   -2.4263 C   0  0  0  0  0  0  0  0  0  0  0  0
    0.8638    0.0586   -2.5770 O   0  0  0  0  0  0  0  0  0  0  0  0
    3.0602    0.0370   -3.4853 C   0  0  0  0  0  0  0  0  0  0  0  0
    2.8247    0.9601   -4.9326 S   0  0  0  0  0  0  0  0  0  0  0  0
    4.3130    0.4266   -5.6052 C   0  0  0  0  0  0  0  0  0  0  0  0
    4.9572   -0.4387   -4.7570 C   0  0  0  0  0  0  0  0  0  0  0  0
    4.2438   -0.6630   -3.5436 C   0  0  0  0  0  0  0  0  0  0  0  0
    1.6915    0.0027    3.2534 H   0  0  0  0  0  0  0  0  0  0  0  0
    3.5959    0.0085   -0.9543 H   0  0  0  0  0  0  0  0  0  0  0  0
    4.6612    0.7498   -6.5729 H   0  0  0  0  0  0  0  0  0  0  0  0
    5.9048   -0.9143   -4.9660 H   0  0  0  0  0  0  0  0  0  0  0  0
    4.6109   -1.3305   -2.7755 H   0  0  0  0  0  0  0  0  0  0  0  0
  1  2  1  0  0  0  0
  1  5  1  0  0  0  0
  2  3  2  0  0  0  0
  3  4  2  0  0  0  0
  4 17  1  0  0  0  0
  5  4  1  0  0  0  0
  5  6  1  6  0  0  0
  6  8  2  0  0  0  0
  7  6  2  0  0  0  0
  9 18  1  0  0  0  0
  9  2  1  0  0  0  0
 10  9  1  0  0  0  0
 11 10  2  0  0  0  0
 12 10  1  0  0  0  0
 13 12  1  0  0  0  0
 14 13  1  0  0  0  0
 14 15  2  0  0  0  0
 15 16  1  0  0  0  0
 16 12  2  0  0  0  0
 16 21  1  0  0  0  0
 19 14  1  0  0  0  0
 20 15  1  0  0  0  0
M  RAD  1   5   2
M  END
$$$$
