21
rmsd115.gzmat
S          0.00000        0.00000        0.00000
C          1.77500        0.00000        0.00000
N          2.33100        0.00000        1.22850
C          1.37380        0.00090        2.20760
C          0.06300        0.00050        1.75110
N         -1.08630        0.00290        2.58040
O         -2.18920        0.00370        2.05480
O         -0.91270        0.00450        3.79090
N          2.58500        0.00210       -1.11200
C          2.06380        0.03090       -2.42630
O          0.86380        0.05860       -2.57700
C          3.06020        0.03700       -3.48530
S          2.82470        0.96010       -4.93260
C          4.31300        0.42660       -5.60520
C          4.95720       -0.43870       -4.75700
C          4.24380       -0.66300       -3.54360
H          1.69150        0.00270        3.25340
H          3.59590        0.00850       -0.95430
H          4.66120        0.74980       -6.57290
H          5.90480       -0.91430       -4.96600
H          4.61090       -1.33050       -2.77550
