rmsd107.gzmat
 OpenBabel08211713393D

 21 22  0  0  1  0  0  0  0  0999 V2000
    0.0000    0.0000    0.0000 S   0  0  0  0  0  0  0  0  0  0  0  0
    1.7750    0.0000    0.0000 C   0  0  0  0  0  0  0  0  0  0  0  0
    2.3309    0.0000    1.2278 N   0  0  0  0  0  0  0  0  0  0  0  0
    1.3736    0.0062    2.2074 C   0  0  0  0  0  0  0  0  0  0  0  0
    0.0630    0.0109    1.7513 C   0  0  1  0  0  0  0  0  0  0  0  0
   -1.0896    0.0316    2.5755 N   0  0  0  0  0  0  0  0  0  0  0  0
   -2.1896    0.0373    2.0433 O   0  0  0  0  0  0  0  0  0  0  0  0
   -0.9238    0.0464    3.7870 O   0  0  0  0  0  0  0  0  0  0  0  0
    2.5814    0.0080   -1.1153 N   0  0  0  0  0  0  0  0  0  0  0  0
    2.0476    0.0513   -2.4238 C   0  0  0  0  0  0  0  0  0  0  0  0
    0.8448    0.0652   -2.5600 O   0  0  0  0  0  0  0  0  0  0  0  0
    3.0251    0.0951   -3.4988 C   0  0  0  0  0  0  0  0  0  0  0  0
    2.7196    1.0211   -4.9326 S   0  0  0  0  0  0  0  0  0  0  0  0
    4.2085    0.5478   -5.6456 C   0  0  0  0  0  0  0  0  0  0  0  0
    4.9049   -0.3004   -4.8212 C   0  0  0  0  0  0  0  0  0  0  0  0
    4.2307   -0.5615   -3.5924 C   0  0  0  0  0  0  0  0  0  0  0  0
    1.6926    0.0098    3.2527 H   0  0  0  0  0  0  0  0  0  0  0  0
    3.5925    0.0202   -0.9632 H   0  0  0  0  0  0  0  0  0  0  0  0
    4.5195    0.8925   -6.6188 H   0  0  0  0  0  0  0  0  0  0  0  0
    5.8642   -0.7382   -5.0580 H   0  0  0  0  0  0  0  0  0  0  0  0
    4.6413   -1.2228   -2.8411 H   0  0  0  0  0  0  0  0  0  0  0  0
  1  2  1  0  0  0  0
  1  5  1  0  0  0  0
  2  3  2  0  0  0  0
  3  4  2  0  0  0  0
  4 17  1  0  0  0  0
  5  4  1  0  0  0  0
  5  6  1  6  0  0  0
  6  8  2  0  0  0  0
  7  6  2  0  0  0  0
  9 18  1  0  0  0  0
  9  2  1  0  0  0  0
 10  9  1  0  0  0  0
 11 10  2  0  0  0  0
 12 10  1  0  0  0  0
 13 12  1  0  0  0  0
 14 13  1  0  0  0  0
 14 15  2  0  0  0  0
 15 16  1  0  0  0  0
 16 12  2  0  0  0  0
 16 21  1  0  0  0  0
 19 14  1  0  0  0  0
 20 15  1  0  0  0  0
M  RAD  1   5   2
M  END
$$$$
