71

C          0.09160        0.05090       -0.14680
C          1.60210        0.03300       -0.35410
H          2.06600        0.15220        0.64310
C          2.12500       -1.24990       -0.95970
C          2.54840       -1.27860       -2.27340
C          3.02500       -2.47520       -2.86210
C          3.07290       -3.63890       -2.12950
C          2.64780       -3.65600       -0.77250
C          2.68640       -4.84810        0.00210
C          2.26910       -4.85750        1.31540
C          1.79400       -3.66510        1.91240
C          1.74370       -2.49270        1.18800
C          2.16660       -2.44500       -0.17020
O          2.02130        1.12500       -1.16330
C          1.44680        2.37720       -0.83510
H          0.41900        2.44870       -1.23140
C          2.28870        3.46530       -1.48920
C          1.65920        4.81570       -1.18470
O          0.47130        5.02350       -1.39650
N          2.48080        5.74350       -0.62320
C          1.90440        6.90580        0.01460
H          1.06280        7.23150       -0.61760
C          1.33920        6.58150        1.40360
C          2.41710        6.05420        2.31850
O          3.60010        6.08160        2.07390
O          1.92590        5.56610        3.47120
C          2.86780        8.08170        0.09520
O          2.69170        9.02900        0.82000
O          3.90310        7.98300       -0.75090
C          1.37760        2.61060        0.68810
O          2.15270        3.37130        1.24930
N          0.36160        1.96910        1.36140
C         -0.47460        1.02280        0.70670
C         -1.86380        1.04560        0.89810
C         -2.68900        0.12380        0.26080
C         -2.12240       -0.82520       -0.59350
Cl        -3.14630       -1.98470       -1.40170
C         -0.74490       -0.85650       -0.80280
C          0.12170        2.35590        2.75740
C          0.68030        1.39640        3.83330
C          0.44050        2.07990        5.18990
C         -0.05650        0.04810        3.80780
C          2.18640        1.17550        3.63120
H          2.51470       -0.35710       -2.85350
H          3.35380       -2.46570       -3.90380
H          3.43740       -4.56650       -2.57790
H          3.05510       -5.76330       -0.46830
H          2.30320       -5.78120        1.89750
H          1.46330       -3.67300        2.95370
H          1.36740       -1.59180        1.66970
H          3.32330        3.39710       -1.12860
H          2.27920        3.29750       -2.57650
H          3.37030        5.43080       -0.24950
H          0.53290        5.84060        1.31410
H          0.91200        7.48780        1.86000
H          2.68670        5.23090        3.97630
H          4.44130        8.78290       -0.61980
H         -2.31250        1.80080        1.54280
H         -3.76870        0.14560        0.41270
H         -0.31520       -1.60640       -1.46620
H         -0.96050        2.47290        2.90910
H          0.58290        3.34220        2.88730
H          0.96240        3.04860        5.24430
H          0.80610        1.44830        6.01460
H         -0.63240        2.26690        5.36070
H          0.32770       -0.61620        4.59840
H          0.06770       -0.46950        2.84640
H         -1.13810        0.17890        3.97170
H          2.39280        0.65510        2.68400
H          2.59730        0.55670        4.44450
H          2.72980        2.13070        3.60240
