rmsd178.gzmat
 OpenBabel08211713413D

 71 74  0  0  1  0  0  0  0  0999 V2000
    0.0000    0.0000    0.0000 C   0  0  0  0  0  0  0  0  0  0  0  0
    1.5055    0.0000    0.0000 C   0  0  1  0  0  0  0  0  0  0  0  0
    1.9033    0.0000    1.0549 H   0  0  0  0  0  0  0  0  0  0  0  0
    2.1061   -1.1490   -0.7657 C   0  0  0  0  0  0  0  0  0  0  0  0
    2.7091   -0.9367   -1.9798 C   0  0  0  0  0  0  0  0  0  0  0  0
    3.2830   -2.0169   -2.6945 C   0  0  0  0  0  0  0  0  0  0  0  0
    3.2297   -3.2874   -2.1862 C   0  0  0  0  0  0  0  0  0  0  0  0
    2.6001   -3.5352   -0.9344 C   0  0  0  0  0  0  0  0  0  0  0  0
    2.5224   -4.8550   -0.4097 C   0  0  0  0  0  0  0  0  0  0  0  0
    1.9073   -5.0911    0.7921 C   0  0  0  0  0  0  0  0  0  0  0  0
    1.3484   -4.0163    1.5264 C   0  0  0  0  0  0  0  0  0  0  0  0
    1.4158   -2.7360    1.0412 C   0  0  0  0  0  0  0  0  0  0  0  0
    2.0395   -2.4615   -0.2072 C   0  0  0  0  0  0  0  0  0  0  0  0
    2.0452    1.1773   -0.6053 O   0  0  0  0  0  0  0  0  0  0  0  0
    1.3604    2.3735   -0.3000 C   0  0  2  0  0  0  0  0  0  0  0  0
    0.4016    2.3923   -0.8780 H   0  0  0  0  0  0  0  0  0  0  0  0
    2.3023    3.4823   -0.7749 C   0  0  0  0  0  0  0  0  0  0  0  0
    1.5173    4.7712   -0.8786 C   0  0  0  0  0  0  0  0  0  0  0  0
    1.0164    5.1736   -1.9048 O   0  0  0  0  0  0  0  0  0  0  0  0
    1.3778    5.4646    0.3141 N   0  0  0  0  0  0  0  0  0  0  0  0
    0.4700    6.5939    0.4151 C   0  0  1  0  0  0  0  0  0  0  0  0
    0.0439    6.8489   -0.6071 H   0  0  0  0  0  0  0  0  0  0  0  0
   -0.6678    6.3156    1.4211 C   0  0  0  0  0  0  0  0  0  0  0  0
   -1.6330    5.3085    0.8779 C   0  0  0  0  0  0  0  0  0  0  0  0
   -1.9088    4.2231    1.3193 O   0  0  0  0  0  0  0  0  0  0  0  0
   -2.2339    5.7866   -0.2366 O   0  0  0  0  0  0  0  0  0  0  0  0
    1.2705    7.7951    0.9204 C   0  0  0  0  0  0  0  0  0  0  0  0
    1.4830    8.8335    0.3629 O   0  0  0  0  0  0  0  0  0  0  0  0
    1.7346    7.5464    2.1707 O   0  0  0  0  0  0  0  0  0  0  0  0
    1.0928    2.4854    1.2105 C   0  0  0  0  0  0  0  0  0  0  0  0
    1.7326    3.2153    1.9445 O   0  0  0  0  0  0  0  0  0  0  0  0
    0.0382    1.7450    1.7076 N   0  0  0  0  0  0  0  0  0  0  0  0
   -0.6940    0.8669    0.8700 C   0  0  0  0  0  0  0  0  0  0  0  0
   -2.0966    0.8804    0.8963 C   0  0  0  0  0  0  0  0  0  0  0  0
   -2.8138    0.0067    0.0884 C   0  0  0  0  0  0  0  0  0  0  0  0
   -2.1111   -0.8489   -0.7514 C   0  0  0  0  0  0  0  0  0  0  0  0
   -2.9834   -1.9372   -1.7375 Cl  0  0  0  0  0  0  0  0  0  0  0  0
   -0.7259   -0.8557   -0.8253 C   0  0  0  0  0  0  0  0  0  0  0  0
   -0.3725    1.9252    3.1082 C   0  0  0  0  0  0  0  0  0  0  0  0
    0.0373    0.7442    4.0351 C   0  0  0  0  0  0  0  0  0  0  0  0
   -0.2409    1.2031    5.4776 C   0  0  0  0  0  0  0  0  0  0  0  0
   -0.8014   -0.5033    3.7355 C   0  0  0  0  0  0  0  0  0  0  0  0
    1.5280    0.4281    3.8817 C   0  0  0  0  0  0  0  0  0  0  0  0
    2.7580    0.0639   -2.4168 H   0  0  0  0  0  0  0  0  0  0  0  0
    3.7627   -1.8160   -3.6508 H   0  0  0  0  0  0  0  0  0  0  0  0
    3.6635   -4.1260   -2.7281 H   0  0  0  0  0  0  0  0  0  0  0  0
    2.9582   -5.6712   -0.9828 H   0  0  0  0  0  0  0  0  0  0  0  0
    1.8403   -6.0988    1.1970 H   0  0  0  0  0  0  0  0  0  0  0  0
    0.8649   -4.2247    2.4794 H   0  0  0  0  0  0  0  0  0  0  0  0
    0.9814   -1.9175    1.6138 H   0  0  0  0  0  0  0  0  0  0  0  0
    3.1818    3.5708   -0.1018 H   0  0  0  0  0  0  0  0  0  0  0  0
    2.7193    3.2174   -1.7741 H   0  0  0  0  0  0  0  0  0  0  0  0
    1.7418    5.0773    1.1877 H   0  0  0  0  0  0  0  0  0  0  0  0
   -1.2064    7.2598    1.6595 H   0  0  0  0  0  0  0  0  0  0  0  0
   -0.2508    5.9521    2.3908 H   0  0  0  0  0  0  0  0  0  0  0  0
   -2.8457    5.1424   -0.6740 H   0  0  0  0  0  0  0  0  0  0  0  0
    2.3047    8.2659    2.5389 H   0  0  0  0  0  0  0  0  0  0  0  0
   -2.6221    1.5928    1.5360 H   0  0  0  0  0  0  0  0  0  0  0  0
   -3.9041    0.0050    0.1135 H   0  0  0  0  0  0  0  0  0  0  0  0
   -0.2076   -1.5303   -1.5150 H   0  0  0  0  0  0  0  0  0  0  0  0
   -1.4722    2.0866    3.1551 H   0  0  0  0  0  0  0  0  0  0  0  0
    0.0922    2.8679    3.4914 H   0  0  0  0  0  0  0  0  0  0  0  0
    0.3947    2.0499    5.7582 H   0  0  0  0  0  0  0  0  0  0  0  0
   -0.0403    0.3976    6.1924 H   0  0  0  0  0  0  0  0  0  0  0  0
   -1.2835    1.5063    5.6134 H   0  0  0  0  0  0  0  0  0  0  0  0
   -0.5201   -1.3343    4.3917 H   0  0  0  0  0  0  0  0  0  0  0  0
   -0.6688   -0.8467    2.7036 H   0  0  0  0  0  0  0  0  0  0  0  0
   -1.8701   -0.3163    3.8833 H   0  0  0  0  0  0  0  0  0  0  0  0
    1.7467   -0.0412    2.9165 H   0  0  0  0  0  0  0  0  0  0  0  0
    1.8754   -0.2559    4.6624 H   0  0  0  0  0  0  0  0  0  0  0  0
    2.1377    1.3397    3.9404 H   0  0  0  0  0  0  0  0  0  0  0  0
  1  2  1  0  0  0  0
  1 33  2  0  0  0  0
  2  3  1  1  0  0  0
  4 13  1  0  0  0  0
  4  2  1  0  0  0  0
  5  4  2  0  0  0  0
  6  7  2  0  0  0  0
  6  5  1  0  0  0  0
  7  8  1  0  0  0  0
  8  9  2  0  0  0  0
  8 13  1  0  0  0  0
  9 10  1  0  0  0  0
 10 48  1  0  0  0  0
 10 11  2  0  0  0  0
 11 49  1  0  0  0  0
 12 11  1  0  0  0  0
 12 50  1  0  0  0  0
 13 12  2  0  0  0  0
 14 15  1  0  0  0  0
 14  2  1  0  0  0  0
 15 16  1  6  0  0  0
 15 30  1  0  0  0  0
 17 15  1  0  0  0  0
 17 51  1  0  0  0  0
 18 17  1  0  0  0  0
 18 20  1  0  0  0  0
 19 18  2  0  0  0  0
 20 21  1  0  0  0  0
 20 53  1  0  0  0  0
 21 22  1  6  0  0  0
 21 27  1  0  0  0  0
 21 23  1  0  0  0  0
 23 54  1  0  0  0  0
 23 55  1  0  0  0  0
 24 25  2  0  0  0  0
 24 23  1  0  0  0  0
 26 24  1  0  0  0  0
 27 29  1  0  0  0  0
 28 27  2  0  0  0  0
 29 57  1  0  0  0  0
 30 32  1  0  0  0  0
 30 31  2  0  0  0  0
 32 39  1  0  0  0  0
 33 34  1  0  0  0  0
 33 32  1  0  0  0  0
 34 58  1  0  0  0  0
 35 59  1  0  0  0  0
 35 34  2  0  0  0  0
 36 35  1  0  0  0  0
 37 36  1  0  0  0  0
 38 36  2  0  0  0  0
 38  1  1  0  0  0  0
 39 61  1  0  0  0  0
 39 62  1  0  0  0  0
 39 40  1  0  0  0  0
 40 41  1  0  0  0  0
 41 65  1  0  0  0  0
 41 63  1  0  0  0  0
 41 64  1  0  0  0  0
 42 68  1  0  0  0  0
 42 40  1  0  0  0  0
 42 66  1  0  0  0  0
 43 71  1  0  0  0  0
 43 40  1  0  0  0  0
 43 70  1  0  0  0  0
 44  5  1  0  0  0  0
 45  6  1  0  0  0  0
 46  7  1  0  0  0  0
 47  9  1  0  0  0  0
 52 17  1  0  0  0  0
 56 26  1  0  0  0  0
 60 38  1  0  0  0  0
 67 42  1  0  0  0  0
 69 43  1  0  0  0  0
M  END
$$$$
