
     RDKit          3D

 71 74  0  0  0  0  0  0  0  0999 V2000
    0.0951   -0.0580   -0.0345 C   0  0  0  0  0  0  0  0  0  0  0  0
    1.6108   -0.0857   -0.0557 C   0  0  1  0  0  0  0  0  0  0  0  0
    1.9623   -0.1351    0.9871 H   0  0  0  0  0  0  0  0  0  0  0  0
    2.2532   -1.2371   -0.7929 C   0  0  0  0  0  0  0  0  0  0  0  0
    2.8744   -1.0241   -2.0082 C   0  0  0  0  0  0  0  0  0  0  0  0
    3.5388   -2.0772   -2.6821 C   0  0  0  0  0  0  0  0  0  0  0  0
    3.5808   -3.3386   -2.1329 C   0  0  0  0  0  0  0  0  0  0  0  0
    2.9588   -3.6023   -0.8803 C   0  0  0  0  0  0  0  0  0  0  0  0
    2.9988   -4.8949   -0.2866 C   0  0  0  0  0  0  0  0  0  0  0  0
    2.4044   -5.1351    0.9330 C   0  0  0  0  0  0  0  0  0  0  0  0
    1.7464   -4.0841    1.6171 C   0  0  0  0  0  0  0  0  0  0  0  0
    1.6895   -2.8211    1.0684 C   0  0  0  0  0  0  0  0  0  0  0  0
    2.2826   -2.5377   -0.1935 C   0  0  0  0  0  0  0  0  0  0  0  0
    2.1005    1.1187   -0.6292 O   0  0  0  0  0  0  0  0  0  0  0  0
    1.6307    2.3335   -0.0716 C   0  0  2  0  0  0  0  0  0  0  0  0
    0.6647    2.6045   -0.5391 H   0  0  0  0  0  0  0  0  0  0  0  0
    2.6771    3.4037   -0.4202 C   0  0  0  0  0  0  0  0  0  0  0  0
    4.0810    2.7974   -0.4371 C   0  0  0  0  0  0  0  0  0  0  0  0
    4.7086    2.6549   -1.4696 O   0  0  0  0  0  0  0  0  0  0  0  0
    4.5448    2.3916    0.7882 N   0  0  0  0  0  0  0  0  0  0  0  0
    5.6101    1.4165    0.8734 C   0  0  1  0  0  0  0  0  0  0  0  0
    6.2133    1.5098   -0.0369 H   0  0  0  0  0  0  0  0  0  0  0  0
    6.4734    1.6494    2.1201 C   0  0  0  0  0  0  0  0  0  0  0  0
    7.0635    3.0421    2.1394 C   0  0  0  0  0  0  0  0  0  0  0  0
    6.9295    3.8442    3.0272 O   0  0  0  0  0  0  0  0  0  0  0  0
    7.7806    3.2913    1.0263 O   0  0  0  0  0  0  0  0  0  0  0  0
    4.9995    0.0149    0.9322 C   0  0  0  0  0  0  0  0  0  0  0  0
    4.1305   -0.2995    1.7131 O   0  0  0  0  0  0  0  0  0  0  0  0
    5.5230   -0.8249    0.0361 O   0  0  0  0  0  0  0  0  0  0  0  0
    1.3631    2.2347    1.4477 C   0  0  0  0  0  0  0  0  0  0  0  0
    2.0831    2.7950    2.2654 O   0  0  0  0  0  0  0  0  0  0  0  0
    0.2324    1.5473    1.8235 N   0  0  0  0  0  0  0  0  0  0  0  0
   -0.5423    0.7970    0.8907 C   0  0  0  0  0  0  0  0  0  0  0  0
   -1.9420    0.8748    0.9015 C   0  0  0  0  0  0  0  0  0  0  0  0
   -2.7060    0.1131    0.0210 C   0  0  0  0  0  0  0  0  0  0  0  0
   -2.0653   -0.7291   -0.8917 C   0  0  0  0  0  0  0  0  0  0  0  0
   -3.0145   -1.6901   -1.9959 Cl  0  0  0  0  0  0  0  0  0  0  0  0
   -0.6734   -0.8074   -0.9274 C   0  0  0  0  0  0  0  0  0  0  0  0
   -0.1725    1.6160    3.2361 C   0  0  0  0  0  0  0  0  0  0  0  0
    0.1767    0.3916    4.1136 C   0  0  0  0  0  0  0  0  0  0  0  0
   -0.2530    0.7532    5.5459 C   0  0  0  0  0  0  0  0  0  0  0  0
   -0.5995   -0.8562    3.6623 C   0  0  0  0  0  0  0  0  0  0  0  0
    1.6868    0.1171    4.0893 C   0  0  0  0  0  0  0  0  0  0  0  0
    2.8830   -0.0184   -2.4265 H   0  0  0  0  0  0  0  0  0  0  0  0
    4.0281   -1.8748   -3.6372 H   0  0  0  0  0  0  0  0  0  0  0  0
    4.0956   -4.1546   -2.6464 H   0  0  0  0  0  0  0  0  0  0  0  0
    3.5129   -5.6982   -0.8206 H   0  0  0  0  0  0  0  0  0  0  0  0
    2.4422   -6.1328    1.3765 H   0  0  0  0  0  0  0  0  0  0  0  0
    1.2842   -4.2735    2.5886 H   0  0  0  0  0  0  0  0  0  0  0  0
    1.1858   -2.0281    1.6165 H   0  0  0  0  0  0  0  0  0  0  0  0
    2.4943    3.7780   -1.4343 H   0  0  0  0  0  0  0  0  0  0  0  0
    2.6069    4.2363    0.2938 H   0  0  0  0  0  0  0  0  0  0  0  0
    3.9007    2.4723    1.5766 H   0  0  0  0  0  0  0  0  0  0  0  0
    7.2962    0.9157    2.1340 H   0  0  0  0  0  0  0  0  0  0  0  0
    5.8765    1.5201    3.0330 H   0  0  0  0  0  0  0  0  0  0  0  0
    8.0980    4.2080    1.0927 H   0  0  0  0  0  0  0  0  0  0  0  0
    5.0352   -1.6676    0.0942 H   0  0  0  0  0  0  0  0  0  0  0  0
   -2.4459    1.5398    1.6029 H   0  0  0  0  0  0  0  0  0  0  0  0
   -3.7948    0.1739    0.0339 H   0  0  0  0  0  0  0  0  0  0  0  0
   -0.1809   -1.4670   -1.6421 H   0  0  0  0  0  0  0  0  0  0  0  0
   -1.2573    1.7899    3.2771 H   0  0  0  0  0  0  0  0  0  0  0  0
    0.3236    2.5020    3.6495 H   0  0  0  0  0  0  0  0  0  0  0  0
    0.2938    1.6355    5.9151 H   0  0  0  0  0  0  0  0  0  0  0  0
   -0.0467   -0.0821    6.2330 H   0  0  0  0  0  0  0  0  0  0  0  0
   -1.3321    0.9734    5.6004 H   0  0  0  0  0  0  0  0  0  0  0  0
   -0.3728   -1.7063    4.3251 H   0  0  0  0  0  0  0  0  0  0  0  0
   -0.3443   -1.1563    2.6373 H   0  0  0  0  0  0  0  0  0  0  0  0
   -1.6877   -0.6856    3.6913 H   0  0  0  0  0  0  0  0  0  0  0  0
    2.0548   -0.1456    3.0889 H   0  0  0  0  0  0  0  0  0  0  0  0
    1.9319   -0.7228    4.7587 H   0  0  0  0  0  0  0  0  0  0  0  0
    2.2558    0.9991    4.4170 H   0  0  0  0  0  0  0  0  0  0  0  0
  1  2  1  0
  1 33  2  0
  1 38  1  0
  2  3  1  1
  2  4  1  0
  2 14  1  0
  4  5  2  0
  4 13  1  0
  5  6  1  0
  5 44  1  0
  6  7  2  0
  6 45  1  0
  7  8  1  0
  7 46  1  0
  8  9  1  0
  8 13  2  0
  9 10  2  0
  9 47  1  0
 10 11  1  0
 10 48  1  0
 11 12  2  0
 11 49  1  0
 12 13  1  0
 12 50  1  0
 14 15  1  0
 15 16  1  6
 15 17  1  0
 15 30  1  0
 17 18  1  0
 17 51  1  0
 17 52  1  0
 18 19  2  0
 18 20  1  0
 20 21  1  0
 20 53  1  0
 21 22  1  6
 21 23  1  0
 21 27  1  0
 23 24  1  0
 23 54  1  0
 23 55  1  0
 24 25  2  0
 24 26  1  0
 26 56  1  0
 27 28  2  0
 27 29  1  0
 29 57  1  0
 30 31  2  0
 30 32  1  0
 32 33  1  0
 32 39  1  0
 33 34  1  0
 34 35  2  0
 34 58  1  0
 35 36  1  0
 35 59  1  0
 36 37  1  0
 36 38  2  0
 38 60  1  0
 40 39  1  0
 39 61  1  0
 39 62  1  0
 40 41  1  0
 40 42  1  0
 40 43  1  0
 41 63  1  0
 41 64  1  0
 41 65  1  0
 42 66  1  0
 42 67  1  0
 42 68  1  0
 43 69  1  0
 43 70  1  0
 43 71  1  0
M  END

