rmsd115.gzmat
 OpenBabel08211713413D

 71 74  0  0  1  0  0  0  0  0999 V2000
    0.0000    0.0000    0.0000 C   0  0  0  0  0  0  0  0  0  0  0  0
    1.5031    0.0000    0.0000 C   0  0  1  0  0  0  0  0  0  0  0  0
    1.8959    0.0000    1.0573 H   0  0  0  0  0  0  0  0  0  0  0  0
    2.1043   -1.1446   -0.7735 C   0  0  0  0  0  0  0  0  0  0  0  0
    2.5972   -0.9382   -2.0377 C   0  0  0  0  0  0  0  0  0  0  0  0
    3.1890   -2.0032   -2.7599 C   0  0  0  0  0  0  0  0  0  0  0  0
    3.2713   -3.2521   -2.2037 C   0  0  0  0  0  0  0  0  0  0  0  0
    2.7560   -3.4946   -0.8998 C   0  0  0  0  0  0  0  0  0  0  0  0
    2.8259   -4.7919   -0.3205 C   0  0  0  0  0  0  0  0  0  0  0  0
    2.3158   -5.0241    0.9303 C   0  0  0  0  0  0  0  0  0  0  0  0
    1.7124   -3.9691    1.6583 C   0  0  0  0  0  0  0  0  0  0  0  0
    1.6384   -2.7102    1.1210 C   0  0  0  0  0  0  0  0  0  0  0  0
    2.1631   -2.4379   -0.1729 C   0  0  0  0  0  0  0  0  0  0  0  0
    2.0540    1.1703   -0.5984 O   0  0  0  0  0  0  0  0  0  0  0  0
    1.3654    2.3811   -0.3634 C   0  0  2  0  0  0  0  0  0  0  0  0
    0.4249    2.3901   -0.9706 H   0  0  0  0  0  0  0  0  0  0  0  0
    2.3683    3.4314   -0.8575 C   0  0  0  0  0  0  0  0  0  0  0  0
    1.6537    4.7023   -1.2413 C   0  0  0  0  0  0  0  0  0  0  0  0
    1.4449    5.0479   -2.3854 O   0  0  0  0  0  0  0  0  0  0  0  0
    1.2576    5.5040   -0.1778 N   0  0  0  0  0  0  0  0  0  0  0  0
    0.3539    6.6117   -0.4563 C   0  0  1  0  0  0  0  0  0  0  0  0
    0.8125    7.2487   -1.2780 H   0  0  0  0  0  0  0  0  0  0  0  0
   -1.0441    6.1528   -0.9323 C   0  0  0  0  0  0  0  0  0  0  0  0
   -1.5856    5.0259   -0.1144 C   0  0  0  0  0  0  0  0  0  0  0  0
   -1.1230    3.9258    0.0504 O   0  0  0  0  0  0  0  0  0  0  0  0
   -2.7745    5.3647    0.4413 O   0  0  0  0  0  0  0  0  0  0  0  0
    0.1966    7.4848    0.7831 C   0  0  0  0  0  0  0  0  0  0  0  0
    0.1704    8.6837    0.8180 O   0  0  0  0  0  0  0  0  0  0  0  0
    0.0541    6.7310    1.8965 O   0  0  0  0  0  0  0  0  0  0  0  0
    1.0421    2.5695    1.1271 C   0  0  0  0  0  0  0  0  0  0  0  0
    1.6012    3.4005    1.8176 O   0  0  0  0  0  0  0  0  0  0  0  0
    0.0584    1.7646    1.6812 N   0  0  0  0  0  0  0  0  0  0  0  0
   -0.6852    0.8619    0.8817 C   0  0  0  0  0  0  0  0  0  0  0  0
   -2.0865    0.8363    0.9543 C   0  0  0  0  0  0  0  0  0  0  0  0
   -2.8077   -0.0361    0.1478 C   0  0  0  0  0  0  0  0  0  0  0  0
   -2.1128   -0.8610   -0.7275 C   0  0  0  0  0  0  0  0  0  0  0  0
   -2.9946   -1.9286   -1.7284 Cl  0  0  0  0  0  0  0  0  0  0  0  0
   -0.7287   -0.8551   -0.8223 C   0  0  0  0  0  0  0  0  0  0  0  0
   -0.3064    1.9507    3.0932 C   0  0  0  0  0  0  0  0  0  0  0  0
    0.2562    0.8330    4.0216 C   0  0  0  0  0  0  0  0  0  0  0  0
   -0.0310    1.2773    5.4666 C   0  0  0  0  0  0  0  0  0  0  0  0
   -0.4500   -0.5013    3.7555 C   0  0  0  0  0  0  0  0  0  0  0  0
    1.7673    0.6815    3.8260 C   0  0  0  0  0  0  0  0  0  0  0  0
    2.5450    0.0484   -2.5058 H   0  0  0  0  0  0  0  0  0  0  0  0
    3.5753   -1.8086   -3.7590 H   0  0  0  0  0  0  0  0  0  0  0  0
    3.7273   -4.0771   -2.7483 H   0  0  0  0  0  0  0  0  0  0  0  0
    3.2907   -5.5942   -0.8908 H   0  0  0  0  0  0  0  0  0  0  0  0
    2.3645   -6.0140    1.3790 H   0  0  0  0  0  0  0  0  0  0  0  0
    1.3095   -4.1768    2.6483 H   0  0  0  0  0  0  0  0  0  0  0  0
    1.1663   -1.9063    1.6848 H   0  0  0  0  0  0  0  0  0  0  0  0
    3.1543    3.6165   -0.0918 H   0  0  0  0  0  0  0  0  0  0  0  0
    2.9116    3.0302   -1.7465 H   0  0  0  0  0  0  0  0  0  0  0  0
    1.2712    5.1282    0.7741 H   0  0  0  0  0  0  0  0  0  0  0  0
   -0.9540    5.8031   -1.9948 H   0  0  0  0  0  0  0  0  0  0  0  0
   -1.7484    7.0136   -0.9584 H   0  0  0  0  0  0  0  0  0  0  0  0
   -3.1690    4.6462    0.9965 H   0  0  0  0  0  0  0  0  0  0  0  0
   -0.0233    7.2572    2.7325 H   0  0  0  0  0  0  0  0  0  0  0  0
   -2.6111    1.5121    1.6266 H   0  0  0  0  0  0  0  0  0  0  0  0
   -3.8965   -0.0606    0.2004 H   0  0  0  0  0  0  0  0  0  0  0  0
   -0.2135   -1.5174   -1.5261 H   0  0  0  0  0  0  0  0  0  0  0  0
   -1.4103    2.0043    3.1978 H   0  0  0  0  0  0  0  0  0  0  0  0
    0.0903    2.9396    3.4353 H   0  0  0  0  0  0  0  0  0  0  0  0
    0.4773    2.2182    5.7062 H   0  0  0  0  0  0  0  0  0  0  0  0
    0.3218    0.5282    6.1839 H   0  0  0  0  0  0  0  0  0  0  0  0
   -1.1013    1.4193    5.6441 H   0  0  0  0  0  0  0  0  0  0  0  0
   -0.0778   -1.2846    4.4250 H   0  0  0  0  0  0  0  0  0  0  0  0
   -0.2911   -0.8475    2.7279 H   0  0  0  0  0  0  0  0  0  0  0  0
   -1.5313   -0.4258    3.9088 H   0  0  0  0  0  0  0  0  0  0  0  0
    2.0091    0.2412    2.8515 H   0  0  0  0  0  0  0  0  0  0  0  0
    2.2103    0.0392    4.5937 H   0  0  0  0  0  0  0  0  0  0  0  0
    2.2746    1.6551    3.8678 H   0  0  0  0  0  0  0  0  0  0  0  0
  1  2  1  0  0  0  0
  1 33  2  0  0  0  0
  2  3  1  1  0  0  0
  4 13  1  0  0  0  0
  4  2  1  0  0  0  0
  5  4  2  0  0  0  0
  6  7  2  0  0  0  0
  6  5  1  0  0  0  0
  7  8  1  0  0  0  0
  8  9  2  0  0  0  0
  8 13  1  0  0  0  0
  9 10  1  0  0  0  0
 10 48  1  0  0  0  0
 10 11  2  0  0  0  0
 11 49  1  0  0  0  0
 12 11  1  0  0  0  0
 12 50  1  0  0  0  0
 13 12  2  0  0  0  0
 14 15  1  0  0  0  0
 14  2  1  0  0  0  0
 15 16  1  6  0  0  0
 15 30  1  0  0  0  0
 17 15  1  0  0  0  0
 17 51  1  0  0  0  0
 18 17  1  0  0  0  0
 18 20  1  0  0  0  0
 19 18  2  0  0  0  0
 20 53  1  0  0  0  0
 21 22  1  6  0  0  0
 21 20  1  0  0  0  0
 21 27  1  0  0  0  0
 23 21  1  0  0  0  0
 23 24  1  0  0  0  0
 24 25  2  0  0  0  0
 24 26  1  0  0  0  0
 26 56  1  0  0  0  0
 27 28  2  0  0  0  0
 27 29  1  0  0  0  0
 29 57  1  0  0  0  0
 30 32  1  0  0  0  0
 30 31  2  0  0  0  0
 32 39  1  0  0  0  0
 33 34  1  0  0  0  0
 33 32  1  0  0  0  0
 34 58  1  0  0  0  0
 35 59  1  0  0  0  0
 35 34  2  0  0  0  0
 36 35  1  0  0  0  0
 37 36  1  0  0  0  0
 38 36  2  0  0  0  0
 38  1  1  0  0  0  0
 39 61  1  0  0  0  0
 39 62  1  0  0  0  0
 39 40  1  0  0  0  0
 40 41  1  0  0  0  0
 41 65  1  0  0  0  0
 41 63  1  0  0  0  0
 41 64  1  0  0  0  0
 42 68  1  0  0  0  0
 42 40  1  0  0  0  0
 42 66  1  0  0  0  0
 43 71  1  0  0  0  0
 43 40  1  0  0  0  0
 43 70  1  0  0  0  0
 44  5  1  0  0  0  0
 45  6  1  0  0  0  0
 46  7  1  0  0  0  0
 47  9  1  0  0  0  0
 52 17  1  0  0  0  0
 54 23  1  0  0  0  0
 55 23  1  0  0  0  0
 60 38  1  0  0  0  0
 67 42  1  0  0  0  0
 69 43  1  0  0  0  0
M  END
$$$$
