71

C          0.13990       -0.05940       -0.01650
C          1.65640        0.02710       -0.12690
H          2.04960        0.08070        0.90120
C          2.28600       -1.14790       -0.83960
C          2.44640       -1.09550       -2.21120
C          3.01460       -2.16890       -2.93560
C          3.40820       -3.30790       -2.26930
C          3.24020       -3.42100       -0.86170
C          3.62230       -4.60060       -0.16500
C          3.44190       -4.71370        1.19620
C          2.86870       -3.64240        1.92320
C          2.49240       -2.48230        1.28010
C          2.66670       -2.32760       -0.12490
O          2.07230        1.21710       -0.80340
C          1.33910        2.41130       -0.54990
H          0.34730        2.34180       -1.03250
C          2.11500        3.58180       -1.14290
C          2.31660        3.52280       -2.65410
O          1.89740        4.38830       -3.40050
N          3.04770        2.44790       -3.09150
C          3.27330        2.20120       -4.49690
H          2.88080        3.08100       -5.02990
C          4.75010        2.01160       -4.82810
C          4.98960        1.99830       -6.32030
O          4.23260        2.44600       -7.14540
O          6.17980        1.45750       -6.63470
C          2.46550        0.99660       -4.97770
O          2.93270        0.01440       -5.50320
O          1.15520        1.13290       -4.71900
C          1.14990        2.61760        0.96720
O          1.79220        3.44570        1.58630
N          0.20230        1.81130        1.57310
C         -0.53210        0.83730        0.84220
C         -1.92580        0.75600        0.96960
C         -2.65500       -0.20070        0.26830
C         -1.98380       -1.08060       -0.58330
Cl        -2.88210       -2.28540       -1.47020
C         -0.59880       -1.00760       -0.73010
C         -0.08100        2.04310        2.99460
C          0.58750        1.05820        3.98240
C          0.22400        1.54260        5.39590
C          0.05300       -0.36950        3.78560
C          2.11410        1.07650        3.81580
H          2.10540       -0.20540       -2.73500
H          3.13440       -2.07250       -4.01660
H          3.85040       -4.14610       -2.81350
H          4.06110       -5.42310       -0.73560
H          3.73750       -5.62730        1.71680
H          2.72300       -3.73550        3.00190
H          2.04960       -1.67710        1.86470
H          1.57320        4.51130       -0.93260
H          3.08740        3.64220       -0.63080
H          3.23030        1.71030       -2.41660
H          5.15090        1.08660       -4.38910
H          5.32220        2.85170       -4.40240
H          6.26270        1.51020       -7.60270
H          0.71320        0.32990       -5.04400
H         -2.45300        1.45640        1.61750
H         -3.73920       -0.26010        0.37050
H         -0.08970       -1.70790       -1.39060
H         -1.16940        2.01790        3.14710
H          0.26530        3.06040        3.21380
H          0.60480        2.56010        5.57860
H          0.65940        0.87770        6.15800
H         -0.86790        1.55590        5.54730
H          0.49880       -1.05160        4.52710
H          0.28620       -0.76520        2.78730
H         -1.04150       -0.40920        3.90560
H          2.41640        0.71950        2.82010
H          2.58970        0.41960        4.56100
H          2.51780        2.09250        3.93210
