rmsd150.gzmat
 OpenBabel08211713413D

 71 74  0  0  1  0  0  0  0  0999 V2000
    0.0000    0.0000    0.0000 C   0  0  0  0  0  0  0  0  0  0  0  0
    1.5014    0.0000    0.0000 C   0  0  1  0  0  0  0  0  0  0  0  0
    1.9079    0.0000    1.0517 H   0  0  0  0  0  0  0  0  0  0  0  0
    2.1388   -1.1110   -0.7910 C   0  0  0  0  0  0  0  0  0  0  0  0
    2.4792   -0.8961   -2.1041 C   0  0  0  0  0  0  0  0  0  0  0  0
    3.1393   -1.9036   -2.8487 C   0  0  0  0  0  0  0  0  0  0  0  0
    3.4420   -3.1050   -2.2649 C   0  0  0  0  0  0  0  0  0  0  0  0
    3.0935   -3.3546   -0.9085 C   0  0  0  0  0  0  0  0  0  0  0  0
    3.4050   -4.6007   -0.2978 C   0  0  0  0  0  0  0  0  0  0  0  0
    3.0633   -4.8416    1.0071 C   0  0  0  0  0  0  0  0  0  0  0  0
    2.3964   -3.8456    1.7615 C   0  0  0  0  0  0  0  0  0  0  0  0
    2.0895   -2.6360    1.1938 C   0  0  0  0  0  0  0  0  0  0  0  0
    2.4310   -2.3560   -0.1586 C   0  0  0  0  0  0  0  0  0  0  0  0
    1.9747    1.1818   -0.6430 O   0  0  0  0  0  0  0  0  0  0  0  0
    1.5477    2.4123   -0.0961 C   0  0  2  0  0  0  0  0  0  0  0  0
    0.6443    2.7305   -0.6716 H   0  0  0  0  0  0  0  0  0  0  0  0
    2.7334    3.3532   -0.3530 C   0  0  0  0  0  0  0  0  0  0  0  0
    4.0412    2.5799   -0.3380 C   0  0  0  0  0  0  0  0  0  0  0  0
    4.7518    2.4478   -1.3077 O   0  0  0  0  0  0  0  0  0  0  0  0
    4.3944    2.0503    0.8969 N   0  0  0  0  0  0  0  0  0  0  0  0
    5.4904    1.1034    1.0038 C   0  0  1  0  0  0  0  0  0  0  0  0
    6.1140    1.1175    0.0545 H   0  0  0  0  0  0  0  0  0  0  0  0
    6.3684    1.4085    2.2310 C   0  0  0  0  0  0  0  0  0  0  0  0
    7.1433    2.6728    2.0118 C   0  0  0  0  0  0  0  0  0  0  0  0
    7.1189    3.6880    2.6524 O   0  0  0  0  0  0  0  0  0  0  0  0
    7.9719    2.5311    0.9462 O   0  0  0  0  0  0  0  0  0  0  0  0
    4.8779   -0.2865    1.2073 C   0  0  0  0  0  0  0  0  0  0  0  0
    3.9809   -0.5769    1.9558 O   0  0  0  0  0  0  0  0  0  0  0  0
    5.4738   -1.1961    0.4159 O   0  0  0  0  0  0  0  0  0  0  0  0
    1.2077    2.3363    1.3997 C   0  0  0  0  0  0  0  0  0  0  0  0
    1.8880    2.8896    2.2414 O   0  0  0  0  0  0  0  0  0  0  0  0
    0.0222    1.7157    1.7642 N   0  0  0  0  0  0  0  0  0  0  0  0
   -0.6873    0.8616    0.8789 C   0  0  0  0  0  0  0  0  0  0  0  0
   -2.0908    0.8934    0.8829 C   0  0  0  0  0  0  0  0  0  0  0  0
   -2.8089    0.0674    0.0258 C   0  0  0  0  0  0  0  0  0  0  0  0
   -2.1088   -0.7766   -0.8267 C   0  0  0  0  0  0  0  0  0  0  0  0
   -2.9848   -1.7971   -1.8791 Cl  0  0  0  0  0  0  0  0  0  0  0  0
   -0.7223   -0.8208   -0.8611 C   0  0  0  0  0  0  0  0  0  0  0  0
   -0.3607    1.7199    3.1888 C   0  0  0  0  0  0  0  0  0  0  0  0
    0.1318    0.4937    4.0136 C   0  0  0  0  0  0  0  0  0  0  0  0
   -0.3068    0.7472    5.4685 C   0  0  0  0  0  0  0  0  0  0  0  0
   -0.5137   -0.8047    3.5186 C   0  0  0  0  0  0  0  0  0  0  0  0
    1.6555    0.3812    3.9621 C   0  0  0  0  0  0  0  0  0  0  0  0
    2.2641    0.0596   -2.5914 H   0  0  0  0  0  0  0  0  0  0  0  0
    3.4062   -1.6987   -3.8847 H   0  0  0  0  0  0  0  0  0  0  0  0
    3.9516   -3.8867   -2.8258 H   0  0  0  0  0  0  0  0  0  0  0  0
    3.9137   -5.3597   -0.8894 H   0  0  0  0  0  0  0  0  0  0  0  0
    3.2950   -5.7947    1.4788 H   0  0  0  0  0  0  0  0  0  0  0  0
    2.1350   -4.0543    2.7978 H   0  0  0  0  0  0  0  0  0  0  0  0
    1.5886   -1.8709    1.7886 H   0  0  0  0  0  0  0  0  0  0  0  0
    2.6285    3.8361   -1.3488 H   0  0  0  0  0  0  0  0  0  0  0  0
    2.7588    4.1789    0.3906 H   0  0  0  0  0  0  0  0  0  0  0  0
    3.7681    2.1434    1.6931 H   0  0  0  0  0  0  0  0  0  0  0  0
    7.0725    0.5658    2.4159 H   0  0  0  0  0  0  0  0  0  0  0  0
    5.7477    1.5065    3.1516 H   0  0  0  0  0  0  0  0  0  0  0  0
    8.4706    3.3525    0.7151 H   0  0  0  0  0  0  0  0  0  0  0  0
    5.0306   -2.0895    0.4258 H   0  0  0  0  0  0  0  0  0  0  0  0
   -2.6216    1.5714    1.5503 H   0  0  0  0  0  0  0  0  0  0  0  0
   -3.8994    0.0908    0.0269 H   0  0  0  0  0  0  0  0  0  0  0  0
   -0.1988   -1.4910   -1.5517 H   0  0  0  0  0  0  0  0  0  0  0  0
   -1.4673    1.7930    3.2603 H   0  0  0  0  0  0  0  0  0  0  0  0
    0.0522    2.6511    3.6513 H   0  0  0  0  0  0  0  0  0  0  0  0
    0.1471    1.6585    5.8733 H   0  0  0  0  0  0  0  0  0  0  0  0
    0.0023   -0.0802    6.1176 H   0  0  0  0  0  0  0  0  0  0  0  0
   -1.3929    0.8420    5.5578 H   0  0  0  0  0  0  0  0  0  0  0  0
   -0.2087   -1.6555    4.1391 H   0  0  0  0  0  0  0  0  0  0  0  0
   -0.2230   -1.0404    2.4892 H   0  0  0  0  0  0  0  0  0  0  0  0
   -1.6065   -0.7538    3.5474 H   0  0  0  0  0  0  0  0  0  0  0  0
    2.0200    0.1319    2.9583 H   0  0  0  0  0  0  0  0  0  0  0  0
    2.0266   -0.3997    4.6341 H   0  0  0  0  0  0  0  0  0  0  0  0
    2.1408    1.3236    4.2468 H   0  0  0  0  0  0  0  0  0  0  0  0
  1  2  1  0  0  0  0
  1 33  2  0  0  0  0
  2  3  1  1  0  0  0
  4 13  1  0  0  0  0
  4  2  1  0  0  0  0
  5  4  2  0  0  0  0
  6  7  2  0  0  0  0
  6  5  1  0  0  0  0
  7  8  1  0  0  0  0
  8  9  2  0  0  0  0
  8 13  1  0  0  0  0
  9 10  1  0  0  0  0
 10 48  1  0  0  0  0
 10 11  2  0  0  0  0
 11 49  1  0  0  0  0
 12 11  1  0  0  0  0
 12 50  1  0  0  0  0
 13 12  2  0  0  0  0
 14 15  1  0  0  0  0
 14  2  1  0  0  0  0
 15 16  1  6  0  0  0
 15 30  1  0  0  0  0
 17 18  1  0  0  0  0
 17 15  1  0  0  0  0
 17 52  1  0  0  0  0
 18 20  1  0  0  0  0
 19 18  2  0  0  0  0
 20 21  1  0  0  0  0
 20 53  1  0  0  0  0
 21 22  1  6  0  0  0
 21 27  1  0  0  0  0
 21 23  1  0  0  0  0
 23 54  1  0  0  0  0
 23 55  1  0  0  0  0
 24 23  1  0  0  0  0
 24 25  2  0  0  0  0
 26 24  1  0  0  0  0
 27 28  2  0  0  0  0
 29 57  1  0  0  0  0
 29 27  1  0  0  0  0
 30 32  1  0  0  0  0
 30 31  2  0  0  0  0
 32 39  1  0  0  0  0
 33 34  1  0  0  0  0
 33 32  1  0  0  0  0
 34 58  1  0  0  0  0
 35 59  1  0  0  0  0
 35 34  2  0  0  0  0
 36 35  1  0  0  0  0
 37 36  1  0  0  0  0
 38 36  2  0  0  0  0
 38  1  1  0  0  0  0
 39 61  1  0  0  0  0
 39 62  1  0  0  0  0
 39 40  1  0  0  0  0
 40 41  1  0  0  0  0
 41 65  1  0  0  0  0
 41 63  1  0  0  0  0
 41 64  1  0  0  0  0
 42 68  1  0  0  0  0
 42 40  1  0  0  0  0
 42 66  1  0  0  0  0
 43 40  1  0  0  0  0
 43 71  1  0  0  0  0
 43 70  1  0  0  0  0
 44  5  1  0  0  0  0
 45  6  1  0  0  0  0
 46  7  1  0  0  0  0
 47  9  1  0  0  0  0
 51 17  1  0  0  0  0
 56 26  1  0  0  0  0
 60 38  1  0  0  0  0
 67 42  1  0  0  0  0
 69 43  1  0  0  0  0
M  END
$$$$
