71
rmsd178.gzmat
C          0.00000        0.00000        0.00000
C          1.50550        0.00000        0.00000
H          1.90330        0.00000        1.05490
C          2.10610       -1.14900       -0.76570
C          2.70910       -0.93670       -1.97980
C          3.28300       -2.01690       -2.69450
C          3.22970       -3.28740       -2.18620
C          2.60010       -3.53520       -0.93440
C          2.52240       -4.85500       -0.40970
C          1.90730       -5.09110        0.79210
C          1.34840       -4.01630        1.52640
C          1.41580       -2.73600        1.04120
C          2.03950       -2.46150       -0.20720
O          2.04520        1.17730       -0.60530
C          1.36040        2.37350       -0.30000
H          0.40160        2.39230       -0.87800
C          2.30230        3.48230       -0.77490
C          1.51730        4.77120       -0.87860
O          1.01640        5.17360       -1.90480
N          1.37780        5.46460        0.31410
C          0.47000        6.59390        0.41510
H          0.04390        6.84890       -0.60710
C         -0.66780        6.31560        1.42110
C         -1.63300        5.30850        0.87790
O         -1.90880        4.22310        1.31930
O         -2.23390        5.78660       -0.23660
C          1.27050        7.79510        0.92040
O          1.48300        8.83350        0.36290
O          1.73460        7.54640        2.17070
C          1.09280        2.48540        1.21050
O          1.73260        3.21530        1.94450
N          0.03820        1.74500        1.70760
C         -0.69400        0.86690        0.87000
C         -2.09660        0.88040        0.89630
C         -2.81380        0.00670        0.08840
C         -2.11110       -0.84890       -0.75140
Cl        -2.98340       -1.93720       -1.73750
C         -0.72590       -0.85570       -0.82530
C         -0.37250        1.92520        3.10820
C          0.03730        0.74420        4.03510
C         -0.24090        1.20310        5.47760
C         -0.80140       -0.50330        3.73550
C          1.52800        0.42810        3.88170
H          2.75800        0.06390       -2.41680
H          3.76270       -1.81600       -3.65080
H          3.66350       -4.12600       -2.72810
H          2.95820       -5.67120       -0.98280
H          1.84030       -6.09880        1.19700
H          0.86490       -4.22470        2.47940
H          0.98140       -1.91750        1.61380
H          3.18180        3.57080       -0.10180
H          2.71930        3.21740       -1.77410
H          1.74180        5.07730        1.18770
H         -1.20640        7.25980        1.65950
H         -0.25080        5.95210        2.39080
H         -2.84570        5.14240       -0.67400
H          2.30470        8.26590        2.53890
H         -2.62210        1.59280        1.53600
H         -3.90410        0.00500        0.11350
H         -0.20760       -1.53030       -1.51500
H         -1.47220        2.08660        3.15510
H          0.09220        2.86790        3.49140
H          0.39470        2.04990        5.75820
H         -0.04030        0.39760        6.19240
H         -1.28350        1.50630        5.61340
H         -0.52010       -1.33430        4.39170
H         -0.66880       -0.84670        2.70360
H         -1.87010       -0.31630        3.88330
H          1.74670       -0.04120        2.91650
H          1.87540       -0.25590        4.66240
H          2.13770        1.33970        3.94040
