
     RDKit          3D

 71 74  0  0  0  0  0  0  0  0999 V2000
    0.1113    0.0637   -0.1284 C   0  0  0  0  0  0  0  0  0  0  0  0
    1.6355    0.0196   -0.1517 C   0  0  1  0  0  0  0  0  0  0  0  0
    1.9741    0.0076    0.9006 H   0  0  0  0  0  0  0  0  0  0  0  0
    2.2054   -1.2003   -0.8399 C   0  0  0  0  0  0  0  0  0  0  0  0
    2.7777   -1.0905   -2.0914 C   0  0  0  0  0  0  0  0  0  0  0  0
    3.3010   -2.2248   -2.7583 C   0  0  0  0  0  0  0  0  0  0  0  0
    3.2457   -3.4656   -2.1662 C   0  0  0  0  0  0  0  0  0  0  0  0
    2.6649   -3.6261   -0.8780 C   0  0  0  0  0  0  0  0  0  0  0  0
    2.5943   -4.8999   -0.2498 C   0  0  0  0  0  0  0  0  0  0  0  0
    2.0255   -5.0485    0.9965 C   0  0  0  0  0  0  0  0  0  0  0  0
    1.5014   -3.9196    1.6709 C   0  0  0  0  0  0  0  0  0  0  0  0
    1.5547   -2.6706    1.0888 C   0  0  0  0  0  0  0  0  0  0  0  0
    2.1354   -2.4788   -0.1965 C   0  0  0  0  0  0  0  0  0  0  0  0
    2.1746    1.1846   -0.7686 O   0  0  0  0  0  0  0  0  0  0  0  0
    1.5597    2.4079   -0.4082 C   0  0  2  0  0  0  0  0  0  0  0  0
    0.5820    2.5031   -0.9144 H   0  0  0  0  0  0  0  0  0  0  0  0
    2.4605    3.5382   -0.8939 C   0  0  0  0  0  0  0  0  0  0  0  0
    1.7181    4.8632   -0.7753 C   0  0  0  0  0  0  0  0  0  0  0  0
    0.8618    5.1951   -1.5780 O   0  0  0  0  0  0  0  0  0  0  0  0
    2.0372    5.6029    0.3317 N   0  0  0  0  0  0  0  0  0  0  0  0
    1.1506    6.6770    0.7524 C   0  0  1  0  0  0  0  0  0  0  0  0
    0.7707    7.1606   -0.1544 H   0  0  0  0  0  0  0  0  0  0  0  0
   -0.0082    6.0995    1.5780 C   0  0  0  0  0  0  0  0  0  0  0  0
   -1.0086    7.0836    2.1375 C   0  0  0  0  0  0  0  0  0  0  0  0
   -1.8847    6.8021    2.9144 O   0  0  0  0  0  0  0  0  0  0  0  0
   -0.8243    8.3326    1.6631 O   0  0  0  0  0  0  0  0  0  0  0  0
    1.9861    7.7149    1.4933 C   0  0  0  0  0  0  0  0  0  0  0  0
    2.4688    8.7005    1.0071 O   0  0  0  0  0  0  0  0  0  0  0  0
    2.1707    7.3629    2.7862 O   0  0  0  0  0  0  0  0  0  0  0  0
    1.3239    2.4959    1.1161 C   0  0  0  0  0  0  0  0  0  0  0  0
    2.0431    3.1683    1.8451 O   0  0  0  0  0  0  0  0  0  0  0  0
    0.2326    1.8093    1.5952 N   0  0  0  0  0  0  0  0  0  0  0  0
   -0.5366    0.9620    0.7465 C   0  0  0  0  0  0  0  0  0  0  0  0
   -1.9370    1.0154    0.7715 C   0  0  0  0  0  0  0  0  0  0  0  0
   -2.6970    0.1905   -0.0528 C   0  0  0  0  0  0  0  0  0  0  0  0
   -2.0494   -0.6876   -0.9255 C   0  0  0  0  0  0  0  0  0  0  0  0
   -2.9899   -1.7248   -1.9659 Cl  0  0  0  0  0  0  0  0  0  0  0  0
   -0.6571   -0.7446   -0.9705 C   0  0  0  0  0  0  0  0  0  0  0  0
   -0.1528    2.0158    2.9976 C   0  0  0  0  0  0  0  0  0  0  0  0
    0.2365    0.8918    3.9855 C   0  0  0  0  0  0  0  0  0  0  0  0
   -0.1301    1.4023    5.3892 C   0  0  0  0  0  0  0  0  0  0  0  0
   -0.5496   -0.3975    3.6983 C   0  0  0  0  0  0  0  0  0  0  0  0
    1.7454    0.6145    3.9206 C   0  0  0  0  0  0  0  0  0  0  0  0
    2.8262   -0.1084   -2.5602 H   0  0  0  0  0  0  0  0  0  0  0  0
    3.7487   -2.1054   -3.7475 H   0  0  0  0  0  0  0  0  0  0  0  0
    3.6458   -4.3457   -2.6757 H   0  0  0  0  0  0  0  0  0  0  0  0
    3.0016   -5.7651   -0.7792 H   0  0  0  0  0  0  0  0  0  0  0  0
    1.9768   -6.0337    1.4659 H   0  0  0  0  0  0  0  0  0  0  0  0
    1.0502   -4.0379    2.6589 H   0  0  0  0  0  0  0  0  0  0  0  0
    1.1381   -1.8211    1.6272 H   0  0  0  0  0  0  0  0  0  0  0  0
    3.3993    3.5287   -0.3248 H   0  0  0  0  0  0  0  0  0  0  0  0
    2.6724    3.3606   -1.9564 H   0  0  0  0  0  0  0  0  0  0  0  0
    2.5045    5.0860    1.0749 H   0  0  0  0  0  0  0  0  0  0  0  0
    0.3790    5.5144    2.4247 H   0  0  0  0  0  0  0  0  0  0  0  0
   -0.5685    5.3999    0.9366 H   0  0  0  0  0  0  0  0  0  0  0  0
   -1.5029    8.8995    2.0686 H   0  0  0  0  0  0  0  0  0  0  0  0
    2.7387    8.0434    3.1866 H   0  0  0  0  0  0  0  0  0  0  0  0
   -2.4442    1.7166    1.4341 H   0  0  0  0  0  0  0  0  0  0  0  0
   -3.7864    0.2333   -0.0309 H   0  0  0  0  0  0  0  0  0  0  0  0
   -0.1654   -1.4375   -1.6525 H   0  0  0  0  0  0  0  0  0  0  0  0
   -1.2391    2.1775    3.0435 H   0  0  0  0  0  0  0  0  0  0  0  0
    0.3333    2.9474    3.3100 H   0  0  0  0  0  0  0  0  0  0  0  0
    0.4359    2.3127    5.6429 H   0  0  0  0  0  0  0  0  0  0  0  0
    0.0975    0.6397    6.1502 H   0  0  0  0  0  0  0  0  0  0  0  0
   -1.2042    1.6392    5.4625 H   0  0  0  0  0  0  0  0  0  0  0  0
   -0.2912   -1.1752    4.4345 H   0  0  0  0  0  0  0  0  0  0  0  0
   -0.3344   -0.7993    2.6986 H   0  0  0  0  0  0  0  0  0  0  0  0
   -1.6363   -0.2260    3.7553 H   0  0  0  0  0  0  0  0  0  0  0  0
    2.0387    0.2108    2.9402 H   0  0  0  0  0  0  0  0  0  0  0  0
    2.0326   -0.1283    4.6812 H   0  0  0  0  0  0  0  0  0  0  0  0
    2.3285    1.5319    4.0856 H   0  0  0  0  0  0  0  0  0  0  0  0
  1  2  1  0
  1 33  2  0
  1 38  1  0
  2  3  1  1
  2  4  1  0
  2 14  1  0
  4  5  2  0
  4 13  1  0
  5  6  1  0
  5 44  1  0
  6  7  2  0
  6 45  1  0
  7  8  1  0
  7 46  1  0
  8  9  1  0
  8 13  2  0
  9 10  2  0
  9 47  1  0
 10 11  1  0
 10 48  1  0
 11 12  2  0
 11 49  1  0
 12 13  1  0
 12 50  1  0
 14 15  1  0
 15 16  1  6
 15 17  1  0
 15 30  1  0
 17 18  1  0
 17 51  1  0
 17 52  1  0
 18 19  2  0
 18 20  1  0
 20 21  1  0
 20 53  1  0
 21 22  1  6
 21 23  1  0
 21 27  1  0
 23 24  1  0
 23 54  1  0
 23 55  1  0
 24 25  2  0
 24 26  1  0
 26 56  1  0
 27 28  2  0
 27 29  1  0
 29 57  1  0
 30 31  2  0
 30 32  1  0
 32 33  1  0
 32 39  1  0
 33 34  1  0
 34 35  2  0
 34 58  1  0
 35 36  1  0
 35 59  1  0
 36 37  1  0
 36 38  2  0
 38 60  1  0
 40 39  1  0
 39 61  1  0
 39 62  1  0
 40 41  1  0
 40 42  1  0
 40 43  1  0
 41 63  1  0
 41 64  1  0
 41 65  1  0
 42 66  1  0
 42 67  1  0
 42 68  1  0
 43 69  1  0
 43 70  1  0
 43 71  1  0
M  END

