rmsd87.gzmat
 OpenBabel08211713423D

 71 74  0  0  1  0  0  0  0  0999 V2000
    0.0000    0.0000    0.0000 C   0  0  0  0  0  0  0  0  0  0  0  0
    1.5020    0.0000    0.0000 C   0  0  1  0  0  0  0  0  0  0  0  0
    1.9092    0.0000    1.0547 H   0  0  0  0  0  0  0  0  0  0  0  0
    2.1199   -1.1294   -0.7809 C   0  0  0  0  0  0  0  0  0  0  0  0
    2.6272   -0.8992   -2.0356 C   0  0  0  0  0  0  0  0  0  0  0  0
    3.2545   -1.9433   -2.7584 C   0  0  0  0  0  0  0  0  0  0  0  0
    3.3570   -3.1955   -2.2135 C   0  0  0  0  0  0  0  0  0  0  0  0
    2.8340   -3.4606   -0.9174 C   0  0  0  0  0  0  0  0  0  0  0  0
    2.9424   -4.7563   -0.3409 C   0  0  0  0  0  0  0  0  0  0  0  0
    2.4404   -5.0065    0.9095 C   0  0  0  0  0  0  0  0  0  0  0  0
    1.8048   -3.9722    1.6396 C   0  0  0  0  0  0  0  0  0  0  0  0
    1.6894   -2.7161    1.1034 C   0  0  0  0  0  0  0  0  0  0  0  0
    2.2052   -2.4247   -0.1895 C   0  0  0  0  0  0  0  0  0  0  0  0
    2.0048    1.1735   -0.6334 O   0  0  0  0  0  0  0  0  0  0  0  0
    1.4767    2.4022   -0.1836 C   0  0  2  0  0  0  0  0  0  0  0  0
    0.5410    2.6031   -0.7621 H   0  0  0  0  0  0  0  0  0  0  0  0
    2.5698    3.4161   -0.5361 C   0  0  0  0  0  0  0  0  0  0  0  0
    3.9581    2.8098   -0.4252 C   0  0  0  0  0  0  0  0  0  0  0  0
    4.6852    2.6382   -1.3815 O   0  0  0  0  0  0  0  0  0  0  0  0
    4.3785    2.5091    0.8573 N   0  0  0  0  0  0  0  0  0  0  0  0
    5.6718    1.8863    1.0955 C   0  0  1  0  0  0  0  0  0  0  0  0
    5.8045    1.7608    2.2122 H   0  0  0  0  0  0  0  0  0  0  0  0
    5.8034    0.5140    0.4116 C   0  0  0  0  0  0  0  0  0  0  0  0
    4.9038   -0.4838    1.0561 C   0  0  0  0  0  0  0  0  0  0  0  0
    4.0871   -0.3109    1.9270 O   0  0  0  0  0  0  0  0  0  0  0  0
    5.1168   -1.7147    0.5364 O   0  0  0  0  0  0  0  0  0  0  0  0
    6.7666    2.8413    0.6139 C   0  0  0  0  0  0  0  0  0  0  0  0
    6.7635    4.0392    0.6097 O   0  0  0  0  0  0  0  0  0  0  0  0
    7.8719    2.1426    0.2407 O   0  0  0  0  0  0  0  0  0  0  0  0
    1.1630    2.4014    1.3206 C   0  0  0  0  0  0  0  0  0  0  0  0
    1.8226    3.0291    2.1253 O   0  0  0  0  0  0  0  0  0  0  0  0
    0.0080    1.7499    1.7287 N   0  0  0  0  0  0  0  0  0  0  0  0
   -0.6945    0.8621    0.8723 C   0  0  0  0  0  0  0  0  0  0  0  0
   -2.0984    0.8685    0.8915 C   0  0  0  0  0  0  0  0  0  0  0  0
   -2.8108    0.0153    0.0572 C   0  0  0  0  0  0  0  0  0  0  0  0
   -2.1047   -0.8253   -0.7942 C   0  0  0  0  0  0  0  0  0  0  0  0
   -2.9721   -1.8786   -1.8205 Cl  0  0  0  0  0  0  0  0  0  0  0  0
   -0.7186   -0.8418   -0.8455 C   0  0  0  0  0  0  0  0  0  0  0  0
   -0.3546    1.7839    3.1572 C   0  0  0  0  0  0  0  0  0  0  0  0
    0.1418    0.5662    3.9923 C   0  0  0  0  0  0  0  0  0  0  0  0
   -0.2011    0.8807    5.4607 C   0  0  0  0  0  0  0  0  0  0  0  0
   -0.5829   -0.7196    3.5797 C   0  0  0  0  0  0  0  0  0  0  0  0
    1.6537    0.3931    3.8523 C   0  0  0  0  0  0  0  0  0  0  0  0
    2.5702    0.0931   -2.4941 H   0  0  0  0  0  0  0  0  0  0  0  0
    3.6582   -1.7258   -3.7465 H   0  0  0  0  0  0  0  0  0  0  0  0
    3.8415   -4.0045   -2.7576 H   0  0  0  0  0  0  0  0  0  0  0  0
    3.4290   -5.5438   -0.9141 H   0  0  0  0  0  0  0  0  0  0  0  0
    2.5186   -5.9960    1.3558 H   0  0  0  0  0  0  0  0  0  0  0  0
    1.4083   -4.1924    2.6298 H   0  0  0  0  0  0  0  0  0  0  0  0
    1.1964   -1.9264    1.6713 H   0  0  0  0  0  0  0  0  0  0  0  0
    2.4355    3.7681   -1.5835 H   0  0  0  0  0  0  0  0  0  0  0  0
    2.4946    4.3208    0.1058 H   0  0  0  0  0  0  0  0  0  0  0  0
    3.7375    2.5860    1.6426 H   0  0  0  0  0  0  0  0  0  0  0  0
    6.8587    0.1522    0.4214 H   0  0  0  0  0  0  0  0  0  0  0  0
    5.5639    0.5961   -0.6813 H   0  0  0  0  0  0  0  0  0  0  0  0
    4.4778   -2.4042    0.8593 H   0  0  0  0  0  0  0  0  0  0  0  0
    8.6007    2.7110   -0.1079 H   0  0  0  0  0  0  0  0  0  0  0  0
   -2.6333    1.5495    1.5525 H   0  0  0  0  0  0  0  0  0  0  0  0
   -3.9015    0.0161    0.0725 H   0  0  0  0  0  0  0  0  0  0  0  0
   -0.1918   -1.5101   -1.5356 H   0  0  0  0  0  0  0  0  0  0  0  0
   -1.4590    1.8700    3.2452 H   0  0  0  0  0  0  0  0  0  0  0  0
    0.0747    2.7187    3.5978 H   0  0  0  0  0  0  0  0  0  0  0  0
    0.3263    1.7731    5.8148 H   0  0  0  0  0  0  0  0  0  0  0  0
    0.0933    0.0529    6.1157 H   0  0  0  0  0  0  0  0  0  0  0  0
   -1.2735    1.0430    5.6031 H   0  0  0  0  0  0  0  0  0  0  0  0
   -0.2700   -1.5634    4.2058 H   0  0  0  0  0  0  0  0  0  0  0  0
   -0.3706   -0.9943    2.5410 H   0  0  0  0  0  0  0  0  0  0  0  0
   -1.6690   -0.6247    3.6768 H   0  0  0  0  0  0  0  0  0  0  0  0
    1.9463    0.0627    2.8474 H   0  0  0  0  0  0  0  0  0  0  0  0
    2.0446   -0.3529    4.5519 H   0  0  0  0  0  0  0  0  0  0  0  0
    2.1890    1.3335    4.0372 H   0  0  0  0  0  0  0  0  0  0  0  0
  1  2  1  0  0  0  0
  1 33  2  0  0  0  0
  2  3  1  1  0  0  0
  4 13  1  0  0  0  0
  4  2  1  0  0  0  0
  5  4  2  0  0  0  0
  6  7  2  0  0  0  0
  6  5  1  0  0  0  0
  7  8  1  0  0  0  0
  8  9  2  0  0  0  0
  8 13  1  0  0  0  0
  9 10  1  0  0  0  0
 10 48  1  0  0  0  0
 10 11  2  0  0  0  0
 11 49  1  0  0  0  0
 12 11  1  0  0  0  0
 12 50  1  0  0  0  0
 13 12  2  0  0  0  0
 14 15  1  0  0  0  0
 14  2  1  0  0  0  0
 15 16  1  6  0  0  0
 15 30  1  0  0  0  0
 17 18  1  0  0  0  0
 17 15  1  0  0  0  0
 17 52  1  0  0  0  0
 18 20  1  0  0  0  0
 19 18  2  0  0  0  0
 20 21  1  0  0  0  0
 20 53  1  0  0  0  0
 21 22  1  1  0  0  0
 23 54  1  0  0  0  0
 23 24  1  0  0  0  0
 23 21  1  0  0  0  0
 24 25  2  0  0  0  0
 26 56  1  0  0  0  0
 26 24  1  0  0  0  0
 27 21  1  0  0  0  0
 28 27  2  0  0  0  0
 29 27  1  0  0  0  0
 30 32  1  0  0  0  0
 30 31  2  0  0  0  0
 32 39  1  0  0  0  0
 33 34  1  0  0  0  0
 33 32  1  0  0  0  0
 34 58  1  0  0  0  0
 35 59  1  0  0  0  0
 35 34  2  0  0  0  0
 36 35  1  0  0  0  0
 37 36  1  0  0  0  0
 38 36  2  0  0  0  0
 38  1  1  0  0  0  0
 39 61  1  0  0  0  0
 39 62  1  0  0  0  0
 39 40  1  0  0  0  0
 40 41  1  0  0  0  0
 41 65  1  0  0  0  0
 41 63  1  0  0  0  0
 41 64  1  0  0  0  0
 42 68  1  0  0  0  0
 42 40  1  0  0  0  0
 42 66  1  0  0  0  0
 43 40  1  0  0  0  0
 43 71  1  0  0  0  0
 43 70  1  0  0  0  0
 44  5  1  0  0  0  0
 45  6  1  0  0  0  0
 46  7  1  0  0  0  0
 47  9  1  0  0  0  0
 51 17  1  0  0  0  0
 55 23  1  0  0  0  0
 57 29  1  0  0  0  0
 60 38  1  0  0  0  0
 67 42  1  0  0  0  0
 69 43  1  0  0  0  0
M  END
$$$$
