71
rmsd138.gzmat
C          0.00000        0.00000        0.00000
C          1.50430        0.00000        0.00000
H          1.88640        0.00000        1.05910
C          2.10820       -1.12040       -0.80480
C          2.09600       -1.02520       -2.17590
C          2.63420       -2.06090       -2.97550
C          3.18900       -3.16530       -2.38450
C          3.22620       -3.28160       -0.96770
C          3.80780       -4.42560       -0.35390
C          3.83690       -4.54350        1.01070
C          3.28080       -3.52440        1.82300
C          2.71580       -2.41350        1.25260
C          2.67810       -2.25730       -0.16100
O          2.06790        1.16790       -0.59480
C          1.41900        2.39670       -0.34380
H          0.50140        2.45370       -0.97510
C          2.45330        3.45530       -0.72400
C          2.74450        3.51140       -2.20370
O          2.54750        4.49890       -2.88240
N          3.35760        2.39730       -2.74740
C          3.72300        2.39330       -4.15060
H          3.91470        3.46920       -4.47840
C          5.00350        1.56960       -4.38850
C          4.86110        0.12830       -3.99780
O          4.75110       -0.82650       -4.71850
O          4.88630       -0.00540       -2.64910
C          2.62390        1.87260       -5.07720
O          2.60310        1.98700       -6.27270
O          1.62940        1.24510       -4.41040
C          1.08880        2.55660        1.14850
O          1.67750        3.33850        1.86200
N          0.02400        1.81860        1.65100
C         -0.68780        0.88910        0.85080
C         -2.09080        0.88790        0.90140
C         -2.81530       -0.00520        0.12140
C         -2.11830       -0.88010       -0.70160
Cl        -2.99530       -1.99050       -1.65780
C         -0.73300       -0.88990       -0.78090
C         -0.26950        1.88360        3.09190
C          0.46710        0.80680        3.94460
C          0.11940        1.09880        5.41550
C         -0.01850       -0.60180        3.58720
C          1.98310        0.91080        3.75830
H          1.66090       -0.14710       -2.66480
H          2.60380       -1.96320       -4.06280
H          3.60390       -3.97140       -2.98980
H          4.22610       -5.20370       -0.99090
H          4.28250       -5.41460        1.48720
H          3.30990       -3.63980        2.90550
H          2.28810       -1.63820        1.88880
H          2.10370        4.46120       -0.38750
H          3.39840        3.28100       -0.15670
H          3.42240        1.51980       -2.23700
H          5.84400        2.02950       -3.81630
H          5.29130        1.62880       -5.46580
H          4.73680       -0.93650       -2.32910
H          0.89410        0.94080       -5.00400
H         -2.61490        1.59670        1.54220
H         -3.90570       -0.00900        0.15680
H         -0.22540       -1.59820       -1.44490
H         -1.36530        1.79220        3.25040
H          0.02420        2.89890        3.45800
H          0.47450        2.08800        5.72450
H          0.58890        0.36610        6.08160
H         -0.95890        1.05670        5.59620
H          0.46970       -1.35820        4.21230
H          0.19240       -0.85720        2.54380
H         -1.09860       -0.70740        3.73460
H          2.29420        0.63930        2.74390
H          2.51890        0.25950        4.45580
H          2.33710        1.93790        3.92630
