71
rmsd139.gzmat
C          0.00000        0.00000        0.00000
C          1.50220        0.00000        0.00000
H          1.87150        0.00000        1.06410
C          2.15090       -1.08890       -0.81670
C          2.01770       -1.05010       -2.18460
C          2.67170       -1.99800       -3.00580
C          3.45330       -2.96930       -2.43890
C          3.60030       -3.04000       -1.02580
C          4.40990       -4.05080       -0.43610
C          4.55000       -4.12580        0.92470
C          3.87910       -3.19720        1.75830
C          3.09430       -2.21510        1.21170
C          2.94040       -2.10140       -0.19780
O          2.07920        1.17200       -0.57820
C          1.40020        2.40030       -0.42980
H          0.48490        2.39610       -1.06600
C          2.42010        3.44320       -0.88740
C          2.69430        3.43690       -2.37450
O          2.77760        4.44780       -3.03530
N          2.90010        2.18900       -2.94190
C          3.18780        2.03880       -4.35760
H          3.39210        3.04950       -4.83000
C          4.38830        1.09120       -4.53490
C          4.90220        1.11450       -5.93500
O          4.49660        1.73380       -6.88090
O          5.97540        0.28810       -6.04350
C          1.95870        1.40030       -5.01470
O          1.62220        0.24580       -4.95160
O          1.24090        2.31970       -5.68330
C          1.05780        2.63680        1.04640
O          1.62510        3.46330        1.72480
N          0.00570        1.89700        1.57140
C         -0.69190        0.92560        0.80920
C         -2.09530        0.91520        0.86320
C         -2.81590       -0.02160        0.13300
C         -2.11550       -0.93280       -0.64650
Cl        -2.98840       -2.09340       -1.54340
C         -0.73020       -0.93850       -0.72570
C         -0.30310        2.02360        3.00480
C          0.40670        0.96780        3.90420
C          0.03300        1.31270        5.35680
C         -0.08360       -0.44840        3.58460
C          1.92680        1.05250        3.74070
H          1.39260       -0.29140       -2.66570
H          2.53190       -1.93530       -4.08770
H          3.96990       -3.70270       -3.05670
H          4.91480       -4.76200       -1.08840
H          5.17110       -4.89370        1.38150
H          3.99740       -3.27840        2.83800
H          2.57780       -1.51060        1.86380
H          2.08130        4.46310       -0.58490
H          3.38090        3.29980       -0.33650
H          2.81210        1.34350       -2.38070
H          4.11840        0.04530       -4.24460
H          5.20470        1.37170       -3.82630
H          6.35990        0.25650       -6.95420
H          0.43960        1.95110       -6.13840
H         -2.62380        1.65010        1.47030
H         -3.90610       -0.03140        0.17490
H         -0.21910       -1.68400       -1.34520
H         -1.40210        1.95930        3.15460
H          0.00410        3.04700        3.33680
H          0.39770        2.30580        5.64220
H          0.47530        0.59430        6.05610
H         -1.05000        1.29400        5.51410
H          0.35690       -1.18270        4.26910
H          0.18220       -0.75630        2.56820
H         -1.17190       -0.53020        3.67600
H          2.25110        0.75110        2.73890
H          2.44370        0.41280        4.46310
H          2.28800        2.08000        3.88680
