
     RDKit          3D

 71 74  0  0  0  0  0  0  0  0999 V2000
    0.1992   -0.0840   -0.0259 C   0  0  0  0  0  0  0  0  0  0  0  0
    1.7199   -0.0246   -0.1020 C   0  0  1  0  0  0  0  0  0  0  0  0
    2.0920    0.0100    0.9356 H   0  0  0  0  0  0  0  0  0  0  0  0
    2.3386   -1.2145   -0.7972 C   0  0  0  0  0  0  0  0  0  0  0  0
    2.6005   -1.1541   -2.1529 C   0  0  0  0  0  0  0  0  0  0  0  0
    3.1603   -2.2598   -2.8416 C   0  0  0  0  0  0  0  0  0  0  0  0
    3.4497   -3.4225   -2.1612 C   0  0  0  0  0  0  0  0  0  0  0  0
    3.1753   -3.5369   -0.7714 C   0  0  0  0  0  0  0  0  0  0  0  0
    3.4459   -4.7390   -0.0608 C   0  0  0  0  0  0  0  0  0  0  0  0
    3.1589   -4.8514    1.2818 C   0  0  0  0  0  0  0  0  0  0  0  0
    2.5864   -3.7569    1.9738 C   0  0  0  0  0  0  0  0  0  0  0  0
    2.3177   -2.5754    1.3158 C   0  0  0  0  0  0  0  0  0  0  0  0
    2.6041   -2.4198   -0.0705 C   0  0  0  0  0  0  0  0  0  0  0  0
    2.1630    1.1639   -0.7553 O   0  0  0  0  0  0  0  0  0  0  0  0
    1.4940    2.3640   -0.3856 C   0  0  2  0  0  0  0  0  0  0  0  0
    0.5049    2.3998   -0.8784 H   0  0  0  0  0  0  0  0  0  0  0  0
    2.3393    3.5342   -0.8682 C   0  0  0  0  0  0  0  0  0  0  0  0
    2.4686    3.5758   -2.3816 C   0  0  0  0  0  0  0  0  0  0  0  0
    1.7631    4.2829   -3.0832 O   0  0  0  0  0  0  0  0  0  0  0  0
    3.4448    2.7806   -2.9128 N   0  0  0  0  0  0  0  0  0  0  0  0
    3.6092    2.7404   -4.3443 C   0  0  1  0  0  0  0  0  0  0  0  0
    3.6649    3.7726   -4.7202 H   0  0  0  0  0  0  0  0  0  0  0  0
    4.9124    2.0180   -4.7469 C   0  0  0  0  0  0  0  0  0  0  0  0
    4.8882    0.5613   -4.3448 C   0  0  0  0  0  0  0  0  0  0  0  0
    4.5678   -0.3494   -5.0662 O   0  0  0  0  0  0  0  0  0  0  0  0
    5.2064    0.3968   -3.0423 O   0  0  0  0  0  0  0  0  0  0  0  0
    2.4268    2.1329   -5.1084 C   0  0  0  0  0  0  0  0  0  0  0  0
    2.2095    2.3516   -6.2701 O   0  0  0  0  0  0  0  0  0  0  0  0
    1.6914    1.2887   -4.3615 O   0  0  0  0  0  0  0  0  0  0  0  0
    1.2891    2.4617    1.1422 C   0  0  0  0  0  0  0  0  0  0  0  0
    1.9660    3.2028    1.8316 O   0  0  0  0  0  0  0  0  0  0  0  0
    0.2693    1.6886    1.6687 N   0  0  0  0  0  0  0  0  0  0  0  0
   -0.4725    0.7830    0.8629 C   0  0  0  0  0  0  0  0  0  0  0  0
   -1.8715    0.7357    0.9462 C   0  0  0  0  0  0  0  0  0  0  0  0
   -2.6052   -0.1568    0.1695 C   0  0  0  0  0  0  0  0  0  0  0  0
   -1.9337   -1.0055   -0.7134 C   0  0  0  0  0  0  0  0  0  0  0  0
   -2.8395   -2.1292   -1.6946 Cl  0  0  0  0  0  0  0  0  0  0  0  0
   -0.5438   -0.9658   -0.8159 C   0  0  0  0  0  0  0  0  0  0  0  0
   -0.0653    1.8748    3.0855 C   0  0  0  0  0  0  0  0  0  0  0  0
    0.4828    0.8038    4.0577 C   0  0  0  0  0  0  0  0  0  0  0  0
    0.0975    1.2615    5.4744 C   0  0  0  0  0  0  0  0  0  0  0  0
   -0.1503   -0.5698    3.7831 C   0  0  0  0  0  0  0  0  0  0  0  0
    2.0120    0.7106    3.9523 C   0  0  0  0  0  0  0  0  0  0  0  0
    2.3655   -0.2385   -2.6950 H   0  0  0  0  0  0  0  0  0  0  0  0
    3.3678   -2.1694   -3.9093 H   0  0  0  0  0  0  0  0  0  0  0  0
    3.8829   -4.2791   -2.6839 H   0  0  0  0  0  0  0  0  0  0  0  0
    3.8839   -5.5788   -0.6062 H   0  0  0  0  0  0  0  0  0  0  0  0
    3.3686   -5.7820    1.8141 H   0  0  0  0  0  0  0  0  0  0  0  0
    2.3546   -3.8485    3.0375 H   0  0  0  0  0  0  0  0  0  0  0  0
    1.8720   -1.7540    1.8739 H   0  0  0  0  0  0  0  0  0  0  0  0
    1.8548    4.4693   -0.5621 H   0  0  0  0  0  0  0  0  0  0  0  0
    3.3206    3.4797   -0.3761 H   0  0  0  0  0  0  0  0  0  0  0  0
    3.8406    2.0372   -2.3442 H   0  0  0  0  0  0  0  0  0  0  0  0
    5.7581    2.5300   -4.2659 H   0  0  0  0  0  0  0  0  0  0  0  0
    5.0163    2.0685   -5.8376 H   0  0  0  0  0  0  0  0  0  0  0  0
    5.0377   -0.5342   -2.8028 H   0  0  0  0  0  0  0  0  0  0  0  0
    0.9908    0.9398   -4.9396 H   0  0  0  0  0  0  0  0  0  0  0  0
   -2.3991    1.4113    1.6194 H   0  0  0  0  0  0  0  0  0  0  0  0
   -3.6932   -0.1901    0.2375 H   0  0  0  0  0  0  0  0  0  0  0  0
   -0.0345   -1.6400   -1.5032 H   0  0  0  0  0  0  0  0  0  0  0  0
   -1.1589    1.9240    3.1875 H   0  0  0  0  0  0  0  0  0  0  0  0
    0.3414    2.8536    3.3673 H   0  0  0  0  0  0  0  0  0  0  0  0
    0.5485    2.2375    5.7144 H   0  0  0  0  0  0  0  0  0  0  0  0
    0.4458    0.5350    6.2251 H   0  0  0  0  0  0  0  0  0  0  0  0
   -0.9956    1.3563    5.5822 H   0  0  0  0  0  0  0  0  0  0  0  0
    0.2144   -1.3124    4.5108 H   0  0  0  0  0  0  0  0  0  0  0  0
    0.0884   -0.9433    2.7778 H   0  0  0  0  0  0  0  0  0  0  0  0
   -1.2483   -0.5291    3.8644 H   0  0  0  0  0  0  0  0  0  0  0  0
    2.3280    0.3720    2.9545 H   0  0  0  0  0  0  0  0  0  0  0  0
    2.4050   -0.0107    4.6861 H   0  0  0  0  0  0  0  0  0  0  0  0
    2.4857    1.6870    4.1278 H   0  0  0  0  0  0  0  0  0  0  0  0
  1  2  1  0
  1 33  2  0
  1 38  1  0
  2  3  1  1
  2  4  1  0
  2 14  1  0
  4  5  2  0
  4 13  1  0
  5  6  1  0
  5 44  1  0
  6  7  2  0
  6 45  1  0
  7  8  1  0
  7 46  1  0
  8  9  1  0
  8 13  2  0
  9 10  2  0
  9 47  1  0
 10 11  1  0
 10 48  1  0
 11 12  2  0
 11 49  1  0
 12 13  1  0
 12 50  1  0
 14 15  1  0
 15 16  1  6
 15 17  1  0
 15 30  1  0
 17 18  1  0
 17 51  1  0
 17 52  1  0
 18 19  2  0
 18 20  1  0
 20 21  1  0
 20 53  1  0
 21 22  1  6
 21 23  1  0
 21 27  1  0
 23 24  1  0
 23 54  1  0
 23 55  1  0
 24 25  2  0
 24 26  1  0
 26 56  1  0
 27 28  2  0
 27 29  1  0
 29 57  1  0
 30 31  2  0
 30 32  1  0
 32 33  1  0
 32 39  1  0
 33 34  1  0
 34 35  2  0
 34 58  1  0
 35 36  1  0
 35 59  1  0
 36 37  1  0
 36 38  2  0
 38 60  1  0
 40 39  1  0
 39 61  1  0
 39 62  1  0
 40 41  1  0
 40 42  1  0
 40 43  1  0
 41 63  1  0
 41 64  1  0
 41 65  1  0
 42 66  1  0
 42 67  1  0
 42 68  1  0
 43 69  1  0
 43 70  1  0
 43 71  1  0
M  END

