rmsd247.gzmat
 OpenBabel08211713423D

 71 74  0  0  1  0  0  0  0  0999 V2000
    0.0000    0.0000    0.0000 C   0  0  0  0  0  0  0  0  0  0  0  0
    1.5034    0.0000    0.0000 C   0  0  1  0  0  0  0  0  0  0  0  0
    1.8968    0.0000    1.0572 H   0  0  0  0  0  0  0  0  0  0  0  0
    2.1071   -1.1415   -0.7763 C   0  0  0  0  0  0  0  0  0  0  0  0
    2.6061   -0.9277   -2.0370 C   0  0  0  0  0  0  0  0  0  0  0  0
    3.1954   -1.9891   -2.7664 C   0  0  0  0  0  0  0  0  0  0  0  0
    3.2700   -3.2429   -2.2207 C   0  0  0  0  0  0  0  0  0  0  0  0
    2.7523   -3.4925   -0.9191 C   0  0  0  0  0  0  0  0  0  0  0  0
    2.8196   -4.7943   -0.3497 C   0  0  0  0  0  0  0  0  0  0  0  0
    2.3147   -5.0335    0.9018 C   0  0  0  0  0  0  0  0  0  0  0  0
    1.7177   -3.9814    1.6389 C   0  0  0  0  0  0  0  0  0  0  0  0
    1.6442   -2.7189    1.1100 C   0  0  0  0  0  0  0  0  0  0  0  0
    2.1634   -2.4389   -0.1840 C   0  0  0  0  0  0  0  0  0  0  0  0
    2.0576    1.1740   -0.5956 O   0  0  0  0  0  0  0  0  0  0  0  0
    1.3389    2.3728   -0.4017 C   0  0  2  0  0  0  0  0  0  0  0  0
    0.3901    2.3353   -0.9954 H   0  0  0  0  0  0  0  0  0  0  0  0
    2.2894    3.4429   -0.9478 C   0  0  0  0  0  0  0  0  0  0  0  0
    1.5015    4.6905   -1.2704 C   0  0  0  0  0  0  0  0  0  0  0  0
    1.1403    4.9965   -2.3866 O   0  0  0  0  0  0  0  0  0  0  0  0
    1.1665    5.4617   -0.1720 N   0  0  0  0  0  0  0  0  0  0  0  0
    0.2630    6.5858   -0.3055 C   0  0  1  0  0  0  0  0  0  0  0  0
    0.0679    6.7950   -1.4079 H   0  0  0  0  0  0  0  0  0  0  0  0
   -1.0786    6.3042    0.4132 C   0  0  0  0  0  0  0  0  0  0  0  0
   -1.7839    5.1685   -0.2633 C   0  0  0  0  0  0  0  0  0  0  0  0
   -1.7982    4.0058    0.0476 O   0  0  0  0  0  0  0  0  0  0  0  0
   -2.4695    5.6154   -1.3409 O   0  0  0  0  0  0  0  0  0  0  0  0
    0.8401    7.8584    0.3056 C   0  0  0  0  0  0  0  0  0  0  0  0
    0.2817    8.9208    0.3808 O   0  0  0  0  0  0  0  0  0  0  0  0
    2.0874    7.6768    0.7871 O   0  0  0  0  0  0  0  0  0  0  0  0
    1.0348    2.5949    1.0886 C   0  0  0  0  0  0  0  0  0  0  0  0
    1.5991    3.4357    1.7640 O   0  0  0  0  0  0  0  0  0  0  0  0
    0.0445    1.8075    1.6442 N   0  0  0  0  0  0  0  0  0  0  0  0
   -0.6902    0.8914    0.8468 C   0  0  0  0  0  0  0  0  0  0  0  0
   -2.0924    0.9045    0.8810 C   0  0  0  0  0  0  0  0  0  0  0  0
   -2.8130    0.0197    0.0879 C   0  0  0  0  0  0  0  0  0  0  0  0
   -2.1138   -0.8533   -0.7362 C   0  0  0  0  0  0  0  0  0  0  0  0
   -2.9932   -1.9421   -1.7163 Cl  0  0  0  0  0  0  0  0  0  0  0  0
   -0.7283   -0.8740   -0.8039 C   0  0  0  0  0  0  0  0  0  0  0  0
   -0.3136    1.9811    3.0589 C   0  0  0  0  0  0  0  0  0  0  0  0
    0.2905    0.8813    3.9827 C   0  0  0  0  0  0  0  0  0  0  0  0
    0.0214    1.3248    5.4312 C   0  0  0  0  0  0  0  0  0  0  0  0
   -0.3913   -0.4690    3.7346 C   0  0  0  0  0  0  0  0  0  0  0  0
    1.8008    0.7617    3.7593 C   0  0  0  0  0  0  0  0  0  0  0  0
    2.5615    0.0630   -2.4968 H   0  0  0  0  0  0  0  0  0  0  0  0
    3.5864   -1.7879   -3.7623 H   0  0  0  0  0  0  0  0  0  0  0  0
    3.7229   -4.0664   -2.7702 H   0  0  0  0  0  0  0  0  0  0  0  0
    3.2799   -5.5936   -0.9277 H   0  0  0  0  0  0  0  0  0  0  0  0
    2.3629   -6.0266    1.3439 H   0  0  0  0  0  0  0  0  0  0  0  0
    1.3186   -4.1938    2.6294 H   0  0  0  0  0  0  0  0  0  0  0  0
    1.1792   -1.9178    1.6836 H   0  0  0  0  0  0  0  0  0  0  0  0
    3.1168    3.6414   -0.2325 H   0  0  0  0  0  0  0  0  0  0  0  0
    2.7826    3.0640   -1.8737 H   0  0  0  0  0  0  0  0  0  0  0  0
    1.4660    5.1956    0.7661 H   0  0  0  0  0  0  0  0  0  0  0  0
   -1.7121    7.2231    0.4001 H   0  0  0  0  0  0  0  0  0  0  0  0
   -0.9116    6.0525    1.4832 H   0  0  0  0  0  0  0  0  0  0  0  0
   -2.9050    4.8955   -1.8648 H   0  0  0  0  0  0  0  0  0  0  0  0
    2.4860    8.5010    1.1701 H   0  0  0  0  0  0  0  0  0  0  0  0
   -2.6162    1.6306    1.5040 H   0  0  0  0  0  0  0  0  0  0  0  0
   -3.9034    0.0265    0.1098 H   0  0  0  0  0  0  0  0  0  0  0  0
   -0.2116   -1.5686   -1.4745 H   0  0  0  0  0  0  0  0  0  0  0  0
   -1.4193    1.9982    3.1673 H   0  0  0  0  0  0  0  0  0  0  0  0
    0.0531    2.9823    3.3963 H   0  0  0  0  0  0  0  0  0  0  0  0
    0.5431    2.2582    5.6700 H   0  0  0  0  0  0  0  0  0  0  0  0
    0.3709    0.5699    6.1444 H   0  0  0  0  0  0  0  0  0  0  0  0
   -1.0458    1.4787    5.6184 H   0  0  0  0  0  0  0  0  0  0  0  0
    0.0432   -1.2522    4.3657 H   0  0  0  0  0  0  0  0  0  0  0  0
   -0.2862   -0.7930    2.6932 H   0  0  0  0  0  0  0  0  0  0  0  0
   -1.4632   -0.4291    3.9543 H   0  0  0  0  0  0  0  0  0  0  0  0
    2.0344    0.2993    2.7926 H   0  0  0  0  0  0  0  0  0  0  0  0
    2.2760    0.1537    4.5354 H   0  0  0  0  0  0  0  0  0  0  0  0
    2.2842    1.7482    3.7634 H   0  0  0  0  0  0  0  0  0  0  0  0
  1  2  1  0  0  0  0
  1 33  2  0  0  0  0
  2  3  1  1  0  0  0
  4 13  1  0  0  0  0
  4  2  1  0  0  0  0
  5  4  2  0  0  0  0
  6  7  2  0  0  0  0
  6  5  1  0  0  0  0
  7  8  1  0  0  0  0
  8  9  2  0  0  0  0
  8 13  1  0  0  0  0
  9 10  1  0  0  0  0
 10 48  1  0  0  0  0
 10 11  2  0  0  0  0
 11 49  1  0  0  0  0
 12 11  1  0  0  0  0
 12 50  1  0  0  0  0
 13 12  2  0  0  0  0
 14 15  1  0  0  0  0
 14  2  1  0  0  0  0
 15 16  1  6  0  0  0
 15 30  1  0  0  0  0
 17 15  1  0  0  0  0
 17 51  1  0  0  0  0
 18 17  1  0  0  0  0
 18 20  1  0  0  0  0
 19 18  2  0  0  0  0
 20 53  1  0  0  0  0
 21 22  1  6  0  0  0
 21 20  1  0  0  0  0
 21 27  1  0  0  0  0
 21 23  1  0  0  0  0
 23 55  1  0  0  0  0
 24 25  2  0  0  0  0
 24 23  1  0  0  0  0
 26 24  1  0  0  0  0
 27 28  2  0  0  0  0
 27 29  1  0  0  0  0
 29 57  1  0  0  0  0
 30 32  1  0  0  0  0
 30 31  2  0  0  0  0
 32 39  1  0  0  0  0
 33 34  1  0  0  0  0
 33 32  1  0  0  0  0
 34 58  1  0  0  0  0
 35 59  1  0  0  0  0
 35 34  2  0  0  0  0
 36 35  1  0  0  0  0
 37 36  1  0  0  0  0
 38 36  2  0  0  0  0
 38  1  1  0  0  0  0
 39 61  1  0  0  0  0
 39 62  1  0  0  0  0
 39 40  1  0  0  0  0
 40 41  1  0  0  0  0
 41 65  1  0  0  0  0
 41 63  1  0  0  0  0
 41 64  1  0  0  0  0
 42 68  1  0  0  0  0
 42 40  1  0  0  0  0
 42 66  1  0  0  0  0
 43 71  1  0  0  0  0
 43 40  1  0  0  0  0
 43 70  1  0  0  0  0
 44  5  1  0  0  0  0
 45  6  1  0  0  0  0
 46  7  1  0  0  0  0
 47  9  1  0  0  0  0
 52 17  1  0  0  0  0
 54 23  1  0  0  0  0
 56 26  1  0  0  0  0
 60 38  1  0  0  0  0
 67 42  1  0  0  0  0
 69 43  1  0  0  0  0
M  END
$$$$
