71
rmsd135.gzmat
C          0.00000        0.00000        0.00000
C          1.50420        0.00000        0.00000
H          1.90340        0.00000        1.05490
C          2.10560       -1.14660       -0.76990
C          2.60890       -0.94270       -2.03040
C          3.19590       -2.01190       -2.75030
C          3.26190       -3.26270       -2.19620
C          2.73730       -3.50210       -0.89550
C          2.79460       -4.80130       -0.31840
C          2.27890       -5.03200        0.93020
C          1.68270       -3.97280        1.65780
C          1.62110       -2.71220        1.12220
C          2.15090       -2.44100       -0.16980
O          2.03360        1.17350       -0.61380
C          1.41130        2.38650       -0.24240
H          0.46910        2.50350       -0.83650
C          2.44420        3.45300       -0.62030
C          1.79150        4.81010       -0.54120
O          0.60610        4.99340       -0.74030
N          2.62300        5.86400       -0.22150
C          2.08030        7.20380       -0.09490
H          0.95720        7.17750       -0.28840
C          2.32600        7.77690        1.31580
C          3.76740        7.74140        1.71200
O          4.68020        7.14710        1.19560
O          3.96670        8.49930        2.81640
C          2.67870        8.16590       -1.11910
O          2.64730        9.36710       -1.05590
O          3.23790        7.52390       -2.16460
C          1.11780        2.45470        1.26280
O          1.75540        3.14800        2.02510
N          0.01300        1.74350        1.72210
C         -0.69640        0.84940        0.88480
C         -2.10020        0.83130        0.92770
C         -2.81140       -0.02390        0.09520
C         -2.10480       -0.84370       -0.77590
Cl        -2.97080       -1.89660       -1.80490
C         -0.71940       -0.84250       -0.84410
C         -0.34820        1.82900        3.14550
C          0.17010        0.63930        4.00790
C         -0.11760        0.99900        5.47650
C         -0.57440       -0.65440        3.65960
C          1.67810        0.45460        3.81940
H          2.56850        0.04450       -2.49710
H          3.59170       -1.81940       -3.74600
H          3.71270       -4.09200       -2.73860
H          3.25430       -5.60630       -0.88890
H          2.31890       -6.02330        1.37750
H          1.27580       -4.17840        2.64680
H          1.15590       -1.90610        1.68860
H          3.33640        3.36870        0.03870
H          2.81440        3.26980       -1.65410
H          3.61520        5.76200       -0.03710
H          1.72900        7.20000        2.06370
H          1.93600        8.82280        1.37670
H          4.90850        8.51230        3.12480
H          3.61990        8.14280       -2.84150
H         -2.63400        1.49860        1.60380
H         -3.90160       -0.04000        0.12580
H         -0.19470       -1.49950       -1.54590
H         -1.45240        1.90660        3.24150
H          0.07230        2.78230        3.55300
H          0.41520        1.90660        5.78150
H          0.20650        0.19470        6.14680
H         -1.18520        1.16000        5.65490
H         -0.24020       -1.48360        4.29320
H         -0.41170       -0.95420        2.61860
H         -1.65520       -0.55060        3.80240
H          1.92320        0.08150        2.81820
H          2.09050       -0.25660        4.54190
H          2.21430        1.40610        3.94340
