71

C          0.19920       -0.08400       -0.02590
C          1.71990       -0.02460       -0.10200
H          2.09200        0.01000        0.93560
C          2.33860       -1.21450       -0.79720
C          2.60050       -1.15410       -2.15290
C          3.16030       -2.25980       -2.84160
C          3.44970       -3.42250       -2.16120
C          3.17530       -3.53690       -0.77140
C          3.44590       -4.73900       -0.06080
C          3.15890       -4.85140        1.28180
C          2.58640       -3.75690        1.97380
C          2.31770       -2.57540        1.31580
C          2.60410       -2.41980       -0.07050
O          2.16300        1.16390       -0.75530
C          1.49400        2.36400       -0.38560
H          0.50490        2.39980       -0.87840
C          2.33930        3.53420       -0.86820
C          2.46860        3.57580       -2.38160
O          1.76310        4.28290       -3.08320
N          3.44480        2.78060       -2.91280
C          3.60920        2.74040       -4.34430
H          3.66490        3.77260       -4.72020
C          4.91240        2.01800       -4.74690
C          4.88820        0.56130       -4.34480
O          4.56780       -0.34940       -5.06620
O          5.20640        0.39680       -3.04230
C          2.42680        2.13290       -5.10840
O          2.20950        2.35160       -6.27010
O          1.69140        1.28870       -4.36150
C          1.28910        2.46170        1.14220
O          1.96600        3.20280        1.83160
N          0.26930        1.68860        1.66870
C         -0.47250        0.78300        0.86290
C         -1.87150        0.73570        0.94620
C         -2.60520       -0.15680        0.16950
C         -1.93370       -1.00550       -0.71340
Cl        -2.83950       -2.12920       -1.69460
C         -0.54380       -0.96580       -0.81590
C         -0.06530        1.87480        3.08550
C          0.48280        0.80380        4.05770
C          0.09750        1.26150        5.47440
C         -0.15030       -0.56980        3.78310
C          2.01200        0.71060        3.95230
H          2.36550       -0.23850       -2.69500
H          3.36780       -2.16940       -3.90930
H          3.88290       -4.27910       -2.68390
H          3.88390       -5.57880       -0.60620
H          3.36860       -5.78200        1.81410
H          2.35460       -3.84850        3.03750
H          1.87200       -1.75400        1.87390
H          1.85480        4.46930       -0.56210
H          3.32060        3.47970       -0.37610
H          3.84060        2.03720       -2.34420
H          5.75810        2.53000       -4.26590
H          5.01630        2.06850       -5.83760
H          5.03770       -0.53420       -2.80280
H          0.99080        0.93980       -4.93960
H         -2.39910        1.41130        1.61940
H         -3.69320       -0.19010        0.23750
H         -0.03450       -1.64000       -1.50320
H         -1.15890        1.92400        3.18750
H          0.34140        2.85360        3.36730
H          0.54850        2.23750        5.71440
H          0.44580        0.53500        6.22510
H         -0.99560        1.35630        5.58220
H          0.21440       -1.31240        4.51080
H          0.08840       -0.94330        2.77780
H         -1.24830       -0.52910        3.86440
H          2.32800        0.37200        2.95450
H          2.40500       -0.01070        4.68610
H          2.48570        1.68700        4.12780
