71
rmsd115.gzmat
C          0.00000        0.00000        0.00000
C          1.50310        0.00000        0.00000
H          1.89590        0.00000        1.05730
C          2.10430       -1.14460       -0.77350
C          2.59720       -0.93820       -2.03770
C          3.18900       -2.00320       -2.75990
C          3.27130       -3.25210       -2.20370
C          2.75600       -3.49460       -0.89980
C          2.82590       -4.79190       -0.32050
C          2.31580       -5.02410        0.93030
C          1.71240       -3.96910        1.65830
C          1.63840       -2.71020        1.12100
C          2.16310       -2.43790       -0.17290
O          2.05400        1.17030       -0.59840
C          1.36540        2.38110       -0.36340
H          0.42490        2.39010       -0.97060
C          2.36830        3.43140       -0.85750
C          1.65370        4.70230       -1.24130
O          1.44490        5.04790       -2.38540
N          1.25760        5.50400       -0.17780
C          0.35390        6.61170       -0.45630
H          0.81250        7.24870       -1.27800
C         -1.04410        6.15280       -0.93230
C         -1.58560        5.02590       -0.11440
O         -1.12300        3.92580        0.05040
O         -2.77450        5.36470        0.44130
C          0.19660        7.48480        0.78310
O          0.17040        8.68370        0.81800
O          0.05410        6.73100        1.89650
C          1.04210        2.56950        1.12710
O          1.60120        3.40050        1.81760
N          0.05840        1.76460        1.68120
C         -0.68520        0.86190        0.88170
C         -2.08650        0.83630        0.95430
C         -2.80770       -0.03610        0.14780
C         -2.11280       -0.86100       -0.72750
Cl        -2.99460       -1.92860       -1.72840
C         -0.72870       -0.85510       -0.82230
C         -0.30640        1.95070        3.09320
C          0.25620        0.83300        4.02160
C         -0.03100        1.27730        5.46660
C         -0.45000       -0.50130        3.75550
C          1.76730        0.68150        3.82600
H          2.54500        0.04840       -2.50580
H          3.57530       -1.80860       -3.75900
H          3.72730       -4.07710       -2.74830
H          3.29070       -5.59420       -0.89080
H          2.36450       -6.01400        1.37900
H          1.30950       -4.17680        2.64830
H          1.16630       -1.90630        1.68480
H          3.15430        3.61650       -0.09180
H          2.91160        3.03020       -1.74650
H          1.27120        5.12820        0.77410
H         -0.95400        5.80310       -1.99480
H         -1.74840        7.01360       -0.95840
H         -3.16900        4.64620        0.99650
H         -0.02330        7.25720        2.73250
H         -2.61110        1.51210        1.62660
H         -3.89650       -0.06060        0.20040
H         -0.21350       -1.51740       -1.52610
H         -1.41030        2.00430        3.19780
H          0.09030        2.93960        3.43530
H          0.47730        2.21820        5.70620
H          0.32180        0.52820        6.18390
H         -1.10130        1.41930        5.64410
H         -0.07780       -1.28460        4.42500
H         -0.29110       -0.84750        2.72790
H         -1.53130       -0.42580        3.90880
H          2.00910        0.24120        2.85150
H          2.21030        0.03920        4.59370
H          2.27460        1.65510        3.86780
