
     RDKit          3D

 71 74  0  0  0  0  0  0  0  0999 V2000
   -0.0639   -0.0332   -0.0683 C   0  0  0  0  0  0  0  0  0  0  0  0
    1.4586   -0.0129   -0.0894 C   0  0  1  0  0  0  0  0  0  0  0  0
    1.7977   -0.0326    0.9626 H   0  0  0  0  0  0  0  0  0  0  0  0
    2.0813   -1.1909   -0.8040 C   0  0  0  0  0  0  0  0  0  0  0  0
    2.6532   -1.0292   -2.0500 C   0  0  0  0  0  0  0  0  0  0  0  0
    3.2252   -2.1256   -2.7401 C   0  0  0  0  0  0  0  0  0  0  0  0
    3.2190   -3.3809   -2.1768 C   0  0  0  0  0  0  0  0  0  0  0  0
    2.6408   -3.5945   -0.8952 C   0  0  0  0  0  0  0  0  0  0  0  0
    2.6206   -4.8841   -0.2960 C   0  0  0  0  0  0  0  0  0  0  0  0
    2.0542   -5.0839    0.9443 C   0  0  0  0  0  0  0  0  0  0  0  0
    1.4819   -3.9930    1.6417 C   0  0  0  0  0  0  0  0  0  0  0  0
    1.4855   -2.7301    1.0879 C   0  0  0  0  0  0  0  0  0  0  0  0
    2.0621   -2.4858   -0.1904 C   0  0  0  0  0  0  0  0  0  0  0  0
    1.9428    1.1887   -0.6813 O   0  0  0  0  0  0  0  0  0  0  0  0
    1.2726    2.3831   -0.3086 C   0  0  2  0  0  0  0  0  0  0  0  0
    0.2885    2.4410   -0.8057 H   0  0  0  0  0  0  0  0  0  0  0  0
    2.1399    3.5404   -0.7947 C   0  0  0  0  0  0  0  0  0  0  0  0
    1.3736    4.8539   -0.7552 C   0  0  0  0  0  0  0  0  0  0  0  0
    0.6875    5.2382   -1.6902 O   0  0  0  0  0  0  0  0  0  0  0  0
    1.4771    5.5415    0.4211 N   0  0  0  0  0  0  0  0  0  0  0  0
    0.6040    6.6547    0.6882 C   0  0  1  0  0  0  0  0  0  0  0  0
    0.3331    7.0718   -0.2976 H   0  0  0  0  0  0  0  0  0  0  0  0
   -0.6959    6.2359    1.4100 C   0  0  0  0  0  0  0  0  0  0  0  0
   -1.4815    5.2751    0.5546 C   0  0  0  0  0  0  0  0  0  0  0  0
   -1.4478    4.0688    0.6589 O   0  0  0  0  0  0  0  0  0  0  0  0
   -2.2068    5.9053   -0.3780 O   0  0  0  0  0  0  0  0  0  0  0  0
    1.2878    7.7793    1.4579 C   0  0  0  0  0  0  0  0  0  0  0  0
    0.7040    8.5603    2.1674 O   0  0  0  0  0  0  0  0  0  0  0  0
    2.6093    7.8320    1.2373 O   0  0  0  0  0  0  0  0  0  0  0  0
    1.0344    2.4464    1.2144 C   0  0  0  0  0  0  0  0  0  0  0  0
    1.7076    3.1645    1.9472 O   0  0  0  0  0  0  0  0  0  0  0  0
    0.0126    1.6667    1.6918 N   0  0  0  0  0  0  0  0  0  0  0  0
   -0.7380    0.8297    0.8200 C   0  0  0  0  0  0  0  0  0  0  0  0
   -2.1386    0.8614    0.8267 C   0  0  0  0  0  0  0  0  0  0  0  0
   -2.8714    0.0349   -0.0198 C   0  0  0  0  0  0  0  0  0  0  0  0
   -2.1971   -0.8180   -0.8979 C   0  0  0  0  0  0  0  0  0  0  0  0
   -3.1081   -1.8580   -1.9645 Cl  0  0  0  0  0  0  0  0  0  0  0  0
   -0.8040   -0.8442   -0.9332 C   0  0  0  0  0  0  0  0  0  0  0  0
   -0.4078    1.8630    3.0811 C   0  0  0  0  0  0  0  0  0  0  0  0
    0.0140    0.7547    4.0722 C   0  0  0  0  0  0  0  0  0  0  0  0
   -0.3977    1.2377    5.4727 C   0  0  0  0  0  0  0  0  0  0  0  0
   -0.7062   -0.5674    3.7632 C   0  0  0  0  0  0  0  0  0  0  0  0
    1.5349    0.5473    4.0284 C   0  0  0  0  0  0  0  0  0  0  0  0
    2.6624   -0.0352   -2.4956 H   0  0  0  0  0  0  0  0  0  0  0  0
    3.6711   -1.9653   -3.7244 H   0  0  0  0  0  0  0  0  0  0  0  0
    3.6569   -4.2320   -2.7044 H   0  0  0  0  0  0  0  0  0  0  0  0
    3.0649   -5.7197   -0.8429 H   0  0  0  0  0  0  0  0  0  0  0  0
    2.0446   -6.0807    1.3913 H   0  0  0  0  0  0  0  0  0  0  0  0
    1.0326   -4.1520    2.6248 H   0  0  0  0  0  0  0  0  0  0  0  0
    1.0321   -1.9104    1.6427 H   0  0  0  0  0  0  0  0  0  0  0  0
    3.0565    3.5814   -0.1908 H   0  0  0  0  0  0  0  0  0  0  0  0
    2.3974    3.3397   -1.8421 H   0  0  0  0  0  0  0  0  0  0  0  0
    1.8697    5.0245    1.2075 H   0  0  0  0  0  0  0  0  0  0  0  0
   -1.2864    7.1373    1.6187 H   0  0  0  0  0  0  0  0  0  0  0  0
   -0.4488    5.7357    2.3561 H   0  0  0  0  0  0  0  0  0  0  0  0
   -2.5738    5.2252   -0.9688 H   0  0  0  0  0  0  0  0  0  0  0  0
    2.9431    8.5970    1.7375 H   0  0  0  0  0  0  0  0  0  0  0  0
   -2.6604    1.5598    1.4786 H   0  0  0  0  0  0  0  0  0  0  0  0
   -3.9617    0.0586   -0.0143 H   0  0  0  0  0  0  0  0  0  0  0  0
   -0.2907   -1.5110   -1.6252 H   0  0  0  0  0  0  0  0  0  0  0  0
   -1.4999    1.9808    3.1051 H   0  0  0  0  0  0  0  0  0  0  0  0
    0.0338    2.8146    3.3986 H   0  0  0  0  0  0  0  0  0  0  0  0
    0.1216    2.1717    5.7407 H   0  0  0  0  0  0  0  0  0  0  0  0
   -0.1479    0.4821    6.2340 H   0  0  0  0  0  0  0  0  0  0  0  0
   -1.4829    1.4243    5.5293 H   0  0  0  0  0  0  0  0  0  0  0  0
   -0.4241   -1.3397    4.4967 H   0  0  0  0  0  0  0  0  0  0  0  0
   -0.4559   -0.9481    2.7633 H   0  0  0  0  0  0  0  0  0  0  0  0
   -1.8006   -0.4466    3.8024 H   0  0  0  0  0  0  0  0  0  0  0  0
    1.8586    0.1631    3.0496 H   0  0  0  0  0  0  0  0  0  0  0  0
    1.8470   -0.1843    4.7904 H   0  0  0  0  0  0  0  0  0  0  0  0
    2.0724    1.4905    4.2045 H   0  0  0  0  0  0  0  0  0  0  0  0
  1  2  1  0
  1 33  2  0
  1 38  1  0
  2  3  1  1
  2  4  1  0
  2 14  1  0
  4  5  2  0
  4 13  1  0
  5  6  1  0
  5 44  1  0
  6  7  2  0
  6 45  1  0
  7  8  1  0
  7 46  1  0
  8  9  1  0
  8 13  2  0
  9 10  2  0
  9 47  1  0
 10 11  1  0
 10 48  1  0
 11 12  2  0
 11 49  1  0
 12 13  1  0
 12 50  1  0
 14 15  1  0
 15 16  1  6
 15 17  1  0
 15 30  1  0
 17 18  1  0
 17 51  1  0
 17 52  1  0
 18 19  2  0
 18 20  1  0
 20 21  1  0
 20 53  1  0
 21 22  1  6
 21 23  1  0
 21 27  1  0
 23 24  1  0
 23 54  1  0
 23 55  1  0
 24 25  2  0
 24 26  1  0
 26 56  1  0
 27 28  2  0
 27 29  1  0
 29 57  1  0
 30 31  2  0
 30 32  1  0
 32 33  1  0
 32 39  1  0
 33 34  1  0
 34 35  2  0
 34 58  1  0
 35 36  1  0
 35 59  1  0
 36 37  1  0
 36 38  2  0
 38 60  1  0
 40 39  1  0
 39 61  1  0
 39 62  1  0
 40 41  1  0
 40 42  1  0
 40 43  1  0
 41 63  1  0
 41 64  1  0
 41 65  1  0
 42 66  1  0
 42 67  1  0
 42 68  1  0
 43 69  1  0
 43 70  1  0
 43 71  1  0
M  END

