46

N          0.09090        0.14450       -0.02590
C          1.40600        0.06890        0.01930
N          1.80730        0.02500        1.34810
C          0.62980        0.08250        2.07570
N         -0.38890        0.15640        1.25360
C          0.55250        0.13200        3.56630
C          0.99080        1.47960        4.15740
C          3.12650        0.03770        1.88160
C          3.93210        1.17700        1.73560
C          5.22120        1.19100        2.24910
C          5.72770        0.06910        2.93120
C          4.92090       -1.06860        3.08360
C          3.62770       -1.07790        2.55130
O          6.99210        0.17870        3.40060
C          7.56250       -0.90760        4.09540
C          2.27620        0.04620       -1.15910
C          1.76470        0.54500       -2.37220
C          2.51690        0.53870       -3.53780
C          3.83950        0.02680       -3.55320
C          4.34380       -0.49270       -2.33660
C          3.57840       -0.48170       -1.17470
N          4.59940        0.03140       -4.70550
C          4.02840        0.50840       -5.94590
C          5.92570       -0.54360       -4.69710
H          1.15570       -0.67980        4.00530
H         -0.49800       -0.06950        3.82150
H          2.04830        1.69110        3.93700
H          0.86740        1.48280        5.25170
H          0.38550        2.29920        3.74090
H          3.53630        2.04490        1.20590
H          5.86520        2.06520        2.14120
H          5.28710       -1.95270        3.60400
H          3.00390       -1.96850        2.64730
H          8.57650       -0.59900        4.38080
H          7.62660       -1.81030        3.46170
H          6.99160       -1.15420        5.00850
H          0.74690        0.93810       -2.37940
H          2.07040        0.93940       -4.44640
H          5.34430       -0.91980       -2.29190
H          4.01000       -0.91210       -0.27200
H          3.70640        1.56280       -5.87290
H          3.14940       -0.08510       -6.26140
H          4.78130        0.44440       -6.74160
H          6.58550       -0.04470       -3.96440
H          6.38060       -0.42630       -5.68880
H          5.91720       -1.62320       -4.45290
