46
rmsd126.gzmat
N          0.00000        0.00000        0.00000
C          1.35340        0.00000        0.00000
N          1.77440        0.00000        1.34600
C          0.60080        0.01080        2.11840
N         -0.44740        0.00660        1.26480
C          0.54450        0.05390        3.59600
C          0.94990        1.43780        4.10730
C          3.11330        0.03880        1.80900
C          3.92990        1.11880        1.45870
C          5.24840        1.15900        1.89980
C          5.72620        0.11400        2.69200
C          4.91400       -0.97970        3.04180
C          3.60500       -1.01600        2.59370
O          6.97980        0.01930        3.20340
C          7.88440        1.07580        2.90990
C          2.24440        0.01810       -1.14030
C          1.97770        0.88350       -2.20640
C          2.83530        0.94460       -3.29380
C          3.99160        0.13580       -3.34000
C          4.22800       -0.76640       -2.27940
C          3.36270       -0.81960       -1.19820
N          4.94470        0.30940       -4.35300
C          4.49350        0.95320       -5.59730
C          5.88030       -0.80120       -4.59480
H          1.19300       -0.72940        4.04270
H         -0.49240       -0.18830        3.93190
H          1.98110        1.68620        3.82850
H          0.87710        1.49470        5.19870
H          0.30060        2.21970        3.69150
H          3.53530        1.92060        0.83040
H          5.88300        1.99380        1.61880
H          5.32500       -1.78110        3.65240
H          2.95950       -1.86050        2.83880
H          8.78960        0.75890        3.44630
H          7.52010        2.02780        3.30840
H          8.07780        1.13660        1.83420
H          1.08140        1.50940       -2.17940
H          2.60300        1.62720       -4.10490
H          5.09090       -1.42380       -2.29130
H          3.55530       -1.52400       -0.38680
H          4.17450        1.98920       -5.37820
H          3.66180        0.42090       -6.08710
H          5.32930        1.02860       -6.31220
H          6.53150       -0.92770       -3.71020
H          6.54440       -0.56590       -5.44290
H          5.37550       -1.75820       -4.80640
