46
rmsd127.gzmat
N          0.00000        0.00000        0.00000
C          1.35360        0.00000        0.00000
N          1.77420        0.00000        1.34610
C          0.60060        0.00990        2.11820
N         -0.44760        0.00570        1.26450
C          0.54380        0.04670        3.59600
C          0.96900        1.42170        4.11660
C          3.11200        0.05430        1.81050
C          3.91450        1.14490        1.46000
C          5.23420        1.19970        1.89570
C          5.72710        0.15860        2.68390
C          4.92790       -0.94360        3.03740
C          3.61740       -0.99440        2.59470
O          6.98390        0.07660        3.18970
C          7.88460        1.12900        2.86930
C          2.24160        0.00760       -1.14270
C          1.96010        0.84580       -2.22680
C          2.80520        0.88300       -3.32490
C          3.96270        0.07530       -3.36610
C          4.22040       -0.79050       -2.28050
C          3.36750       -0.81990       -1.18840
N          4.89410        0.21600       -4.40530
C          4.40090        0.76950       -5.67760
C          5.85110       -0.88520       -4.60310
H          1.17850       -0.74960        4.03890
H         -0.49810       -0.17780        3.92810
H          2.00170        1.66080        3.83460
H          0.90290        1.47000        5.20890
H          0.32510        2.21340        3.70960
H          3.50710        1.94340        0.83560
H          5.85750        2.04310        1.61410
H          5.35070       -1.74050        3.64600
H          2.98250       -1.84650        2.84170
H          8.79490        0.82430        3.40400
H          7.52140        2.08770        3.25250
H          8.06940        1.16890        1.79110
H          1.06020        1.46740       -2.20370
H          2.56350        1.54620       -4.14940
H          5.08850       -1.44140       -2.28240
H          3.57490       -1.49980       -0.35990
H          4.08370        1.81720       -5.52200
H          3.55860        0.19890       -6.10270
H          5.21210        0.79600       -6.42350
H          6.49640       -0.97270       -3.70970
H          6.51980       -0.66130       -5.45080
H          5.36500       -1.85660       -4.79030
