46
rmsd116.gzmat
N          0.00000        0.00000        0.00000
C          1.35340        0.00000        0.00000
N          1.77490        0.00000        1.34650
C          0.60060        0.00850        2.11840
N         -0.44730        0.00550        1.26440
C          0.53400        0.02690        3.59630
C          1.10040        1.33230        4.15670
C          3.11200        0.07020        1.81090
C          3.92180        1.13850        1.41050
C          5.23730        1.21340        1.85580
C          5.71910        0.21560        2.70420
C          4.91400       -0.86490        3.10690
C          3.60850       -0.93780        2.65260
O          6.97080        0.15780        3.22550
C          7.87470        1.19440        2.86550
C          2.23950       -0.00020       -1.14400
C          1.94740        0.81500       -2.24330
C          2.79380        0.84490       -3.34030
C          3.96420        0.05450       -3.36290
C          4.23050       -0.79220       -2.26510
C          3.37440       -0.81610       -1.17530
N          4.89200        0.20360       -4.40310
C          4.36310        0.63190       -5.70920
C          5.95000       -0.81230       -4.51680
H          1.07110       -0.84510        4.02670
H         -0.52990       -0.09240        3.91410
H          2.15300        1.46920        3.87950
H          1.04020        1.35260        5.25040
H          0.54700        2.20080        3.77730
H          3.52380        1.90460        0.74080
H          5.86630        2.03830        1.53420
H          5.32830       -1.62830        3.76290
H          2.96930       -1.77450        2.93780
H          8.78870        0.89730        3.39810
H          7.52040        2.16440        3.22840
H          8.04970        1.20650        1.78500
H          1.04020        1.42590       -2.23240
H          2.54960        1.49270       -4.17630
H          5.10400       -1.43560       -2.25590
H          3.58670       -1.48290       -0.33730
H          4.04540        1.68870       -5.63910
H          3.50890        0.02570       -6.05290
H          5.14790        0.58830       -6.48130
H          6.56120       -0.80630       -3.59490
H          6.63130       -0.55770       -5.34580
H          5.56350       -1.83120       -4.68300
