
     RDKit          3D

 46 48  0  0  0  0  0  0  0  0999 V2000
    0.1268    0.5853   -0.1119 N   0  0  0  0  0  0  0  0  0  0  0  0
    1.4337    0.4181   -0.0773 C   0  0  0  0  0  0  0  0  0  0  0  0
    1.8498    0.4082    1.2477 N   0  0  0  0  0  0  0  0  0  0  0  0
    0.6894    0.5799    1.9846 C   0  0  0  0  0  0  0  0  0  0  0  0
   -0.3338    0.6820    1.1711 N   0  0  0  0  0  0  0  0  0  0  0  0
    0.6193    0.5688    3.4763 C   0  0  0  0  0  0  0  0  0  0  0  0
    0.8123   -0.8265    4.0876 C   0  0  0  0  0  0  0  0  0  0  0  0
    3.1495    0.1589    1.7708 C   0  0  0  0  0  0  0  0  0  0  0  0
    3.8540    1.1700    2.4232 C   0  0  0  0  0  0  0  0  0  0  0  0
    5.1290    0.9286    2.9446 C   0  0  0  0  0  0  0  0  0  0  0  0
    5.7118   -0.3394    2.7983 C   0  0  0  0  0  0  0  0  0  0  0  0
    5.0007   -1.3558    2.1338 C   0  0  0  0  0  0  0  0  0  0  0  0
    3.7308   -1.1103    1.6312 C   0  0  0  0  0  0  0  0  0  0  0  0
    6.9396   -0.6746    3.2578 O   0  0  0  0  0  0  0  0  0  0  0  0
    7.7073    0.2955    3.9342 C   0  0  0  0  0  0  0  0  0  0  0  0
    2.2819    0.2610   -1.2613 C   0  0  0  0  0  0  0  0  0  0  0  0
    1.6781   -0.1631   -2.4603 C   0  0  0  0  0  0  0  0  0  0  0  0
    2.4084   -0.3151   -3.6299 C   0  0  0  0  0  0  0  0  0  0  0  0
    3.8009   -0.0481   -3.6639 C   0  0  0  0  0  0  0  0  0  0  0  0
    4.4014    0.3980   -2.4618 C   0  0  0  0  0  0  0  0  0  0  0  0
    3.6573    0.5474   -1.2956 C   0  0  0  0  0  0  0  0  0  0  0  0
    4.5369   -0.2119   -4.8201 N   0  0  0  0  0  0  0  0  0  0  0  0
    3.8782   -0.6045   -6.0466 C   0  0  0  0  0  0  0  0  0  0  0  0
    5.9443    0.1180   -4.8320 C   0  0  0  0  0  0  0  0  0  0  0  0
   -0.3746    0.9615    3.7352 H   0  0  0  0  0  0  0  0  0  0  0  0
    1.3640    1.2646    3.8970 H   0  0  0  0  0  0  0  0  0  0  0  0
    0.0642   -1.5292    3.6898 H   0  0  0  0  0  0  0  0  0  0  0  0
    0.7016   -0.7899    5.1826 H   0  0  0  0  0  0  0  0  0  0  0  0
    1.8116   -1.2297    3.8632 H   0  0  0  0  0  0  0  0  0  0  0  0
    3.4056    2.1611    2.5140 H   0  0  0  0  0  0  0  0  0  0  0  0
    5.6567    1.7355    3.4515 H   0  0  0  0  0  0  0  0  0  0  0  0
    5.4721   -2.3345    2.0304 H   0  0  0  0  0  0  0  0  0  0  0  0
    3.1768   -1.8960    1.1150 H   0  0  0  0  0  0  0  0  0  0  0  0
    8.6507   -0.1910    4.2139 H   0  0  0  0  0  0  0  0  0  0  0  0
    7.2017    0.6519    4.8496 H   0  0  0  0  0  0  0  0  0  0  0  0
    7.9287    1.1647    3.2892 H   0  0  0  0  0  0  0  0  0  0  0  0
    0.6066   -0.3682   -2.4532 H   0  0  0  0  0  0  0  0  0  0  0  0
    1.8891   -0.6482   -4.5271 H   0  0  0  0  0  0  0  0  0  0  0  0
    5.4623    0.6404   -2.4321 H   0  0  0  0  0  0  0  0  0  0  0  0
    4.1670    0.9120   -0.4047 H   0  0  0  0  0  0  0  0  0  0  0  0
    3.1157    0.1295   -6.3695 H   0  0  0  0  0  0  0  0  0  0  0  0
    3.3745   -1.5831   -5.9490 H   0  0  0  0  0  0  0  0  0  0  0  0
    4.6227   -0.6916   -6.8479 H   0  0  0  0  0  0  0  0  0  0  0  0
    6.1301    1.1868   -4.6124 H   0  0  0  0  0  0  0  0  0  0  0  0
    6.3617   -0.0995   -5.8233 H   0  0  0  0  0  0  0  0  0  0  0  0
    6.5118   -0.4746   -4.0919 H   0  0  0  0  0  0  0  0  0  0  0  0
  1  2  2  0
  1  5  1  0
  2  3  1  0
  2 16  1  0
  3  4  1  0
  3  8  1  0
  4  5  2  0
  4  6  1  0
  6  7  1  0
  6 25  1  0
  6 26  1  0
  7 27  1  0
  7 28  1  0
  7 29  1  0
  8  9  2  0
  8 13  1  0
  9 10  1  0
  9 30  1  0
 10 11  2  0
 10 31  1  0
 11 12  1  0
 11 14  1  0
 12 13  2  0
 12 32  1  0
 13 33  1  0
 14 15  1  0
 15 34  1  0
 15 35  1  0
 15 36  1  0
 16 17  2  0
 16 21  1  0
 17 18  1  0
 17 37  1  0
 18 19  2  0
 18 38  1  0
 19 20  1  0
 19 22  1  0
 20 21  2  0
 20 39  1  0
 21 40  1  0
 22 23  1  0
 22 24  1  0
 23 41  1  0
 23 42  1  0
 23 43  1  0
 24 44  1  0
 24 45  1  0
 24 46  1  0
M  END

