46
rmsd114.gzmat
N          0.00000        0.00000        0.00000
C          1.35350        0.00000        0.00000
N          1.77350        0.00000        1.34600
C          0.60050        0.00940        2.11830
N         -0.44760        0.00530        1.26480
C          0.55220        0.04780        3.59610
C          0.85850        1.45930        4.10300
C          3.11280        0.04980        1.80700
C          3.89510        1.17060        1.51180
C          5.22010        1.21730        1.93230
C          5.73790        0.13660        2.64780
C          4.95600       -0.99200        2.95310
C          3.63970       -1.03370        2.52700
O          7.00740        0.03580        3.11680
C          7.88180        1.12800        2.86590
C          2.24510        0.01250       -1.13990
C          1.97630        0.86930       -2.21210
C          2.82700        0.91460       -3.30600
C          3.97510        0.09450       -3.35440
C          4.22010       -0.78960       -2.28040
C          3.36340       -0.82450       -1.19190
N          4.91590        0.23410       -4.38490
C          4.46500        0.89910       -5.61840
C          5.79800       -0.91500       -4.64850
H          1.26370       -0.68330        4.03600
H         -0.46110       -0.26810        3.94110
H          1.85900        1.78920        3.79740
H          0.81110        1.50750        5.19650
H          0.13710        2.18710        3.70720
H          3.46810        1.99910        0.94290
H          5.82850        2.08410        1.69280
H          5.39640       -1.81540        3.51190
H          3.01650       -1.90390        2.73820
H          8.81100        0.79520        3.34850
H          7.51210        2.04200        3.34050
H          8.03760        1.26520        1.79140
H          1.08240        1.49920       -2.18430
H          2.59330        1.59160       -4.12130
H          5.08500       -1.44510       -2.28790
H          3.56330       -1.51460       -0.36990
H          4.23370        1.95720       -5.39480
H          3.57660        0.42660       -6.06890
H          5.27250        0.90520       -6.36870
H          6.45020       -1.08480       -3.77240
H          6.46630       -0.69820       -5.49820
H          5.24670       -1.84410       -4.86730
