rmsd126.gzmat
 OpenBabel08211713383D

 46 48  0  0  0  0  0  0  0  0999 V2000
    0.0000    0.0000    0.0000 N   0  0  0  0  0  0  0  0  0  0  0  0
    1.3534    0.0000    0.0000 C   0  0  0  0  0  0  0  0  0  0  0  0
    1.7744    0.0000    1.3460 N   0  0  0  0  0  0  0  0  0  0  0  0
    0.6008    0.0108    2.1184 C   0  0  0  0  0  0  0  0  0  0  0  0
   -0.4474    0.0066    1.2648 N   0  0  0  0  0  0  0  0  0  0  0  0
    0.5445    0.0539    3.5960 C   0  0  0  0  0  0  0  0  0  0  0  0
    0.9499    1.4378    4.1073 C   0  0  0  0  0  0  0  0  0  0  0  0
    3.1133    0.0388    1.8090 C   0  0  0  0  0  0  0  0  0  0  0  0
    3.9299    1.1188    1.4587 C   0  0  0  0  0  0  0  0  0  0  0  0
    5.2484    1.1590    1.8998 C   0  0  0  0  0  0  0  0  0  0  0  0
    5.7262    0.1140    2.6920 C   0  0  0  0  0  0  0  0  0  0  0  0
    4.9140   -0.9797    3.0418 C   0  0  0  0  0  0  0  0  0  0  0  0
    3.6050   -1.0160    2.5937 C   0  0  0  0  0  0  0  0  0  0  0  0
    6.9798    0.0193    3.2034 O   0  0  0  0  0  0  0  0  0  0  0  0
    7.8844    1.0758    2.9099 C   0  0  0  0  0  0  0  0  0  0  0  0
    2.2444    0.0181   -1.1403 C   0  0  0  0  0  0  0  0  0  0  0  0
    1.9777    0.8835   -2.2064 C   0  0  0  0  0  0  0  0  0  0  0  0
    2.8353    0.9446   -3.2938 C   0  0  0  0  0  0  0  0  0  0  0  0
    3.9916    0.1358   -3.3400 C   0  0  0  0  0  0  0  0  0  0  0  0
    4.2280   -0.7664   -2.2794 C   0  0  0  0  0  0  0  0  0  0  0  0
    3.3627   -0.8196   -1.1982 C   0  0  0  0  0  0  0  0  0  0  0  0
    4.9447    0.3094   -4.3530 N   0  0  0  0  0  0  0  0  0  0  0  0
    4.4935    0.9532   -5.5973 C   0  0  0  0  0  0  0  0  0  0  0  0
    5.8803   -0.8012   -4.5948 C   0  0  0  0  0  0  0  0  0  0  0  0
    1.1930   -0.7294    4.0427 H   0  0  0  0  0  0  0  0  0  0  0  0
   -0.4924   -0.1883    3.9319 H   0  0  0  0  0  0  0  0  0  0  0  0
    1.9811    1.6862    3.8285 H   0  0  0  0  0  0  0  0  0  0  0  0
    0.8771    1.4947    5.1987 H   0  0  0  0  0  0  0  0  0  0  0  0
    0.3006    2.2197    3.6915 H   0  0  0  0  0  0  0  0  0  0  0  0
    3.5353    1.9206    0.8304 H   0  0  0  0  0  0  0  0  0  0  0  0
    5.8830    1.9938    1.6188 H   0  0  0  0  0  0  0  0  0  0  0  0
    5.3250   -1.7811    3.6524 H   0  0  0  0  0  0  0  0  0  0  0  0
    2.9595   -1.8605    2.8388 H   0  0  0  0  0  0  0  0  0  0  0  0
    8.7896    0.7589    3.4463 H   0  0  0  0  0  0  0  0  0  0  0  0
    7.5201    2.0278    3.3084 H   0  0  0  0  0  0  0  0  0  0  0  0
    8.0778    1.1366    1.8342 H   0  0  0  0  0  0  0  0  0  0  0  0
    1.0814    1.5094   -2.1794 H   0  0  0  0  0  0  0  0  0  0  0  0
    2.6030    1.6272   -4.1049 H   0  0  0  0  0  0  0  0  0  0  0  0
    5.0909   -1.4238   -2.2913 H   0  0  0  0  0  0  0  0  0  0  0  0
    3.5553   -1.5240   -0.3868 H   0  0  0  0  0  0  0  0  0  0  0  0
    4.1745    1.9892   -5.3782 H   0  0  0  0  0  0  0  0  0  0  0  0
    3.6618    0.4209   -6.0871 H   0  0  0  0  0  0  0  0  0  0  0  0
    5.3293    1.0286   -6.3122 H   0  0  0  0  0  0  0  0  0  0  0  0
    6.5315   -0.9277   -3.7102 H   0  0  0  0  0  0  0  0  0  0  0  0
    6.5444   -0.5659   -5.4429 H   0  0  0  0  0  0  0  0  0  0  0  0
    5.3755   -1.7582   -4.8064 H   0  0  0  0  0  0  0  0  0  0  0  0
  1  5  1  0  0  0  0
  2  1  2  0  0  0  0
  2  3  1  0  0  0  0
  3  8  1  0  0  0  0
  3  4  1  0  0  0  0
  4  6  1  0  0  0  0
  5  4  2  0  0  0  0
  6 26  1  0  0  0  0
  6 25  1  0  0  0  0
  6  7  1  0  0  0  0
  7 28  1  0  0  0  0
  8 13  1  0  0  0  0
  9  8  2  0  0  0  0
  9 10  1  0  0  0  0
 10 11  2  0  0  0  0
 11 12  1  0  0  0  0
 11 14  1  0  0  0  0
 12 32  1  0  0  0  0
 13 33  1  0  0  0  0
 13 12  2  0  0  0  0
 15 14  1  0  0  0  0
 15 35  1  0  0  0  0
 15 34  1  0  0  0  0
 16  2  1  0  0  0  0
 17 37  1  0  0  0  0
 17 16  2  0  0  0  0
 18 17  1  0  0  0  0
 19 18  2  0  0  0  0
 19 20  1  0  0  0  0
 20 21  2  0  0  0  0
 21 16  1  0  0  0  0
 21 40  1  0  0  0  0
 22 19  1  0  0  0  0
 23 41  1  0  0  0  0
 23 22  1  0  0  0  0
 24 22  1  0  0  0  0
 24 44  1  0  0  0  0
 27  7  1  0  0  0  0
 29  7  1  0  0  0  0
 30  9  1  0  0  0  0
 31 10  1  0  0  0  0
 36 15  1  0  0  0  0
 38 18  1  0  0  0  0
 39 20  1  0  0  0  0
 42 23  1  0  0  0  0
 43 23  1  0  0  0  0
 45 24  1  0  0  0  0
 46 24  1  0  0  0  0
M  END
$$$$
