46

N          0.12680        0.58530       -0.11190
C          1.43370        0.41810       -0.07730
N          1.84980        0.40820        1.24770
C          0.68940        0.57990        1.98460
N         -0.33380        0.68200        1.17110
C          0.61930        0.56880        3.47630
C          0.81230       -0.82650        4.08760
C          3.14950        0.15890        1.77080
C          3.85400        1.17000        2.42320
C          5.12900        0.92860        2.94460
C          5.71180       -0.33940        2.79830
C          5.00070       -1.35580        2.13380
C          3.73080       -1.11030        1.63120
O          6.93960       -0.67460        3.25780
C          7.70730        0.29550        3.93420
C          2.28190        0.26100       -1.26130
C          1.67810       -0.16310       -2.46030
C          2.40840       -0.31510       -3.62990
C          3.80090       -0.04810       -3.66390
C          4.40140        0.39800       -2.46180
C          3.65730        0.54740       -1.29560
N          4.53690       -0.21190       -4.82010
C          3.87820       -0.60450       -6.04660
C          5.94430        0.11800       -4.83200
H         -0.37460        0.96150        3.73520
H          1.36400        1.26460        3.89700
H          0.06420       -1.52920        3.68980
H          0.70160       -0.78990        5.18260
H          1.81160       -1.22970        3.86320
H          3.40560        2.16110        2.51400
H          5.65670        1.73550        3.45150
H          5.47210       -2.33450        2.03040
H          3.17680       -1.89600        1.11500
H          8.65070       -0.19100        4.21390
H          7.20170        0.65190        4.84960
H          7.92870        1.16470        3.28920
H          0.60660       -0.36820       -2.45320
H          1.88910       -0.64820       -4.52710
H          5.46230        0.64040       -2.43210
H          4.16700        0.91200       -0.40470
H          3.11570        0.12950       -6.36950
H          3.37450       -1.58310       -5.94900
H          4.62270       -0.69160       -6.84790
H          6.13010        1.18680       -4.61240
H          6.36170       -0.09950       -5.82330
H          6.51180       -0.47460       -4.09190
