rmsd114.gzmat
 OpenBabel08211713383D

 46 48  0  0  0  0  0  0  0  0999 V2000
    0.0000    0.0000    0.0000 N   0  0  0  0  0  0  0  0  0  0  0  0
    1.3535    0.0000    0.0000 C   0  0  0  0  0  0  0  0  0  0  0  0
    1.7735    0.0000    1.3460 N   0  0  0  0  0  0  0  0  0  0  0  0
    0.6005    0.0094    2.1183 C   0  0  0  0  0  0  0  0  0  0  0  0
   -0.4476    0.0053    1.2648 N   0  0  0  0  0  0  0  0  0  0  0  0
    0.5522    0.0478    3.5961 C   0  0  0  0  0  0  0  0  0  0  0  0
    0.8585    1.4593    4.1030 C   0  0  0  0  0  0  0  0  0  0  0  0
    3.1128    0.0498    1.8070 C   0  0  0  0  0  0  0  0  0  0  0  0
    3.8951    1.1706    1.5118 C   0  0  0  0  0  0  0  0  0  0  0  0
    5.2201    1.2173    1.9323 C   0  0  0  0  0  0  0  0  0  0  0  0
    5.7379    0.1366    2.6478 C   0  0  0  0  0  0  0  0  0  0  0  0
    4.9560   -0.9920    2.9531 C   0  0  0  0  0  0  0  0  0  0  0  0
    3.6397   -1.0337    2.5270 C   0  0  0  0  0  0  0  0  0  0  0  0
    7.0074    0.0358    3.1168 O   0  0  0  0  0  0  0  0  0  0  0  0
    7.8818    1.1280    2.8659 C   0  0  0  0  0  0  0  0  0  0  0  0
    2.2451    0.0125   -1.1399 C   0  0  0  0  0  0  0  0  0  0  0  0
    1.9763    0.8693   -2.2121 C   0  0  0  0  0  0  0  0  0  0  0  0
    2.8270    0.9146   -3.3060 C   0  0  0  0  0  0  0  0  0  0  0  0
    3.9751    0.0945   -3.3544 C   0  0  0  0  0  0  0  0  0  0  0  0
    4.2201   -0.7896   -2.2804 C   0  0  0  0  0  0  0  0  0  0  0  0
    3.3634   -0.8245   -1.1919 C   0  0  0  0  0  0  0  0  0  0  0  0
    4.9159    0.2341   -4.3849 N   0  0  0  0  0  0  0  0  0  0  0  0
    4.4650    0.8991   -5.6184 C   0  0  0  0  0  0  0  0  0  0  0  0
    5.7980   -0.9150   -4.6485 C   0  0  0  0  0  0  0  0  0  0  0  0
    1.2637   -0.6833    4.0360 H   0  0  0  0  0  0  0  0  0  0  0  0
   -0.4611   -0.2681    3.9411 H   0  0  0  0  0  0  0  0  0  0  0  0
    1.8590    1.7892    3.7974 H   0  0  0  0  0  0  0  0  0  0  0  0
    0.8111    1.5075    5.1965 H   0  0  0  0  0  0  0  0  0  0  0  0
    0.1371    2.1871    3.7072 H   0  0  0  0  0  0  0  0  0  0  0  0
    3.4681    1.9991    0.9429 H   0  0  0  0  0  0  0  0  0  0  0  0
    5.8285    2.0841    1.6928 H   0  0  0  0  0  0  0  0  0  0  0  0
    5.3964   -1.8154    3.5119 H   0  0  0  0  0  0  0  0  0  0  0  0
    3.0165   -1.9039    2.7382 H   0  0  0  0  0  0  0  0  0  0  0  0
    8.8110    0.7952    3.3485 H   0  0  0  0  0  0  0  0  0  0  0  0
    7.5121    2.0420    3.3405 H   0  0  0  0  0  0  0  0  0  0  0  0
    8.0376    1.2652    1.7914 H   0  0  0  0  0  0  0  0  0  0  0  0
    1.0824    1.4992   -2.1843 H   0  0  0  0  0  0  0  0  0  0  0  0
    2.5933    1.5916   -4.1213 H   0  0  0  0  0  0  0  0  0  0  0  0
    5.0850   -1.4451   -2.2879 H   0  0  0  0  0  0  0  0  0  0  0  0
    3.5633   -1.5146   -0.3699 H   0  0  0  0  0  0  0  0  0  0  0  0
    4.2337    1.9572   -5.3948 H   0  0  0  0  0  0  0  0  0  0  0  0
    3.5766    0.4266   -6.0689 H   0  0  0  0  0  0  0  0  0  0  0  0
    5.2725    0.9052   -6.3687 H   0  0  0  0  0  0  0  0  0  0  0  0
    6.4502   -1.0848   -3.7724 H   0  0  0  0  0  0  0  0  0  0  0  0
    6.4663   -0.6982   -5.4982 H   0  0  0  0  0  0  0  0  0  0  0  0
    5.2467   -1.8441   -4.8673 H   0  0  0  0  0  0  0  0  0  0  0  0
  1  5  1  0  0  0  0
  2  1  2  0  0  0  0
  2  3  1  0  0  0  0
  3  8  1  0  0  0  0
  3  4  1  0  0  0  0
  4  6  1  0  0  0  0
  5  4  2  0  0  0  0
  6 26  1  0  0  0  0
  6 25  1  0  0  0  0
  6  7  1  0  0  0  0
  7 28  1  0  0  0  0
  8 13  1  0  0  0  0
  9  8  2  0  0  0  0
  9 10  1  0  0  0  0
 10 11  2  0  0  0  0
 11 12  1  0  0  0  0
 11 14  1  0  0  0  0
 12 32  1  0  0  0  0
 13 33  1  0  0  0  0
 13 12  2  0  0  0  0
 15 14  1  0  0  0  0
 15 35  1  0  0  0  0
 15 34  1  0  0  0  0
 16  2  1  0  0  0  0
 17 37  1  0  0  0  0
 17 16  2  0  0  0  0
 18 17  1  0  0  0  0
 19 18  2  0  0  0  0
 19 20  1  0  0  0  0
 20 21  2  0  0  0  0
 21 16  1  0  0  0  0
 21 40  1  0  0  0  0
 22 19  1  0  0  0  0
 23 41  1  0  0  0  0
 23 22  1  0  0  0  0
 24 22  1  0  0  0  0
 24 44  1  0  0  0  0
 27  7  1  0  0  0  0
 29  7  1  0  0  0  0
 30  9  1  0  0  0  0
 31 10  1  0  0  0  0
 36 15  1  0  0  0  0
 38 18  1  0  0  0  0
 39 20  1  0  0  0  0
 42 23  1  0  0  0  0
 43 23  1  0  0  0  0
 45 24  1  0  0  0  0
 46 24  1  0  0  0  0
M  END
$$$$
