46
rmsd12.gzmat
N          0.00000        0.00000        0.00000
C          1.35400        0.00000        0.00000
N          1.77350        0.00000        1.34690
C          0.59980        0.00900        2.11910
N         -0.44790        0.00550        1.26410
C          0.53550        0.02420        3.59730
C          1.07470        1.34080        4.15940
C          3.11220        0.07280        1.80620
C          3.89730        1.17300        1.44520
C          5.22050        1.24520        1.86730
C          5.73480        0.21060        2.65080
C          4.95150       -0.89800        3.01910
C          3.63640       -0.96510        2.59200
O          7.00080        0.14070        3.13520
C          7.88150        1.20850        2.81030
C          2.23740        0.00080       -1.14720
C          1.92210        0.79630       -2.25530
C          2.75440        0.82250       -3.36300
C          3.93720        0.05090       -3.38940
C          4.22900       -0.77350       -2.28200
C          3.38640       -0.79450       -1.18050
N          4.84820        0.20440       -4.44630
C          4.28020        0.52130       -5.76850
C          5.96140       -0.75440       -4.52670
H          1.09330       -0.83680        4.02430
H         -0.52530       -0.11780        3.91770
H          2.13140        1.48770        3.90400
H          0.99100        1.36900        5.25180
H          0.51740        2.19960        3.76250
H          3.47270        1.96480        0.82360
H          5.83000        2.09590        1.57750
H          5.38990       -1.68760        3.62620
H          3.01270       -1.82100        2.85370
H          8.81400        0.89580        3.30010
H          7.52480        2.15150        3.23640
H          8.02550        1.28270        1.72760
H          1.00630        1.39460       -2.24150
H          2.49150        1.45460       -4.20550
H          5.11060       -1.40610       -2.27630
H          3.62160       -1.44480       -0.33580
H          3.85870        1.54330       -5.74900
H          3.49090       -0.18190       -6.08140
H          5.06880        0.52150       -6.53890
H          6.56300       -0.69530       -3.60110
H          6.63590       -0.47740       -5.35480
H          5.63500       -1.79630       -4.67590
