46

N          0.13700        0.18480       -0.04170
C          1.45070        0.08890        0.00550
N          1.84980        0.04560        1.33490
C          0.67270        0.12390        2.06080
N         -0.34390        0.20980        1.23730
C          0.59540        0.17970        3.55120
C          1.04230        1.52700        4.13680
C          3.16880        0.04290        1.86900
C          3.98570        1.16490        1.72300
C          5.28640        1.16910        2.23110
C          5.77480        0.03950        2.90720
C          4.94740       -1.08730        3.05920
C          3.65870       -1.08650        2.53900
O          7.01530       -0.05580        3.43940
C          7.89830        1.03750        3.32140
C          2.32240        0.04570       -1.17120
C          1.82420        0.55180       -2.38670
C          2.57790        0.52440       -3.55120
C          3.88850       -0.01720       -3.56270
C          4.37910       -0.54410       -2.34360
C          3.61250       -0.51140       -1.18270
N          4.65010       -0.03420       -4.71420
C          4.08700        0.43980       -5.95940
C          5.95650       -0.65300       -4.70530
H          1.19370       -0.63400        3.99320
H         -0.45630       -0.01400        3.80770
H          2.10090        1.73070        3.91450
H          0.91990        1.53500        5.23120
H          0.44150        2.34860        3.71750
H          3.60030        2.03870        1.19510
H          5.90510        2.05540        2.09720
H          5.34680       -1.95630        3.58460
H          3.02290       -1.96840        2.63650
H          8.83180        0.74050        3.81680
H          7.49980        1.94040        3.81760
H          8.11270        1.27780        2.26480
H          0.81520        0.96680       -2.39720
H          2.14150        0.93090       -4.46210
H          5.36860       -0.99550       -2.29620
H          4.03270       -0.94920       -0.27810
H          3.77960        1.49890       -5.89480
H          3.20030       -0.14390       -6.27190
H          4.84030        0.36000       -6.75330
H          6.63100       -0.17710       -3.97080
H          6.41670       -0.54820       -5.69590
H          5.91290       -1.73230       -4.46310
