rmsd3.gzmat
 OpenBabel08211713383D

 46 48  0  0  0  0  0  0  0  0999 V2000
    0.0000    0.0000    0.0000 N   0  0  0  0  0  0  0  0  0  0  0  0
    1.3554    0.0000    0.0000 C   0  0  0  0  0  0  0  0  0  0  0  0
    1.7728    0.0000    1.3460 N   0  0  0  0  0  0  0  0  0  0  0  0
    0.5977    0.0087    2.1179 C   0  0  0  0  0  0  0  0  0  0  0  0
   -0.4493    0.0060    1.2632 N   0  0  0  0  0  0  0  0  0  0  0  0
    0.5393    0.0401    3.5960 C   0  0  0  0  0  0  0  0  0  0  0  0
    1.0372    1.3841    4.1307 C   0  0  0  0  0  0  0  0  0  0  0  0
    3.1047    0.0345    1.8287 C   0  0  0  0  0  0  0  0  0  0  0  0
    3.9167    1.1433    1.5350 C   0  0  0  0  0  0  0  0  0  0  0  0
    5.2136    1.1832    2.0142 C   0  0  0  0  0  0  0  0  0  0  0  0
    5.6885    0.1091    2.7898 C   0  0  0  0  0  0  0  0  0  0  0  0
    4.8905   -0.9986    3.0774 C   0  0  0  0  0  0  0  0  0  0  0  0
    3.5886   -1.0346    2.5862 C   0  0  0  0  0  0  0  0  0  0  0  0
    6.9689    0.2889    3.2021 O   0  0  0  0  0  0  0  0  0  0  0  0
    7.5586   -0.7530    3.9683 C   0  0  0  0  0  0  0  0  0  0  0  0
    2.2280    0.0161   -1.1541 C   0  0  0  0  0  0  0  0  0  0  0  0
    1.8454    0.7548   -2.2810 C   0  0  0  0  0  0  0  0  0  0  0  0
    2.6555    0.7976   -3.4037 C   0  0  0  0  0  0  0  0  0  0  0  0
    3.8855    0.1033   -3.4263 C   0  0  0  0  0  0  0  0  0  0  0  0
    4.2512   -0.6589   -2.2958 C   0  0  0  0  0  0  0  0  0  0  0  0
    3.4268   -0.7013   -1.1817 C   0  0  0  0  0  0  0  0  0  0  0  0
    4.7662    0.2698   -4.5039 N   0  0  0  0  0  0  0  0  0  0  0  0
    4.1678    0.6025   -5.8076 C   0  0  0  0  0  0  0  0  0  0  0  0
    5.8870   -0.6767   -4.6156 C   0  0  0  0  0  0  0  0  0  0  0  0
    1.1288   -0.7932    4.0337 H   0  0  0  0  0  0  0  0  0  0  0  0
   -0.5133   -0.1329    3.9251 H   0  0  0  0  0  0  0  0  0  0  0  0
    2.0808    1.5703    3.8485 H   0  0  0  0  0  0  0  0  0  0  0  0
    0.9770    1.4235    5.2238 H   0  0  0  0  0  0  0  0  0  0  0  0
    0.4377    2.2149    3.7353 H   0  0  0  0  0  0  0  0  0  0  0  0
    3.5222    1.9594    0.9248 H   0  0  0  0  0  0  0  0  0  0  0  0
    5.8704    2.0257    1.8024 H   0  0  0  0  0  0  0  0  0  0  0  0
    5.2615   -1.8267    3.6725 H   0  0  0  0  0  0  0  0  0  0  0  0
    2.9497   -1.8953    2.7892 H   0  0  0  0  0  0  0  0  0  0  0  0
    8.5665   -0.3583    4.1578 H   0  0  0  0  0  0  0  0  0  0  0  0
    7.6144   -1.6800    3.3892 H   0  0  0  0  0  0  0  0  0  0  0  0
    7.0236   -0.8963    4.9121 H   0  0  0  0  0  0  0  0  0  0  0  0
    0.8932    1.2945   -2.2691 H   0  0  0  0  0  0  0  0  0  0  0  0
    2.3348    1.3814   -4.2607 H   0  0  0  0  0  0  0  0  0  0  0  0
    5.1792   -1.2207   -2.2792 H   0  0  0  0  0  0  0  0  0  0  0  0
    3.7179   -1.3073   -0.3220 H   0  0  0  0  0  0  0  0  0  0  0  0
    3.7317    1.6176   -5.7590 H   0  0  0  0  0  0  0  0  0  0  0  0
    3.3824   -0.1067   -6.1177 H   0  0  0  0  0  0  0  0  0  0  0  0
    4.9417    0.6285   -6.5918 H   0  0  0  0  0  0  0  0  0  0  0  0
    6.5432   -0.5694   -3.7317 H   0  0  0  0  0  0  0  0  0  0  0  0
    6.5046   -0.4303   -5.4954 H   0  0  0  0  0  0  0  0  0  0  0  0
    5.5657   -1.7277   -4.6985 H   0  0  0  0  0  0  0  0  0  0  0  0
  1  5  1  0  0  0  0
  2  1  2  0  0  0  0
  2  3  1  0  0  0  0
  3  8  1  0  0  0  0
  3  4  1  0  0  0  0
  4  6  1  0  0  0  0
  5  4  2  0  0  0  0
  6 26  1  0  0  0  0
  6 25  1  0  0  0  0
  6  7  1  0  0  0  0
  7 28  1  0  0  0  0
  8 13  1  0  0  0  0
  9  8  2  0  0  0  0
  9 10  1  0  0  0  0
 10 11  2  0  0  0  0
 11 12  1  0  0  0  0
 11 14  1  0  0  0  0
 12 32  1  0  0  0  0
 13 33  1  0  0  0  0
 13 12  2  0  0  0  0
 14 15  1  0  0  0  0
 15 34  1  0  0  0  0
 15 36  1  0  0  0  0
 16  2  1  0  0  0  0
 17 37  1  0  0  0  0
 17 16  2  0  0  0  0
 18 17  1  0  0  0  0
 19 18  2  0  0  0  0
 19 20  1  0  0  0  0
 20 39  1  0  0  0  0
 20 21  2  0  0  0  0
 21 16  1  0  0  0  0
 21 40  1  0  0  0  0
 22 19  1  0  0  0  0
 23 41  1  0  0  0  0
 23 22  1  0  0  0  0
 24 22  1  0  0  0  0
 24 44  1  0  0  0  0
 27  7  1  0  0  0  0
 29  7  1  0  0  0  0
 30  9  1  0  0  0  0
 31 10  1  0  0  0  0
 35 15  1  0  0  0  0
 38 18  1  0  0  0  0
 42 23  1  0  0  0  0
 43 23  1  0  0  0  0
 45 24  1  0  0  0  0
 46 24  1  0  0  0  0
M  END
$$$$
