rmsd1.gzmat
 OpenBabel08211713383D

 28 29  0  0  0  0  0  0  0  0999 V2000
    0.0000    0.0000    0.0000 Cl  0  0  0  0  0  0  0  0  0  0  0  0
    1.7082    0.0000    0.0000 C   0  0  0  0  0  0  0  0  0  0  0  0
    2.3758    0.0000    1.2183 C   0  0  0  0  0  0  0  0  0  0  0  0
    3.7686   -0.0060    1.2103 C   0  0  0  0  0  0  0  0  0  0  0  0
    4.4668   -0.0091   -0.0004 C   0  0  0  0  0  0  0  0  0  0  0  0
    3.7684   -0.0077   -1.2120 C   0  0  0  0  0  0  0  0  0  0  0  0
    2.3756   -0.0030   -1.2186 C   0  0  0  0  0  0  0  0  0  0  0  0
    5.9703   -0.0041   -0.0249 C   0  0  0  0  0  0  0  0  0  0  0  0
    6.3304   -0.5343   -0.9602 H   0  0  0  0  0  0  0  0  0  0  0  0
    6.5767   -0.7283    1.1451 C   0  0  0  0  0  0  0  0  0  0  0  0
    7.4817   -0.1156    2.0126 C   0  0  0  0  0  0  0  0  0  0  0  0
    8.0399   -0.8366    3.0681 C   0  0  0  0  0  0  0  0  0  0  0  0
    7.6807   -2.1677    3.2248 C   0  0  0  0  0  0  0  0  0  0  0  0
    8.3776   -3.0639    4.5024 Cl  0  0  0  0  0  0  0  0  0  0  0  0
    6.7808   -2.8043    2.3783 C   0  0  0  0  0  0  0  0  0  0  0  0
    6.2291   -2.0724    1.3320 C   0  0  0  0  0  0  0  0  0  0  0  0
    6.4585    1.4351   -0.1324 C   0  0  0  0  0  0  0  0  0  0  0  0
    7.2214    1.8415   -0.9613 O   0  0  0  0  0  0  0  0  0  0  0  0
    5.9944    2.3107    0.7942 O   0  0  0  0  0  0  0  0  0  0  0  0
    1.8302   -0.0006    2.1629 H   0  0  0  0  0  0  0  0  0  0  0  0
    4.3091   -0.0296    2.1582 H   0  0  0  0  0  0  0  0  0  0  0  0
    4.3101   -0.0074   -2.1597 H   0  0  0  0  0  0  0  0  0  0  0  0
    1.8293   -0.0012   -2.1630 H   0  0  0  0  0  0  0  0  0  0  0  0
    7.7759    0.9284    1.8768 H   0  0  0  0  0  0  0  0  0  0  0  0
    8.7460   -0.3574    3.7479 H   0  0  0  0  0  0  0  0  0  0  0  0
    6.5118   -3.8510    2.5229 H   0  0  0  0  0  0  0  0  0  0  0  0
    5.5192   -2.5496    0.6548 H   0  0  0  0  0  0  0  0  0  0  0  0
    5.3178    1.9484    1.4113 H   0  0  0  0  0  0  0  0  0  0  0  0
  2  1  1  0  0  0  0
  2  3  2  0  0  0  0
  3 20  1  0  0  0  0
  4  3  1  0  0  0  0
  4 21  1  0  0  0  0
  5  4  2  0  0  0  0
  6  5  1  0  0  0  0
  7  6  2  0  0  0  0
  7  2  1  0  0  0  0
  8  5  1  0  0  0  0
  8 10  1  0  0  0  0
  9  8  1  0  0  0  0
 10 16  2  0  0  0  0
 10 11  1  0  0  0  0
 11 12  2  0  0  0  0
 12 13  1  0  0  0  0
 12 25  1  0  0  0  0
 13 14  1  0  0  0  0
 15 26  1  0  0  0  0
 15 13  2  0  0  0  0
 16 15  1  0  0  0  0
 17  8  1  0  0  0  0
 17 19  1  0  0  0  0
 18 17  2  0  0  0  0
 19 28  1  0  0  0  0
 22  6  1  0  0  0  0
 23  7  1  0  0  0  0
 24 11  1  0  0  0  0
 27 16  1  0  0  0  0
M  END
$$$$
