28
rmsd201.gzmat
Cl         0.00000        0.00000        0.00000
C          1.70820        0.00000        0.00000
C          2.37550        0.00000        1.21790
C          3.76860       -0.00020        1.21010
C          4.46660       -0.00380       -0.00040
C          3.76800       -0.00510       -1.21190
C          2.37560       -0.00130       -1.21860
C          5.97060        0.01050       -0.03010
H          6.33100       -0.58040       -0.92780
C          6.58190       -0.62100        1.18970
C          7.39670        0.09120        2.07070
C          7.93000       -0.53660        3.19620
C          7.63720       -1.87590        3.40970
Cl         8.27790       -2.64700        4.79400
C          6.84170       -2.61530        2.54150
C          6.31470       -1.97610        1.42430
C          6.44430        1.44360       -0.23830
O          7.21800        1.79740       -1.08100
O          5.94630        2.37990        0.60910
H          1.82970       -0.00340        2.16220
H          4.30730       -0.01600        2.15950
H          4.31060       -0.00420       -2.15890
H          1.82790        0.00160       -2.16190
H          7.63780        1.14240        1.89350
H          8.56320        0.02140        3.88780
H          6.63080       -3.66900        2.72580
H          5.68300       -2.53360        0.73090
H          5.26940        2.05120        1.24460
