28
rmsd12.gzmat
Cl         0.00000        0.00000        0.00000
C          1.70840        0.00000        0.00000
C          2.37600        0.00000        1.21780
C          3.76890       -0.01220        1.21010
C          4.46770       -0.03080        0.00010
C          3.76890       -0.01810       -1.21120
C          2.37640       -0.00260       -1.21820
C          5.97190       -0.05540       -0.03160
H          6.31490       -0.62810       -0.94810
C          6.58660       -0.73830        1.15840
C          7.63060       -0.15960        1.88200
C          8.18100       -0.82680        2.97610
C          7.67300       -2.07220        3.31760
Cl         8.33580       -2.89350        4.66200
C          6.64620       -2.68130        2.60590
C          6.10970       -2.00630        1.51440
C          6.46890        1.37550       -0.19670
O          7.16000        1.76620       -1.09340
O          6.09770        2.26090        0.76160
H          1.82970        0.00460        2.16210
H          4.30700       -0.02710        2.15940
H          4.31170       -0.01690       -2.15790
H          1.82930        0.00700       -2.16180
H          8.03850        0.81510        1.60070
H          8.99490       -0.37270        3.54350
H          6.26540       -3.66240        2.89090
H          5.30890       -2.46840        0.93440
H          5.48570        1.90110        1.44500
