rmsd101.gzmat
 OpenBabel08211713383D

 28 29  0  0  0  0  0  0  0  0999 V2000
    0.0000    0.0000    0.0000 Cl  0  0  0  0  0  0  0  0  0  0  0  0
    1.7092    0.0000    0.0000 C   0  0  0  0  0  0  0  0  0  0  0  0
    2.3782    0.0000    1.2158 C   0  0  0  0  0  0  0  0  0  0  0  0
    3.7724   -0.0135    1.2088 C   0  0  0  0  0  0  0  0  0  0  0  0
    4.4702   -0.0298   -0.0005 C   0  0  0  0  0  0  0  0  0  0  0  0
    3.7675   -0.0084   -1.2111 C   0  0  0  0  0  0  0  0  0  0  0  0
    2.3764    0.0021   -1.2192 C   0  0  0  0  0  0  0  0  0  0  0  0
    5.9724   -0.0110   -0.0398 C   0  0  0  0  0  0  0  0  0  0  0  0
    6.2726    1.0398   -0.3430 H   0  0  0  0  0  0  0  0  0  0  0  0
    6.5740   -0.9943   -1.0055 C   0  0  0  0  0  0  0  0  0  0  0  0
    5.9541   -2.2167   -1.2770 C   0  0  0  0  0  0  0  0  0  0  0  0
    6.5316   -3.1134   -2.1733 C   0  0  0  0  0  0  0  0  0  0  0  0
    7.7298   -2.7610   -2.7810 C   0  0  0  0  0  0  0  0  0  0  0  0
    8.4359   -3.8460   -3.8960 Cl  0  0  0  0  0  0  0  0  0  0  0  0
    8.3757   -1.5590   -2.5198 C   0  0  0  0  0  0  0  0  0  0  0  0
    7.7873   -0.6722   -1.6221 C   0  0  0  0  0  0  0  0  0  0  0  0
    6.5912   -0.2659    1.3296 C   0  0  0  0  0  0  0  0  0  0  0  0
    7.2527    0.5213    1.9434 O   0  0  0  0  0  0  0  0  0  0  0  0
    6.3584   -1.4821    1.8839 O   0  0  0  0  0  0  0  0  0  0  0  0
    1.8350    0.0145    2.1618 H   0  0  0  0  0  0  0  0  0  0  0  0
    4.3018   -0.0035    2.1652 H   0  0  0  0  0  0  0  0  0  0  0  0
    4.3116   -0.0018   -2.1572 H   0  0  0  0  0  0  0  0  0  0  0  0
    1.8302    0.0148   -2.1626 H   0  0  0  0  0  0  0  0  0  0  0  0
    5.0043   -2.4720   -0.8049 H   0  0  0  0  0  0  0  0  0  0  0  0
    6.0465   -4.0660   -2.3896 H   0  0  0  0  0  0  0  0  0  0  0  0
    9.3219   -1.3094   -3.0019 H   0  0  0  0  0  0  0  0  0  0  0  0
    8.2824    0.2745   -1.3989 H   0  0  0  0  0  0  0  0  0  0  0  0
    5.8522   -2.1086    1.3160 H   0  0  0  0  0  0  0  0  0  0  0  0
  1  2  1  0  0  0  0
  2  3  2  0  0  0  0
  3 20  1  0  0  0  0
  4  3  1  0  0  0  0
  4 21  1  0  0  0  0
  5  4  2  0  0  0  0
  6  5  1  0  0  0  0
  7  6  2  0  0  0  0
  7  2  1  0  0  0  0
  8  5  1  0  0  0  0
  8 17  1  0  0  0  0
  9  8  1  0  0  0  0
 10  8  1  0  0  0  0
 11 10  1  0  0  0  0
 11 24  1  0  0  0  0
 12 11  2  0  0  0  0
 13 15  2  0  0  0  0
 13 12  1  0  0  0  0
 14 13  1  0  0  0  0
 15 16  1  0  0  0  0
 16 27  1  0  0  0  0
 16 10  2  0  0  0  0
 17 19  1  0  0  0  0
 17 18  2  0  0  0  0
 22  6  1  0  0  0  0
 23  7  1  0  0  0  0
 25 12  1  0  0  0  0
 26 15  1  0  0  0  0
 28 19  1  0  0  0  0
M  END
$$$$
