28
rmsd1.gzmat
Cl         0.00000        0.00000        0.00000
C          1.70820        0.00000        0.00000
C          2.37580        0.00000        1.21830
C          3.76860       -0.00600        1.21030
C          4.46680       -0.00910       -0.00040
C          3.76840       -0.00770       -1.21200
C          2.37560       -0.00300       -1.21860
C          5.97030       -0.00410       -0.02490
H          6.33040       -0.53430       -0.96020
C          6.57670       -0.72830        1.14510
C          7.48170       -0.11560        2.01260
C          8.03990       -0.83660        3.06810
C          7.68070       -2.16770        3.22480
Cl         8.37760       -3.06390        4.50240
C          6.78080       -2.80430        2.37830
C          6.22910       -2.07240        1.33200
C          6.45850        1.43510       -0.13240
O          7.22140        1.84150       -0.96130
O          5.99440        2.31070        0.79420
H          1.83020       -0.00060        2.16290
H          4.30910       -0.02960        2.15820
H          4.31010       -0.00740       -2.15970
H          1.82930       -0.00120       -2.16300
H          7.77590        0.92840        1.87680
H          8.74600       -0.35740        3.74790
H          6.51180       -3.85100        2.52290
H          5.51920       -2.54960        0.65480
H          5.31780        1.94840        1.41130
