
     RDKit          3D

 28 29  0  0  0  0  0  0  0  0999 V2000
   -0.0896    0.4090    0.1831 Cl  0  0  0  0  0  0  0  0  0  0  0  0
    1.6445    0.2330    0.1268 C   0  0  0  0  0  0  0  0  0  0  0  0
    2.3696    0.1296    1.3149 C   0  0  0  0  0  0  0  0  0  0  0  0
    3.7587   -0.0157    1.2614 C   0  0  0  0  0  0  0  0  0  0  0  0
    4.4351   -0.0542    0.0328 C   0  0  0  0  0  0  0  0  0  0  0  0
    3.6818    0.0514   -1.1477 C   0  0  0  0  0  0  0  0  0  0  0  0
    2.2961    0.1920   -1.1106 C   0  0  0  0  0  0  0  0  0  0  0  0
    5.9536   -0.1366   -0.0546 C   0  0  0  0  0  0  0  0  0  0  0  0
    6.2189   -0.7193   -0.9478 H   0  0  0  0  0  0  0  0  0  0  0  0
    6.5925   -0.8159    1.1476 C   0  0  0  0  0  0  0  0  0  0  0  0
    7.0897   -0.0938    2.2410 C   0  0  0  0  0  0  0  0  0  0  0  0
    7.6276   -0.7494    3.3508 C   0  0  0  0  0  0  0  0  0  0  0  0
    7.6654   -2.1445    3.3717 C   0  0  0  0  0  0  0  0  0  0  0  0
    8.3339   -2.9724    4.7554 Cl  0  0  0  0  0  0  0  0  0  0  0  0
    7.1758   -2.8856    2.2922 C   0  0  0  0  0  0  0  0  0  0  0  0
    6.6449   -2.2162    1.1909 C   0  0  0  0  0  0  0  0  0  0  0  0
    6.5933    1.2446   -0.3018 C   0  0  0  0  0  0  0  0  0  0  0  0
    7.5900    1.3969   -0.9486 O   0  0  0  0  0  0  0  0  0  0  0  0
    5.9839    2.2868    0.3022 O   0  0  0  0  0  0  0  0  0  0  0  0
    1.8481    0.1536    2.2727 H   0  0  0  0  0  0  0  0  0  0  0  0
    4.3188   -0.1193    2.1928 H   0  0  0  0  0  0  0  0  0  0  0  0
    4.1902    0.0247   -2.1151 H   0  0  0  0  0  0  0  0  0  0  0  0
    1.7162    0.2699   -2.0311 H   0  0  0  0  0  0  0  0  0  0  0  0
    7.0682    0.9978    2.2344 H   0  0  0  0  0  0  0  0  0  0  0  0
    8.0195   -0.1829    4.1964 H   0  0  0  0  0  0  0  0  0  0  0  0
    7.2169   -3.9753    2.3191 H   0  0  0  0  0  0  0  0  0  0  0  0
    6.2607   -2.7958    0.3477 H   0  0  0  0  0  0  0  0  0  0  0  0
    5.1394    1.9970    0.6859 H   0  0  0  0  0  0  0  0  0  0  0  0
  1  2  1  0
  2  3  2  0
  2  7  1  0
  3  4  1  0
  3 20  1  0
  4  5  2  0
  4 21  1  0
  5  6  1  0
  5  8  1  0
  6  7  2  0
  6 22  1  0
  7 23  1  0
  8  9  1  0
  8 10  1  0
  8 17  1  0
 10 11  2  0
 10 16  1  0
 11 12  1  0
 11 24  1  0
 12 13  2  0
 12 25  1  0
 13 14  1  0
 13 15  1  0
 15 16  2  0
 15 26  1  0
 16 27  1  0
 17 18  2  0
 17 19  1  0
 19 28  1  0
M  END

