rmsd13.gzmat
 OpenBabel08211713383D

 28 29  0  0  0  0  0  0  0  0999 V2000
    0.0000    0.0000    0.0000 Cl  0  0  0  0  0  0  0  0  0  0  0  0
    1.7083    0.0000    0.0000 C   0  0  0  0  0  0  0  0  0  0  0  0
    2.3775    0.0000    1.2168 C   0  0  0  0  0  0  0  0  0  0  0  0
    3.7708    0.0011    1.2076 C   0  0  0  0  0  0  0  0  0  0  0  0
    4.4673    0.0017   -0.0033 C   0  0  0  0  0  0  0  0  0  0  0  0
    3.7668    0.0008   -1.2142 C   0  0  0  0  0  0  0  0  0  0  0  0
    2.3746   -0.0004   -1.2195 C   0  0  0  0  0  0  0  0  0  0  0  0
    5.9708    0.0320   -0.0378 C   0  0  0  0  0  0  0  0  0  0  0  0
    6.3357   -0.5770   -0.9219 H   0  0  0  0  0  0  0  0  0  0  0  0
    6.6078   -0.5570    1.1899 C   0  0  0  0  0  0  0  0  0  0  0  0
    7.4729    0.1745    2.0046 C   0  0  0  0  0  0  0  0  0  0  0  0
    8.0636   -0.4243    3.1171 C   0  0  0  0  0  0  0  0  0  0  0  0
    7.7656   -1.7510    3.3933 C   0  0  0  0  0  0  0  0  0  0  0  0
    8.4852   -2.4901    4.7562 Cl  0  0  0  0  0  0  0  0  0  0  0  0
    6.9063   -2.5042    2.6020 C   0  0  0  0  0  0  0  0  0  0  0  0
    6.3316   -1.8970    1.4902 C   0  0  0  0  0  0  0  0  0  0  0  0
    6.4120    1.4687   -0.2897 C   0  0  0  0  0  0  0  0  0  0  0  0
    7.1369    1.8223   -1.1748 O   0  0  0  0  0  0  0  0  0  0  0  0
    5.9360    2.4091    0.5659 O   0  0  0  0  0  0  0  0  0  0  0  0
    1.8336   -0.0015    2.1620 H   0  0  0  0  0  0  0  0  0  0  0  0
    4.3106   -0.0134    2.1562 H   0  0  0  0  0  0  0  0  0  0  0  0
    4.3085    0.0074   -2.1615 H   0  0  0  0  0  0  0  0  0  0  0  0
    1.8263   -0.0006   -2.1626 H   0  0  0  0  0  0  0  0  0  0  0  0
    7.7096    1.2188    1.7847 H   0  0  0  0  0  0  0  0  0  0  0  0
    8.7472    0.1449    3.7484 H   0  0  0  0  0  0  0  0  0  0  0  0
    6.6867   -3.5454    2.8391 H   0  0  0  0  0  0  0  0  0  0  0  0
    5.6595   -2.4695    0.8493 H   0  0  0  0  0  0  0  0  0  0  0  0
    5.2837    2.0802    1.2275 H   0  0  0  0  0  0  0  0  0  0  0  0
  1  2  1  0  0  0  0
  2  3  2  0  0  0  0
  3 20  1  0  0  0  0
  4  3  1  0  0  0  0
  4 21  1  0  0  0  0
  5  4  2  0  0  0  0
  6  5  1  0  0  0  0
  7  6  2  0  0  0  0
  7  2  1  0  0  0  0
  8  5  1  0  0  0  0
  8 10  1  0  0  0  0
  9  8  1  0  0  0  0
 10 16  2  0  0  0  0
 10 11  1  0  0  0  0
 11 12  2  0  0  0  0
 12 13  1  0  0  0  0
 12 25  1  0  0  0  0
 13 14  1  0  0  0  0
 15 26  1  0  0  0  0
 15 13  2  0  0  0  0
 16 15  1  0  0  0  0
 17  8  1  0  0  0  0
 17 19  1  0  0  0  0
 18 17  2  0  0  0  0
 19 28  1  0  0  0  0
 22  6  1  0  0  0  0
 23  7  1  0  0  0  0
 24 11  1  0  0  0  0
 27 16  1  0  0  0  0
M  END
$$$$
