20

C          0.01840       -0.15090        0.00160
O          1.20930       -0.31530       -0.04810
C         -0.85460        0.04870       -1.25780
H         -1.07080       -0.96730       -1.63070
C         -0.04950        0.77500       -2.33300
N         -0.71330        0.76420       -3.61810
C         -0.02950        0.83880       -4.83120
O          1.04720        0.36960       -5.08780
N         -0.89320        1.55400       -5.65920
H         -0.70820        1.74250       -6.63750
C         -1.99020        2.04700       -4.98330
O         -2.90200        2.71390       -5.36480
O         -1.85860        1.60560       -3.68450
N         -2.12650        0.65510       -0.86750
O         -0.69310       -0.14990        1.12480
H          0.90810        0.25830       -2.48260
H          0.17140        1.81320       -2.02080
H         -2.86710        0.43990       -1.53250
H         -2.05250        1.67370       -0.84290
H         -1.61520        0.06480        0.83680
