20
rmsd27.gzmat
C          0.00000        0.00000        0.00000
O          1.19620        0.00000        0.00000
C         -0.95590        0.00000       -1.18810
H         -0.34170        0.07320       -2.13390
C         -1.90880        1.23150       -1.08540
N         -1.17800        2.39780       -1.58920
C         -1.48050        3.68400       -1.00170
O         -1.45000        3.96740        0.16010
N         -1.70860        4.55270       -2.08920
H         -1.83290        5.54960       -2.00950
C         -1.66530        3.84550       -3.30210
O         -1.81340        4.24330       -4.41800
O         -1.44230        2.50190       -2.99210
N         -1.65110       -1.28540       -1.17710
O         -0.71570        0.00530        1.15740
H         -2.21340        1.40500       -0.02240
H         -2.84210        1.03510       -1.65930
H         -2.19660       -1.44950       -2.00570
H         -2.20320       -1.43290       -0.34710
H         -0.15670        0.01160        1.97290
