
     RDKit          3D

 20 20  0  0  0  0  0  0  0  0999 V2000
    0.0381    0.2125   -0.3387 C   0  0  0  0  0  0  0  0  0  0  0  0
    1.1555    0.4540   -0.7068 O   0  0  0  0  0  0  0  0  0  0  0  0
   -1.1536   -0.0989   -1.2362 C   0  0  2  0  0  0  0  0  0  0  0  0
   -0.7500   -0.1688   -2.2565 H   0  0  0  0  0  0  0  0  0  0  0  0
   -2.1665    1.0637   -1.1783 C   0  0  0  0  0  0  0  0  0  0  0  0
   -1.5952    2.3253   -1.5788 N   0  0  0  0  0  0  0  0  0  0  0  0
   -1.9030    3.5617   -1.0313 C   0  0  0  0  0  0  0  0  0  0  0  0
   -2.2726    3.7924    0.0919 O   0  0  0  0  0  0  0  0  0  0  0  0
   -1.6652    4.4504   -2.0785 N   0  0  0  0  0  0  0  0  0  0  0  0
   -1.7505    5.4565   -1.9965 H   0  0  0  0  0  0  0  0  0  0  0  0
   -1.3627    3.8052   -3.2623 C   0  0  0  0  0  0  0  0  0  0  0  0
   -1.1366    4.2466   -4.3467 O   0  0  0  0  0  0  0  0  0  0  0  0
   -1.3685    2.4602   -2.9673 O   0  0  0  0  0  0  0  0  0  0  0  0
   -1.7210   -1.3807   -0.8563 N   0  0  0  0  0  0  0  0  0  0  0  0
   -0.3302    0.2066    0.9606 O   0  0  0  0  0  0  0  0  0  0  0  0
   -2.5062    1.2163   -0.1433 H   0  0  0  0  0  0  0  0  0  0  0  0
   -3.0417    0.8210   -1.8085 H   0  0  0  0  0  0  0  0  0  0  0  0
   -2.4714   -1.6520   -1.4899 H   0  0  0  0  0  0  0  0  0  0  0  0
   -2.1032   -1.3401    0.0884 H   0  0  0  0  0  0  0  0  0  0  0  0
    0.4606    0.4162    1.4865 H   0  0  0  0  0  0  0  0  0  0  0  0
  1  2  2  0
  1  3  1  0
  1 15  1  0
  3  4  1  6
  3  5  1  0
  3 14  1  0
  5  6  1  0
  5 16  1  0
  5 17  1  0
  6  7  1  0
  6 13  1  0
  7  8  2  0
  7  9  1  0
  9 10  1  0
  9 11  1  0
 11 12  2  0
 11 13  1  0
 14 18  1  0
 14 19  1  0
 15 20  1  0
M  END

