rmsd16.gzmat
 OpenBabel08211713423D

 20 20  0  0  1  0  0  0  0  0999 V2000
    0.0000    0.0000    0.0000 C   0  0  0  0  0  0  0  0  0  0  0  0
    1.1963    0.0000    0.0000 O   0  0  0  0  0  0  0  0  0  0  0  0
   -0.9559    0.0000   -1.1877 C   0  0  2  0  0  0  0  0  0  0  0  0
   -0.3412    0.0851   -2.1330 H   0  0  0  0  0  0  0  0  0  0  0  0
   -1.9203    1.2223   -1.0793 C   0  0  0  0  0  0  0  0  0  0  0  0
   -1.2541    2.3607   -1.7193 N   0  0  0  0  0  0  0  0  0  0  0  0
   -1.4632    3.6711   -1.1450 C   0  0  0  0  0  0  0  0  0  0  0  0
   -1.2694    3.9964   -0.0103 O   0  0  0  0  0  0  0  0  0  0  0  0
   -1.8355    4.5020   -2.2224 N   0  0  0  0  0  0  0  0  0  0  0  0
   -1.9408    5.5027   -2.1640 H   0  0  0  0  0  0  0  0  0  0  0  0
   -1.9690    3.7500   -3.4011 C   0  0  0  0  0  0  0  0  0  0  0  0
   -2.2754    4.1059   -4.4987 O   0  0  0  0  0  0  0  0  0  0  0  0
   -1.7063    2.4175   -3.0761 O   0  0  0  0  0  0  0  0  0  0  0  0
   -1.6356   -1.2934   -1.1840 N   0  0  0  0  0  0  0  0  0  0  0  0
   -0.7150    0.0049    1.1582 O   0  0  0  0  0  0  0  0  0  0  0  0
   -2.1452    1.4577   -0.0088 H   0  0  0  0  0  0  0  0  0  0  0  0
   -2.8942    0.9795   -1.5622 H   0  0  0  0  0  0  0  0  0  0  0  0
   -2.1616   -1.4681   -2.0227 H   0  0  0  0  0  0  0  0  0  0  0  0
   -2.2021   -1.4436   -0.3649 H   0  0  0  0  0  0  0  0  0  0  0  0
   -0.1553   -0.0026    1.9729 H   0  0  0  0  0  0  0  0  0  0  0  0
  1  2  2  0  0  0  0
  1 15  1  0  0  0  0
  3  4  1  6  0  0  0
  3 14  1  0  0  0  0
  3  5  1  0  0  0  0
  3  1  1  0  0  0  0
  5 16  1  0  0  0  0
  6  7  1  0  0  0  0
  6  5  1  0  0  0  0
  7  8  2  0  0  0  0
  9 10  1  0  0  0  0
  9  7  1  0  0  0  0
 11 13  1  0  0  0  0
 11  9  1  0  0  0  0
 12 11  2  0  0  0  0
 13  6  1  0  0  0  0
 14 19  1  0  0  0  0
 15 20  1  0  0  0  0
 17  5  1  0  0  0  0
 18 14  1  0  0  0  0
M  END
$$$$
