rmsd173.gzmat
 OpenBabel08211713423D

 20 20  0  0  1  0  0  0  0  0999 V2000
    0.0000    0.0000    0.0000 C   0  0  0  0  0  0  0  0  0  0  0  0
    1.2004    0.0000    0.0000 O   0  0  0  0  0  0  0  0  0  0  0  0
   -0.8552    0.0000   -1.2747 C   0  0  2  0  0  0  0  0  0  0  0  0
   -1.0664   -1.0754   -1.5432 H   0  0  0  0  0  0  0  0  0  0  0  0
   -0.0348    0.6534   -2.4133 C   0  0  0  0  0  0  0  0  0  0  0  0
   -0.7999    0.4954   -3.6551 N   0  0  0  0  0  0  0  0  0  0  0  0
   -0.0703    0.5924   -4.9012 C   0  0  0  0  0  0  0  0  0  0  0  0
    0.8783   -0.0577   -5.2289 O   0  0  0  0  0  0  0  0  0  0  0  0
   -0.7802    1.5255   -5.6868 N   0  0  0  0  0  0  0  0  0  0  0  0
   -0.5806    1.7294   -6.6550 H   0  0  0  0  0  0  0  0  0  0  0  0
   -1.8436    2.0774   -4.9575 C   0  0  0  0  0  0  0  0  0  0  0  0
   -2.6594    2.8853   -5.2832 O   0  0  0  0  0  0  0  0  0  0  0  0
   -1.7993    1.5209   -3.6756 O   0  0  0  0  0  0  0  0  0  0  0  0
   -2.1304    0.6650   -0.9689 N   0  0  0  0  0  0  0  0  0  0  0  0
   -0.6701   -0.0416    1.1675 O   0  0  0  0  0  0  0  0  0  0  0  0
    0.9513    0.1258   -2.5231 H   0  0  0  0  0  0  0  0  0  0  0  0
    0.2039    1.7138   -2.1738 H   0  0  0  0  0  0  0  0  0  0  0  0
   -2.8524    0.4060   -1.6306 H   0  0  0  0  0  0  0  0  0  0  0  0
   -2.0492    1.6733   -0.9753 H   0  0  0  0  0  0  0  0  0  0  0  0
   -1.6618    0.0431    1.0523 H   0  0  0  0  0  0  0  0  0  0  0  0
  1  2  2  0  0  0  0
  1 15  1  0  0  0  0
  3  4  1  6  0  0  0
  3 14  1  0  0  0  0
  3  1  1  0  0  0  0
  5 17  1  0  0  0  0
  5  3  1  0  0  0  0
  6  5  1  0  0  0  0
  7  6  1  0  0  0  0
  8  7  2  0  0  0  0
  9 11  1  0  0  0  0
  9  7  1  0  0  0  0
 10  9  1  0  0  0  0
 11 13  1  0  0  0  0
 12 11  2  0  0  0  0
 13  6  1  0  0  0  0
 16  5  1  0  0  0  0
 18 14  1  0  0  0  0
 19 14  1  0  0  0  0
 20 15  1  0  0  0  0
M  END
$$$$
