20
rmsd173.gzmat
C          0.00000        0.00000        0.00000
O          1.20040        0.00000        0.00000
C         -0.85520        0.00000       -1.27470
H         -1.06640       -1.07540       -1.54320
C         -0.03480        0.65340       -2.41330
N         -0.79990        0.49540       -3.65510
C         -0.07030        0.59240       -4.90120
O          0.87830       -0.05770       -5.22890
N         -0.78020        1.52550       -5.68680
H         -0.58060        1.72940       -6.65500
C         -1.84360        2.07740       -4.95750
O         -2.65940        2.88530       -5.28320
O         -1.79930        1.52090       -3.67560
N         -2.13040        0.66500       -0.96890
O         -0.67010       -0.04160        1.16750
H          0.95130        0.12580       -2.52310
H          0.20390        1.71380       -2.17380
H         -2.85240        0.40600       -1.63060
H         -2.04920        1.67330       -0.97530
H         -1.66180        0.04310        1.05230
