rmsd25.gzmat
 OpenBabel08211713423D

 20 20  0  0  1  0  0  0  0  0999 V2000
    0.0000    0.0000    0.0000 C   0  0  0  0  0  0  0  0  0  0  0  0
    1.1997    0.0000    0.0000 O   0  0  0  0  0  0  0  0  0  0  0  0
   -0.9367    0.0000   -1.2020 C   0  0  2  0  0  0  0  0  0  0  0  0
   -1.5244    0.9667   -1.1832 H   0  0  0  0  0  0  0  0  0  0  0  0
   -1.9349   -1.1828   -1.1037 C   0  0  0  0  0  0  0  0  0  0  0  0
   -1.1792   -2.4398   -1.0112 N   0  0  0  0  0  0  0  0  0  0  0  0
   -1.6848   -3.5939   -1.7142 C   0  0  0  0  0  0  0  0  0  0  0  0
   -1.9736   -3.6462   -2.8750 O   0  0  0  0  0  0  0  0  0  0  0  0
   -1.6427   -4.6521   -0.7867 N   0  0  0  0  0  0  0  0  0  0  0  0
   -1.7986   -5.6227   -1.0131 H   0  0  0  0  0  0  0  0  0  0  0  0
   -1.2376   -4.1825    0.4759 C   0  0  0  0  0  0  0  0  0  0  0  0
   -1.0792   -4.7919    1.4901 O   0  0  0  0  0  0  0  0  0  0  0  0
   -1.0673   -2.7996    0.3690 O   0  0  0  0  0  0  0  0  0  0  0  0
   -0.2051   -0.0238   -2.4797 N   0  0  0  0  0  0  0  0  0  0  0  0
   -0.7220    0.0668    1.1446 O   0  0  0  0  0  0  0  0  0  0  0  0
   -2.5745   -1.1907   -2.0245 H   0  0  0  0  0  0  0  0  0  0  0  0
   -2.6100   -1.0343   -0.2270 H   0  0  0  0  0  0  0  0  0  0  0  0
   -0.1300   -0.9665   -2.8374 H   0  0  0  0  0  0  0  0  0  0  0  0
    0.7299    0.3557   -2.3857 H   0  0  0  0  0  0  0  0  0  0  0  0
   -0.1709    0.0354    1.9679 H   0  0  0  0  0  0  0  0  0  0  0  0
  1  2  2  0  0  0  0
  1 15  1  0  0  0  0
  3  4  1  1  0  0  0
  3  5  1  0  0  0  0
  3  1  1  0  0  0  0
  5  6  1  0  0  0  0
  5 17  1  0  0  0  0
  6 13  1  0  0  0  0
  7  6  1  0  0  0  0
  7  9  1  0  0  0  0
  8  7  2  0  0  0  0
  9 11  1  0  0  0  0
 10  9  1  0  0  0  0
 11 12  2  0  0  0  0
 13 11  1  0  0  0  0
 14 19  1  0  0  0  0
 14  3  1  0  0  0  0
 15 20  1  0  0  0  0
 16  5  1  0  0  0  0
 18 14  1  0  0  0  0
M  END
$$$$
