20

C         -0.04030        0.16120       -0.06110
O          1.07810        0.60880       -0.15230
C         -1.00690        0.08560       -1.23170
H         -2.02990        0.00480       -0.82810
C         -0.74140       -1.25530       -1.97800
N          0.62760       -1.48710       -2.37910
C          1.61810       -1.93840       -1.51440
O          1.46980       -2.65910       -0.55880
N          2.78640       -1.38730       -2.02690
H          3.69590       -1.50560       -1.59740
C          2.53830       -0.47220       -3.02910
O          3.28330        0.23210       -3.63810
O          1.17870       -0.51440       -3.24950
N         -0.88370        1.29650       -2.01330
O         -0.52880       -0.39970        1.04970
H         -1.38330       -1.30580       -2.87140
H         -0.98890       -2.10950       -1.33040
H         -1.38460        1.21090       -2.89610
H          0.09610        1.46690       -2.23630
H          0.19030       -0.42190        1.70590
