
     RDKit          3D

 45 46  0  0  0  0  0  0  0  0999 V2000
    0.6228    1.1806    2.6554 Cl  0  0  0  0  0  0  0  0  0  0  0  0
    1.9901    0.6481    1.6791 C   0  0  0  0  0  0  0  0  0  0  0  0
    3.2621    0.6352    2.2532 C   0  0  0  0  0  0  0  0  0  0  0  0
    4.3395    0.1853    1.4888 C   0  0  0  0  0  0  0  0  0  0  0  0
    4.1472   -0.2607    0.1735 C   0  0  0  0  0  0  0  0  0  0  0  0
    2.8672   -0.1881   -0.3901 C   0  0  0  0  0  0  0  0  0  0  0  0
    1.7798    0.2621    0.3550 C   0  0  0  0  0  0  0  0  0  0  0  0
    5.2611   -0.7429   -0.7121 C   0  0  0  0  0  0  0  0  0  0  0  0
    5.2721   -0.4693   -1.9017 O   0  0  0  0  0  0  0  0  0  0  0  0
    6.2866   -1.4672   -0.1445 N   0  0  0  0  0  0  0  0  0  0  0  0
    6.2268   -2.3614    1.0016 C   0  0  0  0  0  0  0  0  0  0  0  0
    5.5563   -3.7152    0.7097 C   0  0  0  0  0  0  0  0  0  0  0  0
    4.0824   -3.6108    0.3951 C   0  0  0  0  0  0  0  0  0  0  0  0
    3.5839   -3.8551   -0.8929 C   0  0  0  0  0  0  0  0  0  0  0  0
    2.2206   -3.7835   -1.1668 C   0  0  0  0  0  0  0  0  0  0  0  0
    1.3059   -3.4522   -0.1551 C   0  0  0  0  0  0  0  0  0  0  0  0
   -0.0004   -3.4516   -0.5423 O   0  0  0  0  0  0  0  0  0  0  0  0
   -1.1160   -3.2555    0.3403 C   0  0  0  0  0  0  0  0  0  0  0  0
   -2.3291   -3.3319   -0.5878 C   0  0  0  0  0  0  0  0  0  0  0  0
   -1.1954   -4.3324    1.4211 C   0  0  0  0  0  0  0  0  0  0  0  0
   -1.0438   -1.8065    0.8771 C   0  0  0  0  0  0  0  0  0  0  0  0
   -1.1107   -0.8461    0.1517 O   0  0  0  0  0  0  0  0  0  0  0  0
   -0.8863   -1.7152    2.2046 O   0  0  0  0  0  0  0  0  0  0  0  0
    1.7926   -3.1530    1.1269 C   0  0  0  0  0  0  0  0  0  0  0  0
    3.1614   -3.2461    1.3845 C   0  0  0  0  0  0  0  0  0  0  0  0
    3.4046    0.9789    3.2785 H   0  0  0  0  0  0  0  0  0  0  0  0
    5.3410    0.2025    1.9213 H   0  0  0  0  0  0  0  0  0  0  0  0
    2.7317   -0.5056   -1.4244 H   0  0  0  0  0  0  0  0  0  0  0  0
    0.7783    0.2888   -0.0712 H   0  0  0  0  0  0  0  0  0  0  0  0
    6.9621   -1.7304   -0.8585 H   0  0  0  0  0  0  0  0  0  0  0  0
    5.7011   -1.8685    1.8278 H   0  0  0  0  0  0  0  0  0  0  0  0
    7.2600   -2.5289    1.3462 H   0  0  0  0  0  0  0  0  0  0  0  0
    5.7050   -4.3589    1.5944 H   0  0  0  0  0  0  0  0  0  0  0  0
    6.0829   -4.2049   -0.1259 H   0  0  0  0  0  0  0  0  0  0  0  0
    4.2754   -4.1165   -1.6981 H   0  0  0  0  0  0  0  0  0  0  0  0
    1.8319   -3.9900   -2.1653 H   0  0  0  0  0  0  0  0  0  0  0  0
   -2.2445   -2.5587   -1.3618 H   0  0  0  0  0  0  0  0  0  0  0  0
   -3.2601   -3.1747   -0.0233 H   0  0  0  0  0  0  0  0  0  0  0  0
   -2.3593   -4.3226   -1.0626 H   0  0  0  0  0  0  0  0  0  0  0  0
   -0.3336   -4.3280    2.0969 H   0  0  0  0  0  0  0  0  0  0  0  0
   -1.2521   -5.3176    0.9356 H   0  0  0  0  0  0  0  0  0  0  0  0
   -2.1007   -4.1868    2.0275 H   0  0  0  0  0  0  0  0  0  0  0  0
   -0.7314   -0.7718    2.4213 H   0  0  0  0  0  0  0  0  0  0  0  0
    1.1272   -2.8434    1.9280 H   0  0  0  0  0  0  0  0  0  0  0  0
    3.5136   -3.0210    2.3949 H   0  0  0  0  0  0  0  0  0  0  0  0
  1  2  1  0
  2  3  2  0
  2  7  1  0
  3  4  1  0
  3 26  1  0
  4  5  2  0
  4 27  1  0
  5  6  1  0
  5  8  1  0
  6  7  2  0
  6 28  1  0
  7 29  1  0
  8  9  2  0
  8 10  1  0
 10 11  1  0
 10 30  1  0
 11 12  1  0
 11 31  1  0
 11 32  1  0
 12 13  1  0
 12 33  1  0
 12 34  1  0
 13 14  2  0
 13 25  1  0
 14 15  1  0
 14 35  1  0
 15 16  2  0
 15 36  1  0
 16 17  1  0
 16 24  1  0
 18 17  1  0
 18 19  1  0
 18 20  1  0
 18 21  1  0
 19 37  1  0
 19 38  1  0
 19 39  1  0
 20 40  1  0
 20 41  1  0
 20 42  1  0
 21 22  2  0
 21 23  1  0
 23 43  1  0
 24 25  2  0
 24 44  1  0
 25 45  1  0
M  END

