rmsd102.gzmat
 OpenBabel08211713413D

 45 46  0  0  0  0  0  0  0  0999 V2000
    0.0000    0.0000    0.0000 Cl  0  0  0  0  0  0  0  0  0  0  0  0
    1.7147    0.0000    0.0000 C   0  0  0  0  0  0  0  0  0  0  0  0
    2.3784    0.0000    1.2188 C   0  0  0  0  0  0  0  0  0  0  0  0
    3.7720    0.0403    1.2089 C   0  0  0  0  0  0  0  0  0  0  0  0
    4.4553    0.0463   -0.0064 C   0  0  0  0  0  0  0  0  0  0  0  0
    3.7644    0.0382   -1.2198 C   0  0  0  0  0  0  0  0  0  0  0  0
    2.3713    0.0154   -1.2234 C   0  0  0  0  0  0  0  0  0  0  0  0
    5.9397    0.1325   -0.0667 C   0  0  0  0  0  0  0  0  0  0  0  0
    6.5098    1.0710   -0.5919 O   0  0  0  0  0  0  0  0  0  0  0  0
    6.7164   -0.8728    0.4789 N   0  0  0  0  0  0  0  0  0  0  0  0
    6.1914   -2.1124    1.0457 C   0  0  0  0  0  0  0  0  0  0  0  0
    5.8299   -3.1546   -0.0408 C   0  0  0  0  0  0  0  0  0  0  0  0
    4.3738   -3.5039   -0.0129 C   0  0  0  0  0  0  0  0  0  0  0  0
    3.6105   -3.4309   -1.1786 C   0  0  0  0  0  0  0  0  0  0  0  0
    2.2580   -3.7679   -1.1600 C   0  0  0  0  0  0  0  0  0  0  0  0
    1.6863   -4.1560    0.0485 C   0  0  0  0  0  0  0  0  0  0  0  0
    0.4028   -4.6472    0.0985 O   0  0  0  0  0  0  0  0  0  0  0  0
   -0.6806   -3.7318    0.1172 C   0  0  0  0  0  0  0  0  0  0  0  0
   -0.8188   -2.9780   -1.1968 C   0  0  0  0  0  0  0  0  0  0  0  0
   -1.8711   -4.6500    0.4002 C   0  0  0  0  0  0  0  0  0  0  0  0
   -0.5162   -2.7356    1.2659 C   0  0  0  0  0  0  0  0  0  0  0  0
    0.4566   -2.4785    1.9211 O   0  0  0  0  0  0  0  0  0  0  0  0
   -1.6983   -2.1096    1.5009 O   0  0  0  0  0  0  0  0  0  0  0  0
    2.4312   -4.2389    1.2282 C   0  0  0  0  0  0  0  0  0  0  0  0
    3.7823   -3.9227    1.1848 C   0  0  0  0  0  0  0  0  0  0  0  0
    1.8313   -0.0442    2.1618 H   0  0  0  0  0  0  0  0  0  0  0  0
    4.3193    0.0744    2.1514 H   0  0  0  0  0  0  0  0  0  0  0  0
    4.3159    0.0664   -2.1613 H   0  0  0  0  0  0  0  0  0  0  0  0
    1.8221    0.0188   -2.1637 H   0  0  0  0  0  0  0  0  0  0  0  0
    7.7190   -0.8127    0.3515 H   0  0  0  0  0  0  0  0  0  0  0  0
    5.3003   -1.8887    1.6779 H   0  0  0  0  0  0  0  0  0  0  0  0
    6.9584   -2.5328    1.7352 H   0  0  0  0  0  0  0  0  0  0  0  0
    6.4315   -4.0755    0.1038 H   0  0  0  0  0  0  0  0  0  0  0  0
    6.1302   -2.7764   -1.0393 H   0  0  0  0  0  0  0  0  0  0  0  0
    4.0693   -3.1145   -2.1135 H   0  0  0  0  0  0  0  0  0  0  0  0
    1.6686   -3.7482   -2.0718 H   0  0  0  0  0  0  0  0  0  0  0  0
    0.0645   -2.3679   -1.4237 H   0  0  0  0  0  0  0  0  0  0  0  0
   -1.6886   -2.3051   -1.1803 H   0  0  0  0  0  0  0  0  0  0  0  0
   -0.9535   -3.6762   -2.0336 H   0  0  0  0  0  0  0  0  0  0  0  0
   -1.7325   -5.2088    1.3356 H   0  0  0  0  0  0  0  0  0  0  0  0
   -1.9925   -5.3918   -0.4000 H   0  0  0  0  0  0  0  0  0  0  0  0
   -2.8030   -4.0749    0.4823 H   0  0  0  0  0  0  0  0  0  0  0  0
   -1.6454   -1.4192    2.2074 H   0  0  0  0  0  0  0  0  0  0  0  0
    1.9459   -4.5391    2.1553 H   0  0  0  0  0  0  0  0  0  0  0  0
    4.3797   -4.0006    2.0914 H   0  0  0  0  0  0  0  0  0  0  0  0
  2  1  1  0  0  0  0
  2  3  2  0  0  0  0
  3 26  1  0  0  0  0
  4  3  1  0  0  0  0
  4 27  1  0  0  0  0
  5  4  2  0  0  0  0
  6  5  1  0  0  0  0
  7  6  2  0  0  0  0
  7  2  1  0  0  0  0
  8  5  1  0  0  0  0
  8 10  1  0  0  0  0
  9  8  2  0  0  0  0
 10 11  1  0  0  0  0
 11 31  1  0  0  0  0
 11 32  1  0  0  0  0
 12 13  1  0  0  0  0
 12 33  1  0  0  0  0
 12 11  1  0  0  0  0
 13 25  2  0  0  0  0
 14 15  2  0  0  0  0
 14 13  1  0  0  0  0
 15 16  1  0  0  0  0
 16 17  1  0  0  0  0
 16 24  2  0  0  0  0
 17 18  1  0  0  0  0
 18 20  1  0  0  0  0
 18 21  1  0  0  0  0
 19 38  1  0  0  0  0
 19 18  1  0  0  0  0
 20 42  1  0  0  0  0
 20 40  1  0  0  0  0
 21 23  1  0  0  0  0
 21 22  2  0  0  0  0
 23 43  1  0  0  0  0
 24 44  1  0  0  0  0
 25 24  1  0  0  0  0
 25 45  1  0  0  0  0
 28  6  1  0  0  0  0
 29  7  1  0  0  0  0
 30 10  1  0  0  0  0
 34 12  1  0  0  0  0
 35 14  1  0  0  0  0
 36 15  1  0  0  0  0
 37 19  1  0  0  0  0
 39 19  1  0  0  0  0
 41 20  1  0  0  0  0
M  END
$$$$
