
     RDKit          3D

 45 46  0  0  0  0  0  0  0  0999 V2000
    0.1553    0.0436   -0.6515 Cl  0  0  0  0  0  0  0  0  0  0  0  0
    1.8899    0.0595   -0.3990 C   0  0  0  0  0  0  0  0  0  0  0  0
    2.4145   -0.3658    0.8209 C   0  0  0  0  0  0  0  0  0  0  0  0
    3.7990   -0.3570    0.9925 C   0  0  0  0  0  0  0  0  0  0  0  0
    4.6503    0.0713   -0.0343 C   0  0  0  0  0  0  0  0  0  0  0  0
    4.0920    0.5217   -1.2395 C   0  0  0  0  0  0  0  0  0  0  0  0
    2.7140    0.5068   -1.4348 C   0  0  0  0  0  0  0  0  0  0  0  0
    6.1452    0.1526    0.0922 C   0  0  0  0  0  0  0  0  0  0  0  0
    6.7619    1.0761   -0.4187 O   0  0  0  0  0  0  0  0  0  0  0  0
    6.8029   -0.8331    0.7842 N   0  0  0  0  0  0  0  0  0  0  0  0
    6.3675   -2.1891    1.0971 C   0  0  0  0  0  0  0  0  0  0  0  0
    5.8092   -3.0125   -0.0990 C   0  0  0  0  0  0  0  0  0  0  0  0
    4.3451   -3.3792    0.0016 C   0  0  0  0  0  0  0  0  0  0  0  0
    3.4438   -3.1074   -1.0321 C   0  0  0  0  0  0  0  0  0  0  0  0
    2.0962   -3.4732   -0.9467 C   0  0  0  0  0  0  0  0  0  0  0  0
    1.6189   -4.1098    0.2040 C   0  0  0  0  0  0  0  0  0  0  0  0
    0.3472   -4.6080    0.3442 O   0  0  0  0  0  0  0  0  0  0  0  0
   -0.8454   -3.8373    0.2518 C   0  0  0  0  0  0  0  0  0  0  0  0
   -1.1619   -3.3808   -1.1805 C   0  0  0  0  0  0  0  0  0  0  0  0
   -1.9389   -4.7853    0.7638 C   0  0  0  0  0  0  0  0  0  0  0  0
   -0.7743   -2.6360    1.2047 C   0  0  0  0  0  0  0  0  0  0  0  0
    0.1194   -2.4032    1.9784 O   0  0  0  0  0  0  0  0  0  0  0  0
   -1.8702   -1.8636    1.0992 O   0  0  0  0  0  0  0  0  0  0  0  0
    2.5088   -4.3799    1.2515 C   0  0  0  0  0  0  0  0  0  0  0  0
    3.8503   -4.0305    1.1439 C   0  0  0  0  0  0  0  0  0  0  0  0
    1.7535   -0.7293    1.6074 H   0  0  0  0  0  0  0  0  0  0  0  0
    4.2084   -0.6822    1.9485 H   0  0  0  0  0  0  0  0  0  0  0  0
    4.7601    0.8905   -2.0194 H   0  0  0  0  0  0  0  0  0  0  0  0
    2.2740    0.8431   -2.3745 H   0  0  0  0  0  0  0  0  0  0  0  0
    7.8055   -0.6729    0.7730 H   0  0  0  0  0  0  0  0  0  0  0  0
    5.6283   -2.1834    1.9117 H   0  0  0  0  0  0  0  0  0  0  0  0
    7.2538   -2.6909    1.5097 H   0  0  0  0  0  0  0  0  0  0  0  0
    6.3967   -3.9430   -0.1823 H   0  0  0  0  0  0  0  0  0  0  0  0
    5.9916   -2.4582   -1.0311 H   0  0  0  0  0  0  0  0  0  0  0  0
    3.7958   -2.5946   -1.9303 H   0  0  0  0  0  0  0  0  0  0  0  0
    1.4331   -3.2723   -1.7856 H   0  0  0  0  0  0  0  0  0  0  0  0
   -0.4947   -2.5780   -1.5150 H   0  0  0  0  0  0  0  0  0  0  0  0
   -2.1899   -2.9980   -1.2326 H   0  0  0  0  0  0  0  0  0  0  0  0
   -1.0652   -4.2439   -1.8550 H   0  0  0  0  0  0  0  0  0  0  0  0
   -1.6945   -5.1232    1.7810 H   0  0  0  0  0  0  0  0  0  0  0  0
   -1.9808   -5.6659    0.1065 H   0  0  0  0  0  0  0  0  0  0  0  0
   -2.9172   -4.2868    0.7688 H   0  0  0  0  0  0  0  0  0  0  0  0
   -1.7439   -1.1095    1.7005 H   0  0  0  0  0  0  0  0  0  0  0  0
    2.1186   -4.8739    2.1420 H   0  0  0  0  0  0  0  0  0  0  0  0
    4.5263   -4.2713    1.9695 H   0  0  0  0  0  0  0  0  0  0  0  0
  1  2  1  0
  2  3  2  0
  2  7  1  0
  3  4  1  0
  3 26  1  0
  4  5  2  0
  4 27  1  0
  5  6  1  0
  5  8  1  0
  6  7  2  0
  6 28  1  0
  7 29  1  0
  8  9  2  0
  8 10  1  0
 10 11  1  0
 10 30  1  0
 11 12  1  0
 11 31  1  0
 11 32  1  0
 12 13  1  0
 12 33  1  0
 12 34  1  0
 13 14  2  0
 13 25  1  0
 14 15  1  0
 14 35  1  0
 15 16  2  0
 15 36  1  0
 16 17  1  0
 16 24  1  0
 18 17  1  0
 18 19  1  0
 18 20  1  0
 18 21  1  0
 19 37  1  0
 19 38  1  0
 19 39  1  0
 20 40  1  0
 20 41  1  0
 20 42  1  0
 21 22  2  0
 21 23  1  0
 23 43  1  0
 24 25  2  0
 24 44  1  0
 25 45  1  0
M  END

