
     RDKit          3D

 45 46  0  0  0  0  0  0  0  0999 V2000
    0.1113    0.4148    2.6809 Cl  0  0  0  0  0  0  0  0  0  0  0  0
    1.5357    0.1740    1.6966 C   0  0  0  0  0  0  0  0  0  0  0  0
    2.7986    0.2060    2.2954 C   0  0  0  0  0  0  0  0  0  0  0  0
    3.9276   -0.0457    1.5157 C   0  0  0  0  0  0  0  0  0  0  0  0
    3.8032   -0.3244    0.1470 C   0  0  0  0  0  0  0  0  0  0  0  0
    2.5326   -0.2850   -0.4393 C   0  0  0  0  0  0  0  0  0  0  0  0
    1.3937   -0.0553    0.3269 C   0  0  0  0  0  0  0  0  0  0  0  0
    4.9638   -0.6123   -0.7598 C   0  0  0  0  0  0  0  0  0  0  0  0
    4.9794   -0.1924   -1.9071 O   0  0  0  0  0  0  0  0  0  0  0  0
    6.0240   -1.3412   -0.2634 N   0  0  0  0  0  0  0  0  0  0  0  0
    6.0038   -2.3772    0.7583 C   0  0  0  0  0  0  0  0  0  0  0  0
    5.4183   -3.7222    0.2838 C   0  0  0  0  0  0  0  0  0  0  0  0
    3.9521   -3.6315   -0.0601 C   0  0  0  0  0  0  0  0  0  0  0  0
    3.5108   -3.5739   -1.3838 C   0  0  0  0  0  0  0  0  0  0  0  0
    2.1580   -3.4099   -1.7046 C   0  0  0  0  0  0  0  0  0  0  0  0
    1.2141   -3.2853   -0.6790 C   0  0  0  0  0  0  0  0  0  0  0  0
   -0.1172   -3.0461   -0.8460 O   0  0  0  0  0  0  0  0  0  0  0  0
   -0.7721   -3.1425   -2.1105 C   0  0  0  0  0  0  0  0  0  0  0  0
   -0.7470   -4.5689   -2.6569 C   0  0  0  0  0  0  0  0  0  0  0  0
   -2.2106   -2.6916   -1.8260 C   0  0  0  0  0  0  0  0  0  0  0  0
   -0.1863   -2.1513   -3.1333 C   0  0  0  0  0  0  0  0  0  0  0  0
   -0.0398   -2.3840   -4.3061 O   0  0  0  0  0  0  0  0  0  0  0  0
    0.0878   -0.9542   -2.5848 O   0  0  0  0  0  0  0  0  0  0  0  0
    1.6405   -3.3557    0.6575 C   0  0  0  0  0  0  0  0  0  0  0  0
    2.9851   -3.5251    0.9555 C   0  0  0  0  0  0  0  0  0  0  0  0
    2.8888    0.4230    3.3606 H   0  0  0  0  0  0  0  0  0  0  0  0
    4.9146   -0.0046    1.9796 H   0  0  0  0  0  0  0  0  0  0  0  0
    2.4441   -0.4742   -1.5072 H   0  0  0  0  0  0  0  0  0  0  0  0
    0.4065   -0.0871   -0.1322 H   0  0  0  0  0  0  0  0  0  0  0  0
    6.7267   -1.4681   -0.9883 H   0  0  0  0  0  0  0  0  0  0  0  0
    5.4356   -2.0266    1.6279 H   0  0  0  0  0  0  0  0  0  0  0  0
    7.0405   -2.5266    1.1008 H   0  0  0  0  0  0  0  0  0  0  0  0
    5.5754   -4.4595    1.0898 H   0  0  0  0  0  0  0  0  0  0  0  0
    5.9911   -4.0780   -0.5884 H   0  0  0  0  0  0  0  0  0  0  0  0
    4.2366   -3.6424   -2.1979 H   0  0  0  0  0  0  0  0  0  0  0  0
    1.8733   -3.3667   -2.7544 H   0  0  0  0  0  0  0  0  0  0  0  0
    0.2749   -4.9253   -2.8363 H   0  0  0  0  0  0  0  0  0  0  0  0
   -1.2926   -4.6167   -3.6082 H   0  0  0  0  0  0  0  0  0  0  0  0
   -1.2276   -5.2372   -1.9284 H   0  0  0  0  0  0  0  0  0  0  0  0
   -2.2136   -1.6751   -1.4099 H   0  0  0  0  0  0  0  0  0  0  0  0
   -2.6601   -3.3750   -1.0915 H   0  0  0  0  0  0  0  0  0  0  0  0
   -2.8097   -2.7094   -2.7478 H   0  0  0  0  0  0  0  0  0  0  0  0
    0.4271   -0.3846   -3.2972 H   0  0  0  0  0  0  0  0  0  0  0  0
    0.8925   -3.2438    1.4437 H   0  0  0  0  0  0  0  0  0  0  0  0
    3.2953   -3.5596    2.0035 H   0  0  0  0  0  0  0  0  0  0  0  0
  1  2  1  0
  2  3  2  0
  2  7  1  0
  3  4  1  0
  3 26  1  0
  4  5  2  0
  4 27  1  0
  5  6  1  0
  5  8  1  0
  6  7  2  0
  6 28  1  0
  7 29  1  0
  8  9  2  0
  8 10  1  0
 10 11  1  0
 10 30  1  0
 11 12  1  0
 11 31  1  0
 11 32  1  0
 12 13  1  0
 12 33  1  0
 12 34  1  0
 13 14  2  0
 13 25  1  0
 14 15  1  0
 14 35  1  0
 15 16  2  0
 15 36  1  0
 16 17  1  0
 16 24  1  0
 18 17  1  0
 18 19  1  0
 18 20  1  0
 18 21  1  0
 19 37  1  0
 19 38  1  0
 19 39  1  0
 20 40  1  0
 20 41  1  0
 20 42  1  0
 21 22  2  0
 21 23  1  0
 23 43  1  0
 24 25  2  0
 24 44  1  0
 25 45  1  0
M  END

