rmsd29.gzmat
 OpenBabel08211713413D

 45 46  0  0  0  0  0  0  0  0999 V2000
    0.0000    0.0000    0.0000 Cl  0  0  0  0  0  0  0  0  0  0  0  0
    1.7132    0.0000    0.0000 C   0  0  0  0  0  0  0  0  0  0  0  0
    2.3761    0.0000    1.2208 C   0  0  0  0  0  0  0  0  0  0  0  0
    3.7670   -0.0919    1.2159 C   0  0  0  0  0  0  0  0  0  0  0  0
    4.4474   -0.2011    0.0039 C   0  0  0  0  0  0  0  0  0  0  0  0
    3.7642   -0.1291   -1.2120 C   0  0  0  0  0  0  0  0  0  0  0  0
    2.3746   -0.0266   -1.2204 C   0  0  0  0  0  0  0  0  0  0  0  0
    5.9234   -0.3670   -0.0591 C   0  0  0  0  0  0  0  0  0  0  0  0
    6.6483    0.4448   -0.6043 O   0  0  0  0  0  0  0  0  0  0  0  0
    6.5196   -1.4881    0.4916 N   0  0  0  0  0  0  0  0  0  0  0  0
    5.8160   -2.6038    1.1189 C   0  0  0  0  0  0  0  0  0  0  0  0
    5.3525   -3.6753    0.0997 C   0  0  0  0  0  0  0  0  0  0  0  0
    3.8756   -3.6010   -0.1322 C   0  0  0  0  0  0  0  0  0  0  0  0
    3.3694   -3.3020   -1.3953 C   0  0  0  0  0  0  0  0  0  0  0  0
    1.9965   -3.1621   -1.6003 C   0  0  0  0  0  0  0  0  0  0  0  0
    1.1398   -3.3262   -0.5184 C   0  0  0  0  0  0  0  0  0  0  0  0
   -0.2067   -3.1213   -0.4838 O   0  0  0  0  0  0  0  0  0  0  0  0
   -1.0288   -3.0915   -1.6392 C   0  0  0  0  0  0  0  0  0  0  0  0
   -0.7581   -4.2314   -2.6077 C   0  0  0  0  0  0  0  0  0  0  0  0
   -2.4207   -3.1856   -1.0090 C   0  0  0  0  0  0  0  0  0  0  0  0
   -0.8320   -1.7477   -2.3537 C   0  0  0  0  0  0  0  0  0  0  0  0
    0.1331   -1.3645   -2.9618 O   0  0  0  0  0  0  0  0  0  0  0  0
   -1.9442   -0.9818   -2.2766 O   0  0  0  0  0  0  0  0  0  0  0  0
    1.6254   -3.6738    0.7542 C   0  0  0  0  0  0  0  0  0  0  0  0
    2.9921   -3.8118    0.9347 C   0  0  0  0  0  0  0  0  0  0  0  0
    1.8294    0.0583    2.1609 H   0  0  0  0  0  0  0  0  0  0  0  0
    4.3159   -0.0808    2.1574 H   0  0  0  0  0  0  0  0  0  0  0  0
    4.3174   -0.1585   -2.1529 H   0  0  0  0  0  0  0  0  0  0  0  0
    1.8278    0.0050   -2.1669 H   0  0  0  0  0  0  0  0  0  0  0  0
    7.5155   -1.6026    0.3462 H   0  0  0  0  0  0  0  0  0  0  0  0
    4.9434   -2.2265    1.6997 H   0  0  0  0  0  0  0  0  0  0  0  0
    6.5029   -3.0688    1.8634 H   0  0  0  0  0  0  0  0  0  0  0  0
    5.6242   -4.6847    0.4698 H   0  0  0  0  0  0  0  0  0  0  0  0
    5.9147   -3.5594   -0.8491 H   0  0  0  0  0  0  0  0  0  0  0  0
    4.0476   -3.1545   -2.2358 H   0  0  0  0  0  0  0  0  0  0  0  0
    1.6299   -2.8930   -2.5894 H   0  0  0  0  0  0  0  0  0  0  0  0
    0.1243   -4.0567   -3.2396 H   0  0  0  0  0  0  0  0  0  0  0  0
   -1.6082   -4.4031   -3.2802 H   0  0  0  0  0  0  0  0  0  0  0  0
   -0.5793   -5.1685   -2.0597 H   0  0  0  0  0  0  0  0  0  0  0  0
   -2.5564   -2.4084   -0.2396 H   0  0  0  0  0  0  0  0  0  0  0  0
   -2.5692   -4.1558   -0.5204 H   0  0  0  0  0  0  0  0  0  0  0  0
   -3.2107   -3.0432   -1.7558 H   0  0  0  0  0  0  0  0  0  0  0  0
   -1.8340   -0.0867   -2.6904 H   0  0  0  0  0  0  0  0  0  0  0  0
    0.9269   -3.8129    1.5755 H   0  0  0  0  0  0  0  0  0  0  0  0
    3.3808   -4.0789    1.9161 H   0  0  0  0  0  0  0  0  0  0  0  0
  1  2  1  0  0  0  0
  2  3  2  0  0  0  0
  3 26  1  0  0  0  0
  4  3  1  0  0  0  0
  4 27  1  0  0  0  0
  5  4  2  0  0  0  0
  6  5  1  0  0  0  0
  7  6  2  0  0  0  0
  7  2  1  0  0  0  0
  8  5  1  0  0  0  0
  8 10  1  0  0  0  0
  9  8  2  0  0  0  0
 10 11  1  0  0  0  0
 11 31  1  0  0  0  0
 11 32  1  0  0  0  0
 12 33  1  0  0  0  0
 12 11  1  0  0  0  0
 13 12  1  0  0  0  0
 13 25  2  0  0  0  0
 14 13  1  0  0  0  0
 15 14  2  0  0  0  0
 15 16  1  0  0  0  0
 16 17  1  0  0  0  0
 16 24  2  0  0  0  0
 18 20  1  0  0  0  0
 18 17  1  0  0  0  0
 19 39  1  0  0  0  0
 19 18  1  0  0  0  0
 20 41  1  0  0  0  0
 20 40  1  0  0  0  0
 21 23  1  0  0  0  0
 21 18  1  0  0  0  0
 22 21  2  0  0  0  0
 24 25  1  0  0  0  0
 24 44  1  0  0  0  0
 25 45  1  0  0  0  0
 28  6  1  0  0  0  0
 29  7  1  0  0  0  0
 30 10  1  0  0  0  0
 34 12  1  0  0  0  0
 35 14  1  0  0  0  0
 36 15  1  0  0  0  0
 37 19  1  0  0  0  0
 38 19  1  0  0  0  0
 42 20  1  0  0  0  0
 43 23  1  0  0  0  0
M  END
$$$$
