45

Cl         0.11130        0.41480        2.68090
C          1.53570        0.17400        1.69660
C          2.79860        0.20600        2.29540
C          3.92760       -0.04570        1.51570
C          3.80320       -0.32440        0.14700
C          2.53260       -0.28500       -0.43930
C          1.39370       -0.05530        0.32690
C          4.96380       -0.61230       -0.75980
O          4.97940       -0.19240       -1.90710
N          6.02400       -1.34120       -0.26340
C          6.00380       -2.37720        0.75830
C          5.41830       -3.72220        0.28380
C          3.95210       -3.63150       -0.06010
C          3.51080       -3.57390       -1.38380
C          2.15800       -3.40990       -1.70460
C          1.21410       -3.28530       -0.67900
O         -0.11720       -3.04610       -0.84600
C         -0.77210       -3.14250       -2.11050
C         -0.74700       -4.56890       -2.65690
C         -2.21060       -2.69160       -1.82600
C         -0.18630       -2.15130       -3.13330
O         -0.03980       -2.38400       -4.30610
O          0.08780       -0.95420       -2.58480
C          1.64050       -3.35570        0.65750
C          2.98510       -3.52510        0.95550
H          2.88880        0.42300        3.36060
H          4.91460       -0.00460        1.97960
H          2.44410       -0.47420       -1.50720
H          0.40650       -0.08710       -0.13220
H          6.72670       -1.46810       -0.98830
H          5.43560       -2.02660        1.62790
H          7.04050       -2.52660        1.10080
H          5.57540       -4.45950        1.08980
H          5.99110       -4.07800       -0.58840
H          4.23660       -3.64240       -2.19790
H          1.87330       -3.36670       -2.75440
H          0.27490       -4.92530       -2.83630
H         -1.29260       -4.61670       -3.60820
H         -1.22760       -5.23720       -1.92840
H         -2.21360       -1.67510       -1.40990
H         -2.66010       -3.37500       -1.09150
H         -2.80970       -2.70940       -2.74780
H          0.42710       -0.38460       -3.29720
H          0.89250       -3.24380        1.44370
H          3.29530       -3.55960        2.00350
