45
rmsd229.gzmat
Cl         0.00000        0.00000        0.00000
C          1.71400        0.00000        0.00000
C          2.37860        0.00000        1.21990
C          3.77200       -0.00240        1.20920
C          4.45780       -0.01240       -0.00690
C          3.76720        0.00310       -1.21910
C          2.37360        0.00450       -1.22150
C          5.94710       -0.00490        0.03330
O          6.58490        0.70040        0.78950
N          6.57480       -0.91440       -0.80150
C          8.02470       -0.83040       -0.99500
C          8.41080        0.24690       -2.04100
C          7.48060        0.19510       -3.21010
C          7.55120       -0.86520       -4.12230
C          6.61470       -0.98130       -5.13700
C          5.59630       -0.01740       -5.23390
O          4.72170       -0.32190       -6.23200
C          3.63470        0.52650       -6.56630
C          4.10750        1.86520       -7.10600
C          2.90070       -0.30460       -7.62260
C          2.70310        0.68410       -5.36580
O          2.74930        0.14740       -4.29370
O          1.70670        1.55330       -5.67140
C          5.53600        1.06750       -4.36480
C          6.49120        1.16630       -3.35440
H          1.83400        0.00450        2.16310
H          4.33270        0.01140        2.14730
H          4.30040        0.02440       -2.17450
H          1.82970        0.00280       -2.16850
H          6.05390       -1.37420       -1.53570
H          8.39100       -1.82960       -1.31610
H          8.51210       -0.59400       -0.01910
H          9.46140        0.10030       -2.35560
H          8.38690        1.24560       -1.55550
H          8.34090       -1.60920       -4.02700
H          6.64440       -1.80430       -5.84650
H          4.60060        2.48650       -6.34840
H          3.26810        2.45110       -7.50930
H          4.83610        1.72090       -7.91730
H          2.64890       -1.30530       -7.24320
H          3.52870       -0.45300       -8.51140
H          1.97230        0.18730       -7.93970
H          1.04940        1.67990       -4.94170
H          4.75940        1.82150       -4.43660
H          6.44780        2.00710       -2.66010
