45
rmsd218.gzmat
Cl         0.00000        0.00000        0.00000
C          1.71360        0.00000        0.00000
C          2.37830        0.00000        1.21860
C          3.77210        0.02470        1.20870
C          4.45570        0.02240       -0.00670
C          3.76470        0.02250       -1.22010
C          2.37150        0.01450       -1.22330
C          5.93980        0.10590       -0.06370
O          6.51000        1.04040       -0.59630
N          6.71820       -0.88260        0.51000
C          6.20650       -2.14010        1.04780
C          6.04990       -3.22660       -0.04390
C          4.60890       -3.53900       -0.30490
C          4.06760       -3.36750       -1.57920
C          2.73080       -3.67570       -1.82420
C          1.94980       -4.14140       -0.76890
O          0.67820       -4.60980       -1.00640
C         -0.39150       -3.67930       -1.05140
C         -0.18910       -2.59480       -2.09790
C         -1.58850       -4.58110       -1.35350
C         -0.56120       -3.02620        0.32270
O          0.21850       -2.94910        1.23200
O         -1.80270       -2.48440        0.42400
C          2.47080       -4.32370        0.51400
C          3.80870       -4.02520        0.73600
H          1.83180       -0.02100        2.16200
H          4.32100        0.05570        2.15070
H          4.31670        0.04450       -2.16210
H          1.82410        0.03280       -2.16480
H          7.72190       -0.81360        0.38780
H          5.23250       -1.96820        1.56180
H          6.91190       -2.49230        1.83550
H          6.57750       -4.15180        0.26760
H          6.56590       -2.90730       -0.97210
H          4.68970       -2.99780       -2.39210
H          2.31020       -3.57850       -2.82060
H          0.71500       -2.00120       -1.90790
H         -1.04330       -1.90260       -2.12440
H         -0.08680       -3.03170       -3.10000
H         -1.68340       -5.38290       -0.60860
H         -1.47810       -5.06570       -2.33220
H         -2.52490       -4.00730       -1.35460
H         -1.95660       -2.01080        1.27900
H          1.82970       -4.69030        1.31590
H          4.23340       -4.17330        1.72710
