rmsd119.gzmat
 OpenBabel08211713413D

 45 46  0  0  0  0  0  0  0  0999 V2000
    0.0000    0.0000    0.0000 Cl  0  0  0  0  0  0  0  0  0  0  0  0
    1.7144    0.0000    0.0000 C   0  0  0  0  0  0  0  0  0  0  0  0
    2.3679    0.0000    1.2259 C   0  0  0  0  0  0  0  0  0  0  0  0
    3.7589   -0.0671    1.2273 C   0  0  0  0  0  0  0  0  0  0  0  0
    4.4535   -0.1318    0.0164 C   0  0  0  0  0  0  0  0  0  0  0  0
    3.7776   -0.0655   -1.2006 C   0  0  0  0  0  0  0  0  0  0  0  0
    2.3838   -0.0132   -1.2160 C   0  0  0  0  0  0  0  0  0  0  0  0
    5.9348   -0.2261    0.1035 C   0  0  0  0  0  0  0  0  0  0  0  0
    6.5972    0.6027    0.7016 O   0  0  0  0  0  0  0  0  0  0  0  0
    6.6119   -1.2863   -0.4713 N   0  0  0  0  0  0  0  0  0  0  0  0
    6.0000   -2.4115   -1.1736 C   0  0  0  0  0  0  0  0  0  0  0  0
    5.4917   -3.5192   -0.2160 C   0  0  0  0  0  0  0  0  0  0  0  0
    3.9958   -3.5367   -0.1619 C   0  0  0  0  0  0  0  0  0  0  0  0
    3.2605   -3.7620   -1.3261 C   0  0  0  0  0  0  0  0  0  0  0  0
    1.8700   -3.6791   -1.3211 C   0  0  0  0  0  0  0  0  0  0  0  0
    1.2257   -3.3771   -0.1262 C   0  0  0  0  0  0  0  0  0  0  0  0
   -0.1080   -3.1992    0.0816 O   0  0  0  0  0  0  0  0  0  0  0  0
   -1.0808   -3.1914   -0.9489 C   0  0  0  0  0  0  0  0  0  0  0  0
   -1.1623   -4.5177   -1.6910 C   0  0  0  0  0  0  0  0  0  0  0  0
   -2.3478   -2.9050   -0.1368 C   0  0  0  0  0  0  0  0  0  0  0  0
   -0.7973   -2.0650   -1.9469 C   0  0  0  0  0  0  0  0  0  0  0  0
    0.2159   -1.8299   -2.5505 O   0  0  0  0  0  0  0  0  0  0  0  0
   -1.9078   -1.3161   -2.1520 O   0  0  0  0  0  0  0  0  0  0  0  0
    1.9416   -3.2182    1.0721 C   0  0  0  0  0  0  0  0  0  0  0  0
    3.3261   -3.2976    1.0422 C   0  0  0  0  0  0  0  0  0  0  0  0
    1.8148    0.0414    2.1635 H   0  0  0  0  0  0  0  0  0  0  0  0
    4.3090   -0.0651    2.1706 H   0  0  0  0  0  0  0  0  0  0  0  0
    4.3293   -0.0555   -2.1408 H   0  0  0  0  0  0  0  0  0  0  0  0
    1.8406   -0.0091   -2.1635 H   0  0  0  0  0  0  0  0  0  0  0  0
    7.6087   -1.3451   -0.2999 H   0  0  0  0  0  0  0  0  0  0  0  0
    6.7598   -2.8374   -1.8686 H   0  0  0  0  0  0  0  0  0  0  0  0
    5.1653   -2.0487   -1.8171 H   0  0  0  0  0  0  0  0  0  0  0  0
    5.9291   -3.3748    0.7923 H   0  0  0  0  0  0  0  0  0  0  0  0
    5.8680   -4.5066   -0.5502 H   0  0  0  0  0  0  0  0  0  0  0  0
    3.7737   -3.9891   -2.2594 H   0  0  0  0  0  0  0  0  0  0  0  0
    1.3234   -3.8131   -2.2499 H   0  0  0  0  0  0  0  0  0  0  0  0
   -0.3917   -4.6281   -2.4643 H   0  0  0  0  0  0  0  0  0  0  0  0
   -2.1356   -4.6456   -2.1815 H   0  0  0  0  0  0  0  0  0  0  0  0
   -1.0339   -5.3557   -0.9899 H   0  0  0  0  0  0  0  0  0  0  0  0
   -2.2566   -1.9609    0.4210 H   0  0  0  0  0  0  0  0  0  0  0  0
   -2.5317   -3.6987    0.5982 H   0  0  0  0  0  0  0  0  0  0  0  0
   -3.2283   -2.8169   -0.7851 H   0  0  0  0  0  0  0  0  0  0  0  0
   -1.7587   -0.5543   -2.7679 H   0  0  0  0  0  0  0  0  0  0  0  0
    1.4047   -3.0165    1.9958 H   0  0  0  0  0  0  0  0  0  0  0  0
    3.8926   -3.1557    1.9618 H   0  0  0  0  0  0  0  0  0  0  0  0
  1  2  1  0  0  0  0
  2  3  2  0  0  0  0
  3  4  1  0  0  0  0
  3 26  1  0  0  0  0
  4 27  1  0  0  0  0
  5  8  1  0  0  0  0
  5  4  2  0  0  0  0
  6  5  1  0  0  0  0
  7  6  2  0  0  0  0
  7  2  1  0  0  0  0
  8  9  2  0  0  0  0
 10 30  1  0  0  0  0
 10  8  1  0  0  0  0
 11 10  1  0  0  0  0
 11 12  1  0  0  0  0
 12 13  1  0  0  0  0
 12 33  1  0  0  0  0
 13 25  2  0  0  0  0
 14 15  2  0  0  0  0
 14 13  1  0  0  0  0
 15 16  1  0  0  0  0
 16 17  1  0  0  0  0
 16 24  2  0  0  0  0
 18 20  1  0  0  0  0
 18 17  1  0  0  0  0
 19 39  1  0  0  0  0
 19 18  1  0  0  0  0
 20 40  1  0  0  0  0
 20 41  1  0  0  0  0
 21 18  1  0  0  0  0
 22 21  2  0  0  0  0
 23 21  1  0  0  0  0
 24 44  1  0  0  0  0
 25 24  1  0  0  0  0
 25 45  1  0  0  0  0
 28  6  1  0  0  0  0
 29  7  1  0  0  0  0
 31 11  1  0  0  0  0
 32 11  1  0  0  0  0
 34 12  1  0  0  0  0
 35 14  1  0  0  0  0
 36 15  1  0  0  0  0
 37 19  1  0  0  0  0
 38 19  1  0  0  0  0
 42 20  1  0  0  0  0
 43 23  1  0  0  0  0
M  END
$$$$
