45
rmsd7.gzmat
Cl         0.00000        0.00000        0.00000
C          1.71310        0.00000        0.00000
C          2.36690        0.00000        1.22550
C          3.75810       -0.06560        1.22710
C          4.45340       -0.12860        0.01660
C          3.77740       -0.06400       -1.20070
C          2.38360       -0.01210       -1.21600
C          5.93480       -0.21700        0.10470
O          6.59250        0.61430        0.70490
N          6.61910       -1.26970       -0.47580
C          6.01380       -2.41270       -1.15390
C          5.58300       -3.53690       -0.17770
C          4.09990       -3.53540        0.02300
C          3.25140       -3.74070       -1.06580
C          1.86950       -3.64130       -0.92460
C          1.34840       -3.34520        0.33030
O          0.05060       -3.08920        0.65260
C         -1.05070       -3.39330       -0.18740
C         -1.03270       -4.82160       -0.70890
C         -2.21780       -3.14120        0.77160
C         -1.08180       -2.41460       -1.36830
O         -0.28290       -2.28930       -2.25830
O         -2.21500       -1.67270       -1.35450
C          2.17990       -3.20970        1.45490
C          3.55430       -3.30030        1.28880
H          1.81410        0.03800        2.16360
H          4.30760       -0.06640        2.17090
H          4.33070       -0.05300       -2.14010
H          1.84010       -0.00000       -2.16140
H          7.61650       -1.32250       -0.30200
H          6.75830       -2.81420       -1.87980
H          5.14130       -2.07840       -1.76070
H          6.12020       -3.42530        0.78570
H          5.90770       -4.52010       -0.57380
H          3.66770       -3.96400       -2.04740
H          1.23380       -3.75950       -1.79960
H         -0.34560       -4.96160       -1.55440
H         -2.02780       -5.14280       -1.04290
H         -0.71140       -5.51540        0.08220
H         -2.16780       -2.12430        1.19240
H         -2.19570       -3.84320        1.61370
H         -3.18370       -3.23340        0.26060
H         -2.25200       -1.00050       -2.08200
H          1.73840       -3.01520        2.42930
H          4.20970       -3.17400        2.14980
