rmsd123.gzmat
 OpenBabel08211713413D

 45 46  0  0  0  0  0  0  0  0999 V2000
    0.0000    0.0000    0.0000 Cl  0  0  0  0  0  0  0  0  0  0  0  0
    1.7144    0.0000    0.0000 C   0  0  0  0  0  0  0  0  0  0  0  0
    2.3838    0.0000    1.2161 C   0  0  0  0  0  0  0  0  0  0  0  0
    3.7774   -0.0536    1.2013 C   0  0  0  0  0  0  0  0  0  0  0  0
    4.4534   -0.1332   -0.0151 C   0  0  0  0  0  0  0  0  0  0  0  0
    3.7587   -0.0825   -1.2268 C   0  0  0  0  0  0  0  0  0  0  0  0
    2.3675   -0.0150   -1.2261 C   0  0  0  0  0  0  0  0  0  0  0  0
    5.9348   -0.2260   -0.1019 C   0  0  0  0  0  0  0  0  0  0  0  0
    6.5936    0.5908   -0.7206 O   0  0  0  0  0  0  0  0  0  0  0  0
    6.6172   -1.2699    0.4964 N   0  0  0  0  0  0  0  0  0  0  0  0
    6.0110   -2.3882    1.2142 C   0  0  0  0  0  0  0  0  0  0  0  0
    5.5040   -3.5099    0.2720 C   0  0  0  0  0  0  0  0  0  0  0  0
    4.0085   -3.5269    0.2133 C   0  0  0  0  0  0  0  0  0  0  0  0
    3.3433   -3.3111   -0.9979 C   0  0  0  0  0  0  0  0  0  0  0  0
    1.9589   -3.2313   -1.0345 C   0  0  0  0  0  0  0  0  0  0  0  0
    1.2383   -3.3647    0.1644 C   0  0  0  0  0  0  0  0  0  0  0  0
   -0.0937   -3.1819   -0.0504 O   0  0  0  0  0  0  0  0  0  0  0  0
   -1.0726   -3.1795    0.9748 C   0  0  0  0  0  0  0  0  0  0  0  0
   -2.3381   -2.9116    0.1546 C   0  0  0  0  0  0  0  0  0  0  0  0
   -1.1430   -4.5030    1.7236 C   0  0  0  0  0  0  0  0  0  0  0  0
   -0.8042   -2.0437    1.9670 C   0  0  0  0  0  0  0  0  0  0  0  0
    0.2020   -1.8028    2.5797 O   0  0  0  0  0  0  0  0  0  0  0  0
   -1.9183   -1.2962    2.1558 O   0  0  0  0  0  0  0  0  0  0  0  0
    1.8780   -3.6446    1.3670 C   0  0  0  0  0  0  0  0  0  0  0  0
    3.2683   -3.7287    1.3791 C   0  0  0  0  0  0  0  0  0  0  0  0
    1.8399    0.0150    2.1631 H   0  0  0  0  0  0  0  0  0  0  0  0
    4.3287   -0.0339    2.1413 H   0  0  0  0  0  0  0  0  0  0  0  0
    4.3089   -0.0926   -2.1700 H   0  0  0  0  0  0  0  0  0  0  0  0
    1.8142    0.0151   -2.1641 H   0  0  0  0  0  0  0  0  0  0  0  0
    7.6141   -1.3277    0.3239 H   0  0  0  0  0  0  0  0  0  0  0  0
    5.1769   -2.0203    1.8553 H   0  0  0  0  0  0  0  0  0  0  0  0
    6.7743   -2.8026    1.9122 H   0  0  0  0  0  0  0  0  0  0  0  0
    5.8779   -4.4925    0.6232 H   0  0  0  0  0  0  0  0  0  0  0  0
    5.9451   -3.3814   -0.7369 H   0  0  0  0  0  0  0  0  0  0  0  0
    3.9133   -3.1868   -1.9179 H   0  0  0  0  0  0  0  0  0  0  0  0
    1.4258   -3.0473   -1.9640 H   0  0  0  0  0  0  0  0  0  0  0  0
   -2.2418   -1.9861   -0.4332 H   0  0  0  0  0  0  0  0  0  0  0  0
   -3.2175   -2.7971    0.8003 H   0  0  0  0  0  0  0  0  0  0  0  0
   -2.5271   -3.7264   -0.5552 H   0  0  0  0  0  0  0  0  0  0  0  0
   -0.3892   -4.5922    2.5162 H   0  0  0  0  0  0  0  0  0  0  0  0
   -0.9796   -5.3423    1.0308 H   0  0  0  0  0  0  0  0  0  0  0  0
   -2.1252   -4.6499    2.1910 H   0  0  0  0  0  0  0  0  0  0  0  0
   -1.7775   -0.5298    2.7678 H   0  0  0  0  0  0  0  0  0  0  0  0
    1.3280   -3.7603    2.2966 H   0  0  0  0  0  0  0  0  0  0  0  0
    3.7773   -3.9386    2.3189 H   0  0  0  0  0  0  0  0  0  0  0  0
  1  2  1  0  0  0  0
  2  3  2  0  0  0  0
  3 26  1  0  0  0  0
  4  3  1  0  0  0  0
  4 27  1  0  0  0  0
  5  4  2  0  0  0  0
  6  7  2  0  0  0  0
  6  5  1  0  0  0  0
  7  2  1  0  0  0  0
  8  5  1  0  0  0  0
  8 10  1  0  0  0  0
  9  8  2  0  0  0  0
 10 11  1  0  0  0  0
 11 31  1  0  0  0  0
 11 32  1  0  0  0  0
 12 33  1  0  0  0  0
 12 11  1  0  0  0  0
 13 12  1  0  0  0  0
 13 25  2  0  0  0  0
 14 13  1  0  0  0  0
 15 14  2  0  0  0  0
 15 16  1  0  0  0  0
 16 24  2  0  0  0  0
 17 16  1  0  0  0  0
 17 18  1  0  0  0  0
 18 20  1  0  0  0  0
 18 21  1  0  0  0  0
 19 38  1  0  0  0  0
 19 18  1  0  0  0  0
 20 42  1  0  0  0  0
 20 40  1  0  0  0  0
 21 23  1  0  0  0  0
 21 22  2  0  0  0  0
 23 43  1  0  0  0  0
 24 25  1  0  0  0  0
 24 44  1  0  0  0  0
 25 45  1  0  0  0  0
 28  6  1  0  0  0  0
 29  7  1  0  0  0  0
 30 10  1  0  0  0  0
 34 12  1  0  0  0  0
 35 14  1  0  0  0  0
 36 15  1  0  0  0  0
 37 19  1  0  0  0  0
 39 19  1  0  0  0  0
 41 20  1  0  0  0  0
M  END
$$$$
