45

Cl         0.15530        0.04360       -0.65150
C          1.88990        0.05950       -0.39900
C          2.41450       -0.36580        0.82090
C          3.79900       -0.35700        0.99250
C          4.65030        0.07130       -0.03430
C          4.09200        0.52170       -1.23950
C          2.71400        0.50680       -1.43480
C          6.14520        0.15260        0.09220
O          6.76190        1.07610       -0.41870
N          6.80290       -0.83310        0.78420
C          6.36750       -2.18910        1.09710
C          5.80920       -3.01250       -0.09900
C          4.34510       -3.37920        0.00160
C          3.44380       -3.10740       -1.03210
C          2.09620       -3.47320       -0.94670
C          1.61890       -4.10980        0.20400
O          0.34720       -4.60800        0.34420
C         -0.84540       -3.83730        0.25180
C         -1.16190       -3.38080       -1.18050
C         -1.93890       -4.78530        0.76380
C         -0.77430       -2.63600        1.20470
O          0.11940       -2.40320        1.97840
O         -1.87020       -1.86360        1.09920
C          2.50880       -4.37990        1.25150
C          3.85030       -4.03050        1.14390
H          1.75350       -0.72930        1.60740
H          4.20840       -0.68220        1.94850
H          4.76010        0.89050       -2.01940
H          2.27400        0.84310       -2.37450
H          7.80550       -0.67290        0.77300
H          5.62830       -2.18340        1.91170
H          7.25380       -2.69090        1.50970
H          6.39670       -3.94300       -0.18230
H          5.99160       -2.45820       -1.03110
H          3.79580       -2.59460       -1.93030
H          1.43310       -3.27230       -1.78560
H         -0.49470       -2.57800       -1.51500
H         -2.18990       -2.99800       -1.23260
H         -1.06520       -4.24390       -1.85500
H         -1.69450       -5.12320        1.78100
H         -1.98080       -5.66590        0.10650
H         -2.91720       -4.28680        0.76880
H         -1.74390       -1.10950        1.70050
H          2.11860       -4.87390        2.14200
H          4.52630       -4.27130        1.96950
