rmsd7.gzmat
 OpenBabel08211713413D

 45 46  0  0  0  0  0  0  0  0999 V2000
    0.0000    0.0000    0.0000 Cl  0  0  0  0  0  0  0  0  0  0  0  0
    1.7131    0.0000    0.0000 C   0  0  0  0  0  0  0  0  0  0  0  0
    2.3669    0.0000    1.2255 C   0  0  0  0  0  0  0  0  0  0  0  0
    3.7581   -0.0656    1.2271 C   0  0  0  0  0  0  0  0  0  0  0  0
    4.4534   -0.1286    0.0166 C   0  0  0  0  0  0  0  0  0  0  0  0
    3.7774   -0.0640   -1.2007 C   0  0  0  0  0  0  0  0  0  0  0  0
    2.3836   -0.0121   -1.2160 C   0  0  0  0  0  0  0  0  0  0  0  0
    5.9348   -0.2170    0.1047 C   0  0  0  0  0  0  0  0  0  0  0  0
    6.5925    0.6143    0.7049 O   0  0  0  0  0  0  0  0  0  0  0  0
    6.6191   -1.2697   -0.4758 N   0  0  0  0  0  0  0  0  0  0  0  0
    6.0138   -2.4127   -1.1539 C   0  0  0  0  0  0  0  0  0  0  0  0
    5.5830   -3.5369   -0.1777 C   0  0  0  0  0  0  0  0  0  0  0  0
    4.0999   -3.5354    0.0230 C   0  0  0  0  0  0  0  0  0  0  0  0
    3.2514   -3.7407   -1.0658 C   0  0  0  0  0  0  0  0  0  0  0  0
    1.8695   -3.6413   -0.9246 C   0  0  0  0  0  0  0  0  0  0  0  0
    1.3484   -3.3452    0.3303 C   0  0  0  0  0  0  0  0  0  0  0  0
    0.0506   -3.0892    0.6526 O   0  0  0  0  0  0  0  0  0  0  0  0
   -1.0507   -3.3933   -0.1874 C   0  0  0  0  0  0  0  0  0  0  0  0
   -1.0327   -4.8216   -0.7089 C   0  0  0  0  0  0  0  0  0  0  0  0
   -2.2178   -3.1412    0.7716 C   0  0  0  0  0  0  0  0  0  0  0  0
   -1.0818   -2.4146   -1.3683 C   0  0  0  0  0  0  0  0  0  0  0  0
   -0.2829   -2.2893   -2.2583 O   0  0  0  0  0  0  0  0  0  0  0  0
   -2.2150   -1.6727   -1.3545 O   0  0  0  0  0  0  0  0  0  0  0  0
    2.1799   -3.2097    1.4549 C   0  0  0  0  0  0  0  0  0  0  0  0
    3.5543   -3.3003    1.2888 C   0  0  0  0  0  0  0  0  0  0  0  0
    1.8141    0.0380    2.1636 H   0  0  0  0  0  0  0  0  0  0  0  0
    4.3076   -0.0664    2.1709 H   0  0  0  0  0  0  0  0  0  0  0  0
    4.3307   -0.0530   -2.1401 H   0  0  0  0  0  0  0  0  0  0  0  0
    1.8401   -0.0000   -2.1614 H   0  0  0  0  0  0  0  0  0  0  0  0
    7.6165   -1.3225   -0.3020 H   0  0  0  0  0  0  0  0  0  0  0  0
    6.7583   -2.8142   -1.8798 H   0  0  0  0  0  0  0  0  0  0  0  0
    5.1413   -2.0784   -1.7607 H   0  0  0  0  0  0  0  0  0  0  0  0
    6.1202   -3.4253    0.7857 H   0  0  0  0  0  0  0  0  0  0  0  0
    5.9077   -4.5201   -0.5738 H   0  0  0  0  0  0  0  0  0  0  0  0
    3.6677   -3.9640   -2.0474 H   0  0  0  0  0  0  0  0  0  0  0  0
    1.2338   -3.7595   -1.7996 H   0  0  0  0  0  0  0  0  0  0  0  0
   -0.3456   -4.9616   -1.5544 H   0  0  0  0  0  0  0  0  0  0  0  0
   -2.0278   -5.1428   -1.0429 H   0  0  0  0  0  0  0  0  0  0  0  0
   -0.7114   -5.5154    0.0822 H   0  0  0  0  0  0  0  0  0  0  0  0
   -2.1678   -2.1243    1.1924 H   0  0  0  0  0  0  0  0  0  0  0  0
   -2.1957   -3.8432    1.6137 H   0  0  0  0  0  0  0  0  0  0  0  0
   -3.1837   -3.2334    0.2606 H   0  0  0  0  0  0  0  0  0  0  0  0
   -2.2520   -1.0005   -2.0820 H   0  0  0  0  0  0  0  0  0  0  0  0
    1.7384   -3.0152    2.4293 H   0  0  0  0  0  0  0  0  0  0  0  0
    4.2097   -3.1740    2.1498 H   0  0  0  0  0  0  0  0  0  0  0  0
  1  2  1  0  0  0  0
  2  3  2  0  0  0  0
  3  4  1  0  0  0  0
  3 26  1  0  0  0  0
  4 27  1  0  0  0  0
  5  8  1  0  0  0  0
  5  4  2  0  0  0  0
  6  5  1  0  0  0  0
  7  6  2  0  0  0  0
  7  2  1  0  0  0  0
  8  9  2  0  0  0  0
 10 30  1  0  0  0  0
 10  8  1  0  0  0  0
 11 10  1  0  0  0  0
 11 12  1  0  0  0  0
 12 13  1  0  0  0  0
 12 33  1  0  0  0  0
 13 25  2  0  0  0  0
 14 15  2  0  0  0  0
 14 13  1  0  0  0  0
 15 16  1  0  0  0  0
 16 17  1  0  0  0  0
 16 24  2  0  0  0  0
 18 17  1  0  0  0  0
 18 20  1  0  0  0  0
 19 18  1  0  0  0  0
 19 39  1  0  0  0  0
 20 40  1  0  0  0  0
 20 41  1  0  0  0  0
 21 23  1  0  0  0  0
 21 18  1  0  0  0  0
 22 21  2  0  0  0  0
 24 44  1  0  0  0  0
 25 24  1  0  0  0  0
 25 45  1  0  0  0  0
 28  6  1  0  0  0  0
 29  7  1  0  0  0  0
 31 11  1  0  0  0  0
 32 11  1  0  0  0  0
 34 12  1  0  0  0  0
 35 14  1  0  0  0  0
 36 15  1  0  0  0  0
 37 19  1  0  0  0  0
 38 19  1  0  0  0  0
 42 20  1  0  0  0  0
 43 23  1  0  0  0  0
M  END
$$$$
