45
rmsd123.gzmat
Cl         0.00000        0.00000        0.00000
C          1.71440        0.00000        0.00000
C          2.38380        0.00000        1.21610
C          3.77740       -0.05360        1.20130
C          4.45340       -0.13320       -0.01510
C          3.75870       -0.08250       -1.22680
C          2.36750       -0.01500       -1.22610
C          5.93480       -0.22600       -0.10190
O          6.59360        0.59080       -0.72060
N          6.61720       -1.26990        0.49640
C          6.01100       -2.38820        1.21420
C          5.50400       -3.50990        0.27200
C          4.00850       -3.52690        0.21330
C          3.34330       -3.31110       -0.99790
C          1.95890       -3.23130       -1.03450
C          1.23830       -3.36470        0.16440
O         -0.09370       -3.18190       -0.05040
C         -1.07260       -3.17950        0.97480
C         -2.33810       -2.91160        0.15460
C         -1.14300       -4.50300        1.72360
C         -0.80420       -2.04370        1.96700
O          0.20200       -1.80280        2.57970
O         -1.91830       -1.29620        2.15580
C          1.87800       -3.64460        1.36700
C          3.26830       -3.72870        1.37910
H          1.83990        0.01500        2.16310
H          4.32870       -0.03390        2.14130
H          4.30890       -0.09260       -2.17000
H          1.81420        0.01510       -2.16410
H          7.61410       -1.32770        0.32390
H          5.17690       -2.02030        1.85530
H          6.77430       -2.80260        1.91220
H          5.87790       -4.49250        0.62320
H          5.94510       -3.38140       -0.73690
H          3.91330       -3.18680       -1.91790
H          1.42580       -3.04730       -1.96400
H         -2.24180       -1.98610       -0.43320
H         -3.21750       -2.79710        0.80030
H         -2.52710       -3.72640       -0.55520
H         -0.38920       -4.59220        2.51620
H         -0.97960       -5.34230        1.03080
H         -2.12520       -4.64990        2.19100
H         -1.77750       -0.52980        2.76780
H          1.32800       -3.76030        2.29660
H          3.77730       -3.93860        2.31890
