35
rmsd27.gzmat
Br         0.00000        0.00000        0.00000
C          1.89750        0.00000        0.00000
C          2.56850        0.00000        1.21710
C          3.96190       -0.00530        1.22170
C          4.62850       -0.01060       -0.00100
O          5.99650       -0.05920       -0.13640
C          6.74780        0.15110        1.00790
C          7.37290       -0.89150        1.56380
C          8.37110       -0.88010        2.68870
C          9.11580       -2.22990        2.69660
C          9.40140        0.24520        2.52240
C          7.60670       -0.71460        4.01110
N          6.80320        1.53320        1.30660
N          6.39360        2.02570        2.51490
C          6.46600        3.36900        2.38770
N          6.89510        3.74190        1.11360
C          7.08820        2.59850        0.44260
C          3.95810       -0.00290       -1.22870
C          2.56780        0.00070       -1.22030
H          2.02890        0.00590        2.16590
H          4.50900        0.00490        2.16460
H          7.13820       -1.89030        1.16880
H          8.42970       -3.07050        2.84200
H          9.84980       -2.26790        3.50890
H          9.65710       -2.39260        1.75890
H          8.95610        1.23410        2.67950
H          9.85280        0.23340        1.52540
H         10.21160        0.14830        3.25420
H          7.04830        0.23220        4.03780
H          8.29190       -0.70890        4.86480
H          6.88520       -1.52280        4.16570
H          6.22560        4.08140        3.16050
H          7.41450        2.48110       -0.57820
H          4.52090       -0.00080       -2.16010
H          2.02350        0.00610       -2.16580
