rmsd107.gzmat
 OpenBabel08211713393D

 35 36  0  0  0  0  0  0  0  0999 V2000
    0.0000    0.0000    0.0000 Br  0  0  0  0  0  0  0  0  0  0  0  0
    1.8977    0.0000    0.0000 C   0  0  0  0  0  0  0  0  0  0  0  0
    2.5684    0.0000    1.2205 C   0  0  0  0  0  0  0  0  0  0  0  0
    3.9588   -0.0064    1.2287 C   0  0  0  0  0  0  0  0  0  0  0  0
    4.6299   -0.0145    0.0009 C   0  0  0  0  0  0  0  0  0  0  0  0
    5.9982   -0.0635    0.1369 O   0  0  0  0  0  0  0  0  0  0  0  0
    6.7482    0.1214   -1.0132 C   0  0  0  0  0  0  0  0  0  0  0  0
    7.3559   -0.9357   -1.5611 C   0  0  0  0  0  0  0  0  0  0  0  0
    8.3295   -0.9523   -2.7078 C   0  0  0  0  0  0  0  0  0  0  0  0
    9.0601   -2.3096   -2.7132 C   0  0  0  0  0  0  0  0  0  0  0  0
    7.5303   -0.7991   -4.0117 C   0  0  0  0  0  0  0  0  0  0  0  0
    9.3750    0.1650   -2.5885 C   0  0  0  0  0  0  0  0  0  0  0  0
    6.8224    1.4983   -1.3324 N   0  0  0  0  0  0  0  0  0  0  0  0
    6.3694    1.9838   -2.5286 N   0  0  0  0  0  0  0  0  0  0  0  0
    6.4692    3.3272   -2.4214 C   0  0  0  0  0  0  0  0  0  0  0  0
    6.9588    3.7073   -1.1712 N   0  0  0  0  0  0  0  0  0  0  0  0
    7.1613    2.5686   -0.4948 C   0  0  0  0  0  0  0  0  0  0  0  0
    3.9625   -0.0074   -1.2213 C   0  0  0  0  0  0  0  0  0  0  0  0
    2.5690    0.0002   -1.2170 C   0  0  0  0  0  0  0  0  0  0  0  0
    2.0232    0.0072    2.1659 H   0  0  0  0  0  0  0  0  0  0  0  0
    4.5212   -0.0058    2.1602 H   0  0  0  0  0  0  0  0  0  0  0  0
    7.1180   -1.9260   -1.1464 H   0  0  0  0  0  0  0  0  0  0  0  0
    9.6236   -2.4644   -1.7871 H   0  0  0  0  0  0  0  0  0  0  0  0
    9.7737   -2.3671   -3.5425 H   0  0  0  0  0  0  0  0  0  0  0  0
    8.3631   -3.1458   -2.8287 H   0  0  0  0  0  0  0  0  0  0  0  0
    7.0120    0.1695   -4.0537 H   0  0  0  0  0  0  0  0  0  0  0  0
    6.7702   -1.5798   -4.1158 H   0  0  0  0  0  0  0  0  0  0  0  0
    8.1871   -0.8526   -4.8856 H   0  0  0  0  0  0  0  0  0  0  0  0
    8.9361    1.1554   -2.7543 H   0  0  0  0  0  0  0  0  0  0  0  0
   10.1663    0.0456   -3.3380 H   0  0  0  0  0  0  0  0  0  0  0  0
    9.8518    0.1681   -1.6031 H   0  0  0  0  0  0  0  0  0  0  0  0
    6.2069    4.0337   -3.1926 H   0  0  0  0  0  0  0  0  0  0  0  0
    7.5296    2.4583    0.5120 H   0  0  0  0  0  0  0  0  0  0  0  0
    4.5091    0.0024   -2.1648 H   0  0  0  0  0  0  0  0  0  0  0  0
    2.0294    0.0067   -2.1661 H   0  0  0  0  0  0  0  0  0  0  0  0
  1  2  1  0  0  0  0
  2  3  2  0  0  0  0
  3  4  1  0  0  0  0
  3 20  1  0  0  0  0
  4 21  1  0  0  0  0
  5  6  1  0  0  0  0
  5  4  2  0  0  0  0
  7  6  1  0  0  0  0
  8 22  1  0  0  0  0
  8  7  2  0  0  0  0
  9 12  1  0  0  0  0
  9  8  1  0  0  0  0
 10  9  1  0  0  0  0
 10 23  1  0  0  0  0
 11  9  1  0  0  0  0
 12 31  1  0  0  0  0
 13  7  1  0  0  0  0
 13 17  1  0  0  0  0
 14 15  2  0  0  0  0
 14 13  1  0  0  0  0
 15 16  2  0  0  0  0
 16 17  2  0  0  0  0
 17 33  1  0  0  0  0
 18 19  2  0  0  0  0
 18  5  1  0  0  0  0
 19  2  1  0  0  0  0
 24 10  1  0  0  0  0
 25 10  1  0  0  0  0
 26 11  1  0  0  0  0
 27 11  1  0  0  0  0
 28 11  1  0  0  0  0
 29 12  1  0  0  0  0
 30 12  1  0  0  0  0
 32 15  1  0  0  0  0
 34 18  1  0  0  0  0
 35 19  1  0  0  0  0
M  END
$$$$
