rmsd103.gzmat
 OpenBabel08211713393D

 35 36  0  0  0  0  0  0  0  0999 V2000
    0.0000    0.0000    0.0000 Br  0  0  0  0  0  0  0  0  0  0  0  0
    1.8978    0.0000    0.0000 C   0  0  0  0  0  0  0  0  0  0  0  0
    2.5683    0.0000    1.2206 C   0  0  0  0  0  0  0  0  0  0  0  0
    3.9586    0.0066    1.2276 C   0  0  0  0  0  0  0  0  0  0  0  0
    4.6300    0.0031   -0.0006 C   0  0  0  0  0  0  0  0  0  0  0  0
    5.9975   -0.0282    0.1402 O   0  0  0  0  0  0  0  0  0  0  0  0
    6.7626    0.1744   -0.9949 C   0  0  0  0  0  0  0  0  0  0  0  0
    7.4642   -0.8557   -1.4786 C   0  0  0  0  0  0  0  0  0  0  0  0
    8.5017   -0.8370   -2.5679 C   0  0  0  0  0  0  0  0  0  0  0  0
    9.3244   -2.1380   -2.4829 C   0  0  0  0  0  0  0  0  0  0  0  0
    7.7774   -0.7791   -3.9216 C   0  0  0  0  0  0  0  0  0  0  0  0
    9.4575    0.3553   -2.4209 C   0  0  0  0  0  0  0  0  0  0  0  0
    6.7607    1.5423   -1.3603 N   0  0  0  0  0  0  0  0  0  0  0  0
    6.3368    1.9579   -2.5926 N   0  0  0  0  0  0  0  0  0  0  0  0
    6.3625    3.3078   -2.5347 C   0  0  0  0  0  0  0  0  0  0  0  0
    6.7783    3.7598   -1.2819 N   0  0  0  0  0  0  0  0  0  0  0  0
    7.0103    2.6595   -0.5533 C   0  0  0  0  0  0  0  0  0  0  0  0
    3.9629   -0.0024   -1.2226 C   0  0  0  0  0  0  0  0  0  0  0  0
    2.5691    0.0008   -1.2171 C   0  0  0  0  0  0  0  0  0  0  0  0
    2.0240   -0.0024    2.1668 H   0  0  0  0  0  0  0  0  0  0  0  0
    4.5214    0.0130    2.1588 H   0  0  0  0  0  0  0  0  0  0  0  0
    7.2741   -1.8468   -1.0434 H   0  0  0  0  0  0  0  0  0  0  0  0
    9.8325   -2.2267   -1.5168 H   0  0  0  0  0  0  0  0  0  0  0  0
   10.0947   -2.1660   -3.2614 H   0  0  0  0  0  0  0  0  0  0  0  0
    8.6960   -3.0245   -2.6169 H   0  0  0  0  0  0  0  0  0  0  0  0
    7.1665    0.1305   -4.0118 H   0  0  0  0  0  0  0  0  0  0  0  0
    7.1086   -1.6346   -4.0606 H   0  0  0  0  0  0  0  0  0  0  0  0
    8.4916   -0.7741   -4.7514 H   0  0  0  0  0  0  0  0  0  0  0  0
    8.9649    1.3053   -2.6566 H   0  0  0  0  0  0  0  0  0  0  0  0
   10.3075    0.2660   -3.1074 H   0  0  0  0  0  0  0  0  0  0  0  0
    9.8598    0.4273   -1.4053 H   0  0  0  0  0  0  0  0  0  0  0  0
    6.0973    3.9705   -3.3430 H   0  0  0  0  0  0  0  0  0  0  0  0
    7.3418    2.6061    0.4709 H   0  0  0  0  0  0  0  0  0  0  0  0
    4.5098    0.0010   -2.1661 H   0  0  0  0  0  0  0  0  0  0  0  0
    2.0287    0.0054   -2.1658 H   0  0  0  0  0  0  0  0  0  0  0  0
  1  2  1  0  0  0  0
  2  3  2  0  0  0  0
  3  4  1  0  0  0  0
  3 20  1  0  0  0  0
  4 21  1  0  0  0  0
  5  6  1  0  0  0  0
  5  4  2  0  0  0  0
  7  6  1  0  0  0  0
  8 22  1  0  0  0  0
  8  7  2  0  0  0  0
  9 10  1  0  0  0  0
  9 12  1  0  0  0  0
  9  8  1  0  0  0  0
 10 23  1  0  0  0  0
 11  9  1  0  0  0  0
 12 31  1  0  0  0  0
 13  7  1  0  0  0  0
 13 17  1  0  0  0  0
 14 15  2  0  0  0  0
 14 13  1  0  0  0  0
 15 16  2  0  0  0  0
 16 17  2  0  0  0  0
 17 33  1  0  0  0  0
 18 19  2  0  0  0  0
 18  5  1  0  0  0  0
 19  2  1  0  0  0  0
 24 10  1  0  0  0  0
 25 10  1  0  0  0  0
 26 11  1  0  0  0  0
 27 11  1  0  0  0  0
 28 11  1  0  0  0  0
 29 12  1  0  0  0  0
 30 12  1  0  0  0  0
 32 15  1  0  0  0  0
 34 18  1  0  0  0  0
 35 19  1  0  0  0  0
M  END
$$$$
