35
rmsd11.gzmat
Br         0.00000        0.00000        0.00000
C          1.89800        0.00000        0.00000
C          2.56710        0.00000        1.22120
C          3.95750       -0.00490        1.23070
C          4.63020       -0.00880        0.00350
O          5.99840        0.02350        0.14250
C          6.75330       -0.18370       -0.99970
C          7.40100        0.85410       -1.53840
C          8.39650        0.83790       -2.66610
C          9.17550        2.16770       -2.65190
C          9.39770       -0.31720       -2.52920
C          7.61890        0.71540       -3.98600
N          6.79460       -1.56190       -1.32090
N          6.31330       -2.03600       -2.51020
C          6.38970       -3.38130       -2.40720
N          6.89530       -3.77330       -1.16740
C          7.13010       -2.63990       -0.49230
C          3.96420       -0.00980       -1.21940
C          2.57100       -0.00550       -1.21610
H          2.02110        0.00290        2.16630
H          4.51900       -0.00520        2.16260
H          7.18670        1.85200       -1.13040
H          8.51080        3.03010       -2.76740
H          9.89940        2.20710       -3.47320
H          9.73380        2.29240       -1.71790
H          8.92640       -1.28900       -2.71640
H          9.84850       -0.34600       -1.53220
H         10.21280       -0.22050       -3.25610
H          7.06100       -0.23090       -4.03670
H          8.29550        0.73900       -4.84650
H          6.89500        1.52740       -4.10630
H          6.10100       -4.08170       -3.17430
H          7.51940       -2.53770        0.50750
H          4.51220       -0.02600       -2.16210
H          2.03320       -0.00920       -2.16580
