35
rmsd20.gzmat
Br         0.00000        0.00000        0.00000
C          1.89750        0.00000        0.00000
C          2.56670        0.00000        1.21830
C          3.96030        0.00530        1.22680
C          4.63000        0.00720        0.00620
O          5.99760        0.04000       -0.13300
C          6.75700       -0.02310        1.02270
C          7.33730        1.09380        1.47430
C          8.33550        1.22570        2.59240
C          8.98690        2.62070        2.51580
C          7.58910        1.09640        3.92880
C          9.43950        0.16430        2.48490
N          6.89370       -1.36620        1.44960
N          6.46310       -1.78000        2.67990
C          6.67410       -3.11500        2.69380
N          7.21610       -3.56130        1.48860
C          7.33690       -2.47310        0.71550
C          3.96070        0.00260       -1.22340
C          2.57040        0.00120       -1.21880
H          2.02420       -0.00490        2.16560
H          4.50390       -0.00270        2.17250
H          7.06360        2.04030        0.98670
H          9.52530        2.76140        1.57280
H          9.70860        2.75900        3.32910
H          8.24400        3.42030        2.60530
H          7.13120        0.10360        4.04340
H          6.78640        1.83630        4.01530
H          8.26870        1.23810        4.77520
H          9.06480       -0.84090        2.70780
H         10.24730        0.36190        3.19920
H          9.88260        0.14530        1.48400
H          6.45640       -3.77040        3.52190
H          7.71170       -2.42170       -0.29350
H          4.52450        0.00220       -2.15390
H          2.02790        0.00100       -2.16580
