35
rmsd107.gzmat
Br         0.00000        0.00000        0.00000
C          1.89770        0.00000        0.00000
C          2.56840        0.00000        1.22050
C          3.95880       -0.00640        1.22870
C          4.62990       -0.01450        0.00090
O          5.99820       -0.06350        0.13690
C          6.74820        0.12140       -1.01320
C          7.35590       -0.93570       -1.56110
C          8.32950       -0.95230       -2.70780
C          9.06010       -2.30960       -2.71320
C          7.53030       -0.79910       -4.01170
C          9.37500        0.16500       -2.58850
N          6.82240        1.49830       -1.33240
N          6.36940        1.98380       -2.52860
C          6.46920        3.32720       -2.42140
N          6.95880        3.70730       -1.17120
C          7.16130        2.56860       -0.49480
C          3.96250       -0.00740       -1.22130
C          2.56900        0.00020       -1.21700
H          2.02320        0.00720        2.16590
H          4.52120       -0.00580        2.16020
H          7.11800       -1.92600       -1.14640
H          9.62360       -2.46440       -1.78710
H          9.77370       -2.36710       -3.54250
H          8.36310       -3.14580       -2.82870
H          7.01200        0.16950       -4.05370
H          6.77020       -1.57980       -4.11580
H          8.18710       -0.85260       -4.88560
H          8.93610        1.15540       -2.75430
H         10.16630        0.04560       -3.33800
H          9.85180        0.16810       -1.60310
H          6.20690        4.03370       -3.19260
H          7.52960        2.45830        0.51200
H          4.50910        0.00240       -2.16480
H          2.02940        0.00670       -2.16610
