35
rmsd28.gzmat
Br         0.00000        0.00000        0.00000
C          1.89800        0.00000        0.00000
C          2.56930        0.00000        1.21710
C          3.96300       -0.00430        1.22220
C          4.63070       -0.00490        0.00020
O          5.99870       -0.04060       -0.13950
C          6.75530        0.10190        1.01090
C          7.36740       -0.97380        1.51630
C          8.35890       -1.02320        2.64690
C          9.05390       -2.39910        2.63290
C          9.43060        0.06720        2.50680
C          7.59190       -0.85560        3.96760
N          6.84350        1.46600        1.38110
N          6.33070        1.92070        2.56480
C          6.48210        3.26300        2.51920
N          7.06700        3.67280        1.32050
C          7.27440        2.55410        0.61220
C          3.95940       -0.00090       -1.22790
C          2.56910        0.00030       -1.22040
H          2.02970        0.00550        2.16600
H          4.50870        0.00550        2.16660
H          7.12550       -1.95010        1.07290
H          8.33780       -3.21590        2.77210
H          9.79100       -2.47430        3.44020
H          9.58490       -2.57050        1.69040
H          9.01830        1.07000        2.66400
H          9.90010        0.04690        1.51820
H         10.22520       -0.06340        3.25080
H          7.12040        0.13510        4.03720
H          8.25990       -0.95660        4.82890
H          6.79660       -1.60100        4.07170
H          6.19220        3.94830        3.29950
H          7.70500        2.47010       -0.37240
H          4.52200        0.00080       -2.15930
H          2.02440        0.00340       -2.16620
