35
rmsd12.gzmat
Br         0.00000        0.00000        0.00000
C          1.89770        0.00000        0.00000
C          2.56860        0.00000        1.21730
C          3.96230        0.00080        1.22310
C          4.63000       -0.00240        0.00120
O          5.99800        0.02670       -0.13780
C          6.75620       -0.16730        1.00430
C          7.42040        0.87460        1.51490
C          8.43510        0.87130        2.62540
C          9.20500        2.20660        2.59160
C          7.68970        0.75050        3.96300
C          9.44360       -0.27510        2.46820
N          6.78050       -1.53910        1.35300
N          6.34460       -1.97720        2.57360
C          6.38760       -3.32560        2.49750
N          6.82440       -3.75540        1.24380
C          7.05210       -2.64250        0.53320
C          3.95920       -0.00360       -1.22710
C          2.56890       -0.00100       -1.22000
H          2.02820       -0.00260        2.16580
H          4.50820       -0.00700        2.16700
H          7.21090        1.86590        1.08830
H          9.72410        2.34520        1.63730
H          9.96120        2.24200        3.38370
H          8.53960        3.06260        2.74310
H          7.13100       -0.19350        4.02960
H          6.97100        1.56430        4.10060
H          8.38620        0.77320        4.80720
H          8.97930       -1.25490        2.62660
H         10.25260       -0.18980        3.20290
H          9.90110       -0.27520        1.47340
H          6.12140       -4.00220        3.29350
H          7.39570       -2.57150       -0.48590
H          4.52230       -0.00650       -2.15800
H          2.02510       -0.00280       -2.16620
