
     RDKit          3D

 35 36  0  0  0  0  0  0  0  0999 V2000
   -0.0407   -0.6127    0.1929 Br  0  0  0  0  0  0  0  0  0  0  0  0
    1.8413   -0.3227    0.1290 C   0  0  0  0  0  0  0  0  0  0  0  0
    2.5502   -0.1189    1.3172 C   0  0  0  0  0  0  0  0  0  0  0  0
    3.9277    0.0864    1.2677 C   0  0  0  0  0  0  0  0  0  0  0  0
    4.5877    0.0953    0.0354 C   0  0  0  0  0  0  0  0  0  0  0  0
    5.9453    0.3369    0.0691 O   0  0  0  0  0  0  0  0  0  0  0  0
    6.7098    0.0131   -1.0246 C   0  0  0  0  0  0  0  0  0  0  0  0
    7.4347    0.9453   -1.6507 C   0  0  0  0  0  0  0  0  0  0  0  0
    8.4871    0.8192   -2.7388 C   0  0  0  0  0  0  0  0  0  0  0  0
    9.4136    2.0458   -2.6156 C   0  0  0  0  0  0  0  0  0  0  0  0
    9.3427   -0.4542   -2.6019 C   0  0  0  0  0  0  0  0  0  0  0  0
    7.7946    0.8414   -4.1188 C   0  0  0  0  0  0  0  0  0  0  0  0
    6.6700   -1.3724   -1.3304 N   0  0  0  0  0  0  0  0  0  0  0  0
    6.3706   -1.8451   -2.5677 N   0  0  0  0  0  0  0  0  0  0  0  0
    6.3786   -3.1546   -2.3880 C   0  0  0  0  0  0  0  0  0  0  0  0
    6.6515   -3.5561   -1.1135 N   0  0  0  0  0  0  0  0  0  0  0  0
    6.8220   -2.4204   -0.4725 C   0  0  0  0  0  0  0  0  0  0  0  0
    3.8792   -0.1042   -1.1531 C   0  0  0  0  0  0  0  0  0  0  0  0
    2.4994   -0.3173   -1.1020 C   0  0  0  0  0  0  0  0  0  0  0  0
    2.0286   -0.1248    2.2751 H   0  0  0  0  0  0  0  0  0  0  0  0
    4.5070    0.2457    2.1788 H   0  0  0  0  0  0  0  0  0  0  0  0
    7.2216    1.9595   -1.3000 H   0  0  0  0  0  0  0  0  0  0  0  0
    8.8464    2.9846   -2.7213 H   0  0  0  0  0  0  0  0  0  0  0  0
   10.1843    2.0259   -3.4014 H   0  0  0  0  0  0  0  0  0  0  0  0
    9.9232    2.0644   -1.6389 H   0  0  0  0  0  0  0  0  0  0  0  0
    8.7668   -1.3650   -2.8063 H   0  0  0  0  0  0  0  0  0  0  0  0
    9.7797   -0.5322   -1.5940 H   0  0  0  0  0  0  0  0  0  0  0  0
   10.1709   -0.4183   -3.3270 H   0  0  0  0  0  0  0  0  0  0  0  0
    7.1350   -0.0301   -4.2292 H   0  0  0  0  0  0  0  0  0  0  0  0
    8.5495    0.8229   -4.9219 H   0  0  0  0  0  0  0  0  0  0  0  0
    7.1908    1.7545   -4.2429 H   0  0  0  0  0  0  0  0  0  0  0  0
    6.1731   -3.8459   -3.2049 H   0  0  0  0  0  0  0  0  0  0  0  0
    7.0527   -2.2836    0.5830 H   0  0  0  0  0  0  0  0  0  0  0  0
    4.3940   -0.1036   -2.1144 H   0  0  0  0  0  0  0  0  0  0  0  0
    1.9391   -0.4779   -2.0240 H   0  0  0  0  0  0  0  0  0  0  0  0
  1  2  1  0
  2  3  2  0
  2 19  1  0
  3  4  1  0
  3 20  1  0
  4  5  2  0
  4 21  1  0
  5  6  1  0
  5 18  1  0
  6  7  1  0
  7  8  2  0
  7 13  1  0
  9  8  1  0
  8 22  1  0
  9 10  1  0
  9 11  1  0
  9 12  1  0
 10 23  1  0
 10 24  1  0
 10 25  1  0
 11 26  1  0
 11 27  1  0
 11 28  1  0
 12 29  1  0
 12 30  1  0
 12 31  1  0
 13 14  1  0
 13 17  1  0
 14 15  2  0
 15 16  1  0
 15 32  1  0
 16 17  2  0
 17 33  1  0
 18 19  2  0
 18 34  1  0
 19 35  1  0
M  END

