rmsd29.gzmat
 OpenBabel08211713393D

 35 36  0  0  0  0  0  0  0  0999 V2000
    0.0000    0.0000    0.0000 Br  0  0  0  0  0  0  0  0  0  0  0  0
    1.8974    0.0000    0.0000 C   0  0  0  0  0  0  0  0  0  0  0  0
    2.5693    0.0000    1.2167 C   0  0  0  0  0  0  0  0  0  0  0  0
    3.9631   -0.0072    1.2213 C   0  0  0  0  0  0  0  0  0  0  0  0
    4.6294   -0.0121   -0.0012 C   0  0  0  0  0  0  0  0  0  0  0  0
    5.9963   -0.0503   -0.1436 O   0  0  0  0  0  0  0  0  0  0  0  0
    6.7620    0.1010    1.0006 C   0  0  0  0  0  0  0  0  0  0  0  0
    7.4045   -0.9687    1.4807 C   0  0  0  0  0  0  0  0  0  0  0  0
    8.4345   -1.0197    2.5757 C   0  0  0  0  0  0  0  0  0  0  0  0
    9.1775   -2.3677    2.4858 C   0  0  0  0  0  0  0  0  0  0  0  0
    9.4599    0.1142    2.4404 C   0  0  0  0  0  0  0  0  0  0  0  0
    7.7109   -0.9301    3.9277 C   0  0  0  0  0  0  0  0  0  0  0  0
    6.8163    1.4647    1.3745 N   0  0  0  0  0  0  0  0  0  0  0  0
    6.4587    1.8852    2.6261 N   0  0  0  0  0  0  0  0  0  0  0  0
    6.5005    3.2345    2.5674 C   0  0  0  0  0  0  0  0  0  0  0  0
    6.8581    3.6822    1.2955 N   0  0  0  0  0  0  0  0  0  0  0  0
    7.0372    2.5796    0.5557 C   0  0  0  0  0  0  0  0  0  0  0  0
    3.9571   -0.0069   -1.2291 C   0  0  0  0  0  0  0  0  0  0  0  0
    2.5673   -0.0012   -1.2209 C   0  0  0  0  0  0  0  0  0  0  0  0
    2.0298    0.0062    2.1660 H   0  0  0  0  0  0  0  0  0  0  0  0
    4.5097    0.0000    2.1648 H   0  0  0  0  0  0  0  0  0  0  0  0
    7.1633   -1.9439    1.0339 H   0  0  0  0  0  0  0  0  0  0  0  0
    8.4959   -3.2155    2.6074 H   0  0  0  0  0  0  0  0  0  0  0  0
    9.9362   -2.4500    3.2713 H   0  0  0  0  0  0  0  0  0  0  0  0
    9.6881   -2.4786    1.5235 H   0  0  0  0  0  0  0  0  0  0  0  0
    9.0231    1.0905    2.6787 H   0  0  0  0  0  0  0  0  0  0  0  0
    9.8713    0.1673    1.4275 H   0  0  0  0  0  0  0  0  0  0  0  0
   10.2994   -0.0289    3.1303 H   0  0  0  0  0  0  0  0  0  0  0  0
    7.1498    0.0105    4.0227 H   0  0  0  0  0  0  0  0  0  0  0  0
    8.4222   -0.9670    4.7591 H   0  0  0  0  0  0  0  0  0  0  0  0
    6.9981   -1.7498    4.0603 H   0  0  0  0  0  0  0  0  0  0  0  0
    6.2869    3.8998    3.3885 H   0  0  0  0  0  0  0  0  0  0  0  0
    7.3133    2.5222   -0.4847 H   0  0  0  0  0  0  0  0  0  0  0  0
    4.5198   -0.0075   -2.1607 H   0  0  0  0  0  0  0  0  0  0  0  0
    2.0217    0.0043   -2.1663 H   0  0  0  0  0  0  0  0  0  0  0  0
  2  1  1  0  0  0  0
  2  3  2  0  0  0  0
  3  4  1  0  0  0  0
  3 20  1  0  0  0  0
  4 21  1  0  0  0  0
  5  4  2  0  0  0  0
  6  5  1  0  0  0  0
  6  7  1  0  0  0  0
  7 13  1  0  0  0  0
  7  8  2  0  0  0  0
  8  9  1  0  0  0  0
  9 12  1  0  0  0  0
 10  9  1  0  0  0  0
 10 23  1  0  0  0  0
 10 24  1  0  0  0  0
 11  9  1  0  0  0  0
 11 26  1  0  0  0  0
 11 28  1  0  0  0  0
 12 29  1  0  0  0  0
 12 31  1  0  0  0  0
 12 30  1  0  0  0  0
 13 14  1  0  0  0  0
 15 14  2  0  0  0  0
 15 32  1  0  0  0  0
 16 15  2  0  0  0  0
 17 16  2  0  0  0  0
 17 13  1  0  0  0  0
 18 19  2  0  0  0  0
 18  5  1  0  0  0  0
 19  2  1  0  0  0  0
 22  8  1  0  0  0  0
 25 10  1  0  0  0  0
 27 11  1  0  0  0  0
 33 17  1  0  0  0  0
 34 18  1  0  0  0  0
 35 19  1  0  0  0  0
M  END
$$$$
