30
rmsd56.gzmat
Cl         0.00000        0.00000        0.00000
C          1.71160        0.00000        0.00000
C          2.35150        0.00000        1.23130
C          3.74500       -0.00640        1.26070
C          4.46650       -0.01830        0.07270
C          3.79540       -0.01180       -1.15870
N          4.54840       -0.07680       -2.35870
C          5.51920        0.83480       -2.69660
C          6.29330        0.63370       -3.87050
C          6.05120       -0.50540       -4.73890
O          5.17610       -1.34420       -4.65100
O          6.93710       -0.58840       -5.76620
C          7.30000        1.55680       -4.19830
C          7.53670        2.66470       -3.40680
C          6.75200        2.87880       -2.26260
C          5.75970        1.98980       -1.90770
C          2.38830        0.00260       -1.21880
C          1.64750        0.02440       -2.50650
H          1.78290        0.00130        2.16090
H          4.26810       -0.01130        2.21650
H          5.55730       -0.04520        0.09050
H          4.32390       -0.83260       -3.01760
H          6.76460       -1.36650       -6.35600
H          7.90090        1.38930       -5.09850
H          8.31740        3.37250       -3.66550
H          6.93120        3.76520       -1.65090
H          5.14290        2.18020       -1.03260
H          1.09650       -0.91740       -2.67110
H          2.29350        0.17280       -3.38480
H          0.90690        0.84150       -2.53820
