rmsd60.gzmat
 OpenBabel08211713393D

 30 31  0  0  0  0  0  0  0  0999 V2000
    0.0000    0.0000    0.0000 Cl  0  0  0  0  0  0  0  0  0  0  0  0
    1.7114    0.0000    0.0000 C   0  0  0  0  0  0  0  0  0  0  0  0
    2.3519    0.0000    1.2310 C   0  0  0  0  0  0  0  0  0  0  0  0
    3.7452   -0.0036    1.2575 C   0  0  0  0  0  0  0  0  0  0  0  0
    4.4654   -0.0124    0.0683 C   0  0  0  0  0  0  0  0  0  0  0  0
    3.7942   -0.0100   -1.1624 C   0  0  0  0  0  0  0  0  0  0  0  0
    4.5433   -0.0792   -2.3660 N   0  0  0  0  0  0  0  0  0  0  0  0
    5.4985    0.8398   -2.7248 C   0  0  0  0  0  0  0  0  0  0  0  0
    6.2713    0.6274   -3.8982 C   0  0  0  0  0  0  0  0  0  0  0  0
    6.0593   -0.5439   -4.7302 C   0  0  0  0  0  0  0  0  0  0  0  0
    5.2271   -1.4199   -4.5973 O   0  0  0  0  0  0  0  0  0  0  0  0
    6.9222   -0.6163   -5.7775 O   0  0  0  0  0  0  0  0  0  0  0  0
    7.2504    1.5679   -4.2587 C   0  0  0  0  0  0  0  0  0  0  0  0
    7.4647    2.7013   -3.4978 C   0  0  0  0  0  0  0  0  0  0  0  0
    6.6871    2.9218   -2.3494 C   0  0  0  0  0  0  0  0  0  0  0  0
    5.7205    2.0172   -1.9633 C   0  0  0  0  0  0  0  0  0  0  0  0
    2.3867    0.0017   -1.2197 C   0  0  0  0  0  0  0  0  0  0  0  0
    1.6421    0.0231   -2.5053 C   0  0  0  0  0  0  0  0  0  0  0  0
    1.7840   -0.0002    2.1614 H   0  0  0  0  0  0  0  0  0  0  0  0
    4.2716   -0.0073    2.2115 H   0  0  0  0  0  0  0  0  0  0  0  0
    5.5560   -0.0338    0.0875 H   0  0  0  0  0  0  0  0  0  0  0  0
    4.3524   -0.8710   -2.9939 H   0  0  0  0  0  0  0  0  0  0  0  0
    6.7703   -1.4191   -6.3394 H   0  0  0  0  0  0  0  0  0  0  0  0
    7.8485    1.3935   -5.1597 H   0  0  0  0  0  0  0  0  0  0  0  0
    8.2231    3.4228   -3.7848 H   0  0  0  0  0  0  0  0  0  0  0  0
    6.8517    3.8262   -1.7605 H   0  0  0  0  0  0  0  0  0  0  0  0
    5.1100    2.2102   -1.0845 H   0  0  0  0  0  0  0  0  0  0  0  0
    1.0457   -0.8941   -2.6439 H   0  0  0  0  0  0  0  0  0  0  0  0
    2.2892    0.1161   -3.3899 H   0  0  0  0  0  0  0  0  0  0  0  0
    0.9422    0.8741   -2.5539 H   0  0  0  0  0  0  0  0  0  0  0  0
  1  2  1  0  0  0  0
  2  3  2  0  0  0  0
  3  4  1  0  0  0  0
  3 19  1  0  0  0  0
  4 20  1  0  0  0  0
  5 21  1  0  0  0  0
  5  4  2  0  0  0  0
  6  5  1  0  0  0  0
  7  6  1  0  0  0  0
  8  7  1  0  0  0  0
  8 16  2  0  0  0  0
  9  8  1  0  0  0  0
 10 11  2  0  0  0  0
 10  9  1  0  0  0  0
 12 10  1  0  0  0  0
 13  9  2  0  0  0  0
 13 14  1  0  0  0  0
 14 15  2  0  0  0  0
 15 16  1  0  0  0  0
 15 26  1  0  0  0  0
 16 27  1  0  0  0  0
 17  6  2  0  0  0  0
 17  2  1  0  0  0  0
 18 17  1  0  0  0  0
 22  7  1  0  0  0  0
 23 12  1  0  0  0  0
 24 13  1  0  0  0  0
 25 14  1  0  0  0  0
 28 18  1  0  0  0  0
 29 18  1  0  0  0  0
 30 18  1  0  0  0  0
M  END
$$$$
