rmsd56.gzmat
 OpenBabel08211713393D

 30 31  0  0  0  0  0  0  0  0999 V2000
    0.0000    0.0000    0.0000 Cl  0  0  0  0  0  0  0  0  0  0  0  0
    1.7116    0.0000    0.0000 C   0  0  0  0  0  0  0  0  0  0  0  0
    2.3515    0.0000    1.2313 C   0  0  0  0  0  0  0  0  0  0  0  0
    3.7450   -0.0064    1.2607 C   0  0  0  0  0  0  0  0  0  0  0  0
    4.4665   -0.0183    0.0727 C   0  0  0  0  0  0  0  0  0  0  0  0
    3.7954   -0.0118   -1.1587 C   0  0  0  0  0  0  0  0  0  0  0  0
    4.5484   -0.0768   -2.3587 N   0  0  0  0  0  0  0  0  0  0  0  0
    5.5192    0.8348   -2.6966 C   0  0  0  0  0  0  0  0  0  0  0  0
    6.2933    0.6337   -3.8705 C   0  0  0  0  0  0  0  0  0  0  0  0
    6.0512   -0.5054   -4.7389 C   0  0  0  0  0  0  0  0  0  0  0  0
    5.1761   -1.3442   -4.6510 O   0  0  0  0  0  0  0  0  0  0  0  0
    6.9371   -0.5884   -5.7662 O   0  0  0  0  0  0  0  0  0  0  0  0
    7.3000    1.5568   -4.1983 C   0  0  0  0  0  0  0  0  0  0  0  0
    7.5367    2.6647   -3.4068 C   0  0  0  0  0  0  0  0  0  0  0  0
    6.7520    2.8788   -2.2626 C   0  0  0  0  0  0  0  0  0  0  0  0
    5.7597    1.9898   -1.9077 C   0  0  0  0  0  0  0  0  0  0  0  0
    2.3883    0.0026   -1.2188 C   0  0  0  0  0  0  0  0  0  0  0  0
    1.6475    0.0244   -2.5065 C   0  0  0  0  0  0  0  0  0  0  0  0
    1.7829    0.0013    2.1609 H   0  0  0  0  0  0  0  0  0  0  0  0
    4.2681   -0.0113    2.2165 H   0  0  0  0  0  0  0  0  0  0  0  0
    5.5573   -0.0452    0.0905 H   0  0  0  0  0  0  0  0  0  0  0  0
    4.3239   -0.8326   -3.0176 H   0  0  0  0  0  0  0  0  0  0  0  0
    6.7646   -1.3665   -6.3560 H   0  0  0  0  0  0  0  0  0  0  0  0
    7.9009    1.3893   -5.0985 H   0  0  0  0  0  0  0  0  0  0  0  0
    8.3174    3.3725   -3.6655 H   0  0  0  0  0  0  0  0  0  0  0  0
    6.9312    3.7652   -1.6509 H   0  0  0  0  0  0  0  0  0  0  0  0
    5.1429    2.1802   -1.0326 H   0  0  0  0  0  0  0  0  0  0  0  0
    1.0965   -0.9174   -2.6711 H   0  0  0  0  0  0  0  0  0  0  0  0
    2.2935    0.1728   -3.3848 H   0  0  0  0  0  0  0  0  0  0  0  0
    0.9069    0.8415   -2.5382 H   0  0  0  0  0  0  0  0  0  0  0  0
  1  2  1  0  0  0  0
  2  3  2  0  0  0  0
  3  4  1  0  0  0  0
  3 19  1  0  0  0  0
  4 20  1  0  0  0  0
  5 21  1  0  0  0  0
  5  4  2  0  0  0  0
  6  5  1  0  0  0  0
  7  6  1  0  0  0  0
  8  7  1  0  0  0  0
  8 16  2  0  0  0  0
  9  8  1  0  0  0  0
 10 11  2  0  0  0  0
 10  9  1  0  0  0  0
 12 10  1  0  0  0  0
 13  9  2  0  0  0  0
 13 14  1  0  0  0  0
 14 15  2  0  0  0  0
 15 16  1  0  0  0  0
 15 26  1  0  0  0  0
 16 27  1  0  0  0  0
 17  6  2  0  0  0  0
 17  2  1  0  0  0  0
 18 17  1  0  0  0  0
 22  7  1  0  0  0  0
 23 12  1  0  0  0  0
 24 13  1  0  0  0  0
 25 14  1  0  0  0  0
 28 18  1  0  0  0  0
 29 18  1  0  0  0  0
 30 18  1  0  0  0  0
M  END
$$$$
