30
rmsd74.gzmat
Cl         0.00000        0.00000        0.00000
C          1.71140        0.00000        0.00000
C          2.35300        0.00000        1.23040
C          3.74660       -0.00530        1.25670
C          4.46570       -0.01790        0.06690
C          3.79330       -0.01350       -1.16340
N          4.54290       -0.08560       -2.36580
C          5.49850        0.83390       -2.72400
C          6.24560        0.63970       -3.91680
C          5.99570       -0.50390       -4.77680
O          5.13430       -1.35450       -4.66580
O          6.85700       -0.57990       -5.82540
C          7.23240        1.57380       -4.27220
C          7.47770        2.68510       -3.48810
C          6.72440        2.88860       -2.32080
C          5.75220        1.98860       -1.93820
C          2.38620        0.00360       -1.21980
C          1.64190        0.03450       -2.50500
H          1.78590        0.00290        2.16090
H          4.27310       -0.00990        2.21040
H          5.55640       -0.04310        0.08390
H          4.31270       -0.84540       -3.01930
H          6.67940       -1.36400       -6.40590
H          7.80950        1.41430       -5.18960
H          8.24020        3.40350       -3.77080
H          6.91250        3.77750       -1.71570
H          5.16190        2.16960       -1.04310
H          1.05490       -0.88700       -2.65620
H          2.28930        0.14620       -3.38670
H          0.93270        0.87890       -2.54240
