30
rmsd53.gzmat
Cl         0.00000        0.00000        0.00000
C          1.71150        0.00000        0.00000
C          2.34580        0.00000        1.23530
C          3.73830        0.01600        1.27110
C          4.46690        0.03770        0.08660
C          3.80330        0.02630       -1.14760
N          4.54990        0.10560       -2.35000
C          5.55680       -0.76650       -2.68940
C          6.29550       -0.55310       -3.88450
C          5.97840        0.55030       -4.77490
O          5.06810        1.35050       -4.68590
O          6.83270        0.64590       -5.82760
C          7.34260       -1.42960       -4.21340
C          7.65430       -2.50440       -3.40240
C          6.90330       -2.73400       -2.23890
C          5.87090       -1.89130       -1.88430
C          2.39450        0.00060       -1.21360
C          1.68410       -0.01650       -2.51830
H          1.77180       -0.00850        2.16200
H          4.25750        0.02130        2.22920
H          5.55680        0.07820        0.11350
H          4.27360        0.82880       -3.02700
H          6.60910        1.39900       -6.43200
H          7.91460       -1.25250       -5.13040
H          8.46740       -3.17530       -3.66040
H          7.14070       -3.59520       -1.61120
H          5.27990       -2.09860       -0.99560
H          0.74480       -0.59010       -2.48850
H          2.28200       -0.47050       -3.32440
H          1.42350        1.00480       -2.84300
