rmsd64.gzmat
 OpenBabel08211713393D

 30 31  0  0  0  0  0  0  0  0999 V2000
    0.0000    0.0000    0.0000 Cl  0  0  0  0  0  0  0  0  0  0  0  0
    1.7117    0.0000    0.0000 C   0  0  0  0  0  0  0  0  0  0  0  0
    2.3482    0.0000    1.2338 C   0  0  0  0  0  0  0  0  0  0  0  0
    3.7408    0.0205    1.2657 C   0  0  0  0  0  0  0  0  0  0  0  0
    4.4662    0.0528    0.0794 C   0  0  0  0  0  0  0  0  0  0  0  0
    3.8000    0.0446   -1.1538 C   0  0  0  0  0  0  0  0  0  0  0  0
    4.5430    0.1439   -2.3571 N   0  0  0  0  0  0  0  0  0  0  0  0
    5.5497   -0.7210   -2.7143 C   0  0  0  0  0  0  0  0  0  0  0  0
    6.2715   -0.4954   -3.9175 C   0  0  0  0  0  0  0  0  0  0  0  0
    5.9333    0.6107   -4.7969 C   0  0  0  0  0  0  0  0  0  0  0  0
    5.0238    1.4094   -4.6850 O   0  0  0  0  0  0  0  0  0  0  0  0
    6.7634    0.7124   -5.8682 O   0  0  0  0  0  0  0  0  0  0  0  0
    7.3195   -1.3633   -4.2652 C   0  0  0  0  0  0  0  0  0  0  0  0
    7.6478   -2.4418   -3.4655 C   0  0  0  0  0  0  0  0  0  0  0  0
    6.9134   -2.6832   -2.2937 C   0  0  0  0  0  0  0  0  0  0  0  0
    5.8812   -1.8485   -1.9193 C   0  0  0  0  0  0  0  0  0  0  0  0
    2.3917    0.0049   -1.2156 C   0  0  0  0  0  0  0  0  0  0  0  0
    1.6684   -0.0213   -2.5134 C   0  0  0  0  0  0  0  0  0  0  0  0
    1.7762   -0.0111    2.1614 H   0  0  0  0  0  0  0  0  0  0  0  0
    4.2632    0.0214    2.2223 H   0  0  0  0  0  0  0  0  0  0  0  0
    5.5559    0.0991    0.1056 H   0  0  0  0  0  0  0  0  0  0  0  0
    4.2577    0.8726   -3.0257 H   0  0  0  0  0  0  0  0  0  0  0  0
    6.5258    1.4700   -6.4622 H   0  0  0  0  0  0  0  0  0  0  0  0
    7.8791   -1.1782   -5.1886 H   0  0  0  0  0  0  0  0  0  0  0  0
    8.4615   -3.1055   -3.7402 H   0  0  0  0  0  0  0  0  0  0  0  0
    7.1645   -3.5485   -1.6773 H   0  0  0  0  0  0  0  0  0  0  0  0
    5.3038   -2.0630   -1.0231 H   0  0  0  0  0  0  0  0  0  0  0  0
    0.7822   -0.6756   -2.4907 H   0  0  0  0  0  0  0  0  0  0  0  0
    2.2876   -0.3915   -3.3449 H   0  0  0  0  0  0  0  0  0  0  0  0
    1.3166    0.9858   -2.7937 H   0  0  0  0  0  0  0  0  0  0  0  0
  1  2  1  0  0  0  0
  2  3  2  0  0  0  0
  3  4  1  0  0  0  0
  3 19  1  0  0  0  0
  4 20  1  0  0  0  0
  5 21  1  0  0  0  0
  5  4  2  0  0  0  0
  6  5  1  0  0  0  0
  7  6  1  0  0  0  0
  8  7  1  0  0  0  0
  8 16  2  0  0  0  0
  9  8  1  0  0  0  0
 10 11  2  0  0  0  0
 10  9  1  0  0  0  0
 12 10  1  0  0  0  0
 13  9  2  0  0  0  0
 13 14  1  0  0  0  0
 14 15  2  0  0  0  0
 15 16  1  0  0  0  0
 15 26  1  0  0  0  0
 16 27  1  0  0  0  0
 17  6  2  0  0  0  0
 17  2  1  0  0  0  0
 18 28  1  0  0  0  0
 18 17  1  0  0  0  0
 22  7  1  0  0  0  0
 23 12  1  0  0  0  0
 24 13  1  0  0  0  0
 25 14  1  0  0  0  0
 29 18  1  0  0  0  0
 30 18  1  0  0  0  0
M  END
$$$$
