30

Cl        -0.08780        0.42200       -0.04010
C          1.65080        0.17550       -0.01320
C          2.26490        0.08400        1.23890
C          3.64580       -0.09250        1.30060
C          4.39940       -0.17590        0.13170
C          3.77090       -0.10760       -1.12200
N          4.49660       -0.15170       -2.31990
C          5.62160       -0.87510       -2.62730
C          6.34800       -0.58740       -3.82730
C          5.88440        0.46150       -4.75030
O          4.84960        1.10570       -4.63740
O          6.70730        0.67940       -5.79380
C          7.50230       -1.33260       -4.14120
C          7.95040       -2.35670       -3.32070
C          7.21820       -2.66120       -2.16270
C          6.08170       -1.94320       -1.82040
C          2.36640        0.07290       -1.21620
C          1.71260        0.15230       -2.56860
H          1.66020        0.16210        2.14250
H          4.14280       -0.14540        2.27190
H          5.48390       -0.26530        0.18630
H          4.20440        0.47540       -3.07290
H          6.28740        1.37430       -6.32740
H          8.03730       -1.08660       -5.05830
H          8.84650       -2.92330       -3.57890
H          7.53670       -3.48440       -1.51790
H          5.51800       -2.21870       -0.93090
H          0.62750        0.01910       -2.49510
H          2.12300       -0.61310       -3.24430
H          1.89530        1.13050       -3.04730
