rmsd53.gzmat
 OpenBabel08211713393D

 30 31  0  0  0  0  0  0  0  0999 V2000
    0.0000    0.0000    0.0000 Cl  0  0  0  0  0  0  0  0  0  0  0  0
    1.7115    0.0000    0.0000 C   0  0  0  0  0  0  0  0  0  0  0  0
    2.3458    0.0000    1.2353 C   0  0  0  0  0  0  0  0  0  0  0  0
    3.7383    0.0160    1.2711 C   0  0  0  0  0  0  0  0  0  0  0  0
    4.4669    0.0377    0.0866 C   0  0  0  0  0  0  0  0  0  0  0  0
    3.8033    0.0263   -1.1476 C   0  0  0  0  0  0  0  0  0  0  0  0
    4.5499    0.1056   -2.3500 N   0  0  0  0  0  0  0  0  0  0  0  0
    5.5568   -0.7665   -2.6894 C   0  0  0  0  0  0  0  0  0  0  0  0
    6.2955   -0.5531   -3.8845 C   0  0  0  0  0  0  0  0  0  0  0  0
    5.9784    0.5503   -4.7749 C   0  0  0  0  0  0  0  0  0  0  0  0
    5.0681    1.3505   -4.6859 O   0  0  0  0  0  0  0  0  0  0  0  0
    6.8327    0.6459   -5.8276 O   0  0  0  0  0  0  0  0  0  0  0  0
    7.3426   -1.4296   -4.2134 C   0  0  0  0  0  0  0  0  0  0  0  0
    7.6543   -2.5044   -3.4024 C   0  0  0  0  0  0  0  0  0  0  0  0
    6.9033   -2.7340   -2.2389 C   0  0  0  0  0  0  0  0  0  0  0  0
    5.8709   -1.8913   -1.8843 C   0  0  0  0  0  0  0  0  0  0  0  0
    2.3945    0.0006   -1.2136 C   0  0  0  0  0  0  0  0  0  0  0  0
    1.6841   -0.0165   -2.5183 C   0  0  0  0  0  0  0  0  0  0  0  0
    1.7718   -0.0085    2.1620 H   0  0  0  0  0  0  0  0  0  0  0  0
    4.2575    0.0213    2.2292 H   0  0  0  0  0  0  0  0  0  0  0  0
    5.5568    0.0782    0.1135 H   0  0  0  0  0  0  0  0  0  0  0  0
    4.2736    0.8288   -3.0270 H   0  0  0  0  0  0  0  0  0  0  0  0
    6.6091    1.3990   -6.4320 H   0  0  0  0  0  0  0  0  0  0  0  0
    7.9146   -1.2525   -5.1304 H   0  0  0  0  0  0  0  0  0  0  0  0
    8.4674   -3.1753   -3.6604 H   0  0  0  0  0  0  0  0  0  0  0  0
    7.1407   -3.5952   -1.6112 H   0  0  0  0  0  0  0  0  0  0  0  0
    5.2799   -2.0986   -0.9956 H   0  0  0  0  0  0  0  0  0  0  0  0
    0.7448   -0.5901   -2.4885 H   0  0  0  0  0  0  0  0  0  0  0  0
    2.2820   -0.4705   -3.3244 H   0  0  0  0  0  0  0  0  0  0  0  0
    1.4235    1.0048   -2.8430 H   0  0  0  0  0  0  0  0  0  0  0  0
  1  2  1  0  0  0  0
  2  3  2  0  0  0  0
  3  4  1  0  0  0  0
  3 19  1  0  0  0  0
  4 20  1  0  0  0  0
  5 21  1  0  0  0  0
  5  4  2  0  0  0  0
  6  5  1  0  0  0  0
  7  6  1  0  0  0  0
  8  7  1  0  0  0  0
  8 16  2  0  0  0  0
  9  8  1  0  0  0  0
 10 11  2  0  0  0  0
 10  9  1  0  0  0  0
 12 10  1  0  0  0  0
 13  9  2  0  0  0  0
 13 14  1  0  0  0  0
 14 15  2  0  0  0  0
 15 16  1  0  0  0  0
 15 26  1  0  0  0  0
 16 27  1  0  0  0  0
 17  6  2  0  0  0  0
 17  2  1  0  0  0  0
 18 28  1  0  0  0  0
 18 17  1  0  0  0  0
 22  7  1  0  0  0  0
 23 12  1  0  0  0  0
 24 13  1  0  0  0  0
 25 14  1  0  0  0  0
 29 18  1  0  0  0  0
 30 18  1  0  0  0  0
M  END
$$$$
