30
rmsd64.gzmat
Cl         0.00000        0.00000        0.00000
C          1.71170        0.00000        0.00000
C          2.34820        0.00000        1.23380
C          3.74080        0.02050        1.26570
C          4.46620        0.05280        0.07940
C          3.80000        0.04460       -1.15380
N          4.54300        0.14390       -2.35710
C          5.54970       -0.72100       -2.71430
C          6.27150       -0.49540       -3.91750
C          5.93330        0.61070       -4.79690
O          5.02380        1.40940       -4.68500
O          6.76340        0.71240       -5.86820
C          7.31950       -1.36330       -4.26520
C          7.64780       -2.44180       -3.46550
C          6.91340       -2.68320       -2.29370
C          5.88120       -1.84850       -1.91930
C          2.39170        0.00490       -1.21560
C          1.66840       -0.02130       -2.51340
H          1.77620       -0.01110        2.16140
H          4.26320        0.02140        2.22230
H          5.55590        0.09910        0.10560
H          4.25770        0.87260       -3.02570
H          6.52580        1.47000       -6.46220
H          7.87910       -1.17820       -5.18860
H          8.46150       -3.10550       -3.74020
H          7.16450       -3.54850       -1.67730
H          5.30380       -2.06300       -1.02310
H          0.78220       -0.67560       -2.49070
H          2.28760       -0.39150       -3.34490
H          1.31660        0.98580       -2.79370
