rmsd51.gzmat
 OpenBabel08211713393D

 30 31  0  0  0  0  0  0  0  0999 V2000
    0.0000    0.0000    0.0000 Cl  0  0  0  0  0  0  0  0  0  0  0  0
    1.7118    0.0000    0.0000 C   0  0  0  0  0  0  0  0  0  0  0  0
    2.3478    0.0000    1.2338 C   0  0  0  0  0  0  0  0  0  0  0  0
    3.7405    0.0201    1.2665 C   0  0  0  0  0  0  0  0  0  0  0  0
    4.4656    0.0408    0.0803 C   0  0  0  0  0  0  0  0  0  0  0  0
    3.8002    0.0224   -1.1536 C   0  0  0  0  0  0  0  0  0  0  0  0
    4.5477    0.0851   -2.3559 N   0  0  0  0  0  0  0  0  0  0  0  0
    5.5868   -0.7632   -2.6585 C   0  0  0  0  0  0  0  0  0  0  0  0
    6.3580   -0.5391   -3.8306 C   0  0  0  0  0  0  0  0  0  0  0  0
    6.0407    0.5490   -4.7395 C   0  0  0  0  0  0  0  0  0  0  0  0
    5.1162    1.3355   -4.6756 O   0  0  0  0  0  0  0  0  0  0  0  0
    6.9113    0.6451   -5.7791 O   0  0  0  0  0  0  0  0  0  0  0  0
    7.4361   -1.3914   -4.1202 C   0  0  0  0  0  0  0  0  0  0  0  0
    7.7452   -2.4559   -3.2948 C   0  0  0  0  0  0  0  0  0  0  0  0
    6.9599   -2.7001   -2.1574 C   0  0  0  0  0  0  0  0  0  0  0  0
    5.8983   -1.8794   -1.8394 C   0  0  0  0  0  0  0  0  0  0  0  0
    2.3914    0.0021   -1.2161 C   0  0  0  0  0  0  0  0  0  0  0  0
    1.6660   -0.0018   -2.5126 C   0  0  0  0  0  0  0  0  0  0  0  0
    1.7765   -0.0101    2.1617 H   0  0  0  0  0  0  0  0  0  0  0  0
    4.2617    0.0284    2.2235 H   0  0  0  0  0  0  0  0  0  0  0  0
    5.5553    0.0860    0.1045 H   0  0  0  0  0  0  0  0  0  0  0  0
    4.2788    0.8025   -3.0422 H   0  0  0  0  0  0  0  0  0  0  0  0
    6.6837    1.3855   -6.3982 H   0  0  0  0  0  0  0  0  0  0  0  0
    8.0355   -1.2049   -5.0178 H   0  0  0  0  0  0  0  0  0  0  0  0
    8.5820   -3.1082   -3.5223 H   0  0  0  0  0  0  0  0  0  0  0  0
    7.1952   -3.5562   -1.5225 H   0  0  0  0  0  0  0  0  0  0  0  0
    5.2816   -2.0983   -0.9708 H   0  0  0  0  0  0  0  0  0  0  0  0
    0.7807   -0.6574   -2.5016 H   0  0  0  0  0  0  0  0  0  0  0  0
    2.2831   -0.3518   -3.3539 H   0  0  0  0  0  0  0  0  0  0  0  0
    1.3084    1.0093   -2.7699 H   0  0  0  0  0  0  0  0  0  0  0  0
  1  2  1  0  0  0  0
  2  3  2  0  0  0  0
  3  4  1  0  0  0  0
  3 19  1  0  0  0  0
  4 20  1  0  0  0  0
  5 21  1  0  0  0  0
  5  4  2  0  0  0  0
  6  5  1  0  0  0  0
  7  6  1  0  0  0  0
  8  7  1  0  0  0  0
  8 16  2  0  0  0  0
  9  8  1  0  0  0  0
 10 11  2  0  0  0  0
 10  9  1  0  0  0  0
 12 10  1  0  0  0  0
 13  9  2  0  0  0  0
 13 14  1  0  0  0  0
 14 15  2  0  0  0  0
 15 16  1  0  0  0  0
 15 26  1  0  0  0  0
 16 27  1  0  0  0  0
 17  6  2  0  0  0  0
 17  2  1  0  0  0  0
 18 28  1  0  0  0  0
 18 17  1  0  0  0  0
 22  7  1  0  0  0  0
 23 12  1  0  0  0  0
 24 13  1  0  0  0  0
 25 14  1  0  0  0  0
 29 18  1  0  0  0  0
 30 18  1  0  0  0  0
M  END
$$$$
