
     RDKit          3D

 30 31  0  0  0  0  0  0  0  0999 V2000
   -0.0833   -0.5119   -0.0150 Cl  0  0  0  0  0  0  0  0  0  0  0  0
    1.6442   -0.1962   -0.0058 C   0  0  0  0  0  0  0  0  0  0  0  0
    2.2635   -0.0616    1.2399 C   0  0  0  0  0  0  0  0  0  0  0  0
    3.6367    0.1705    1.2878 C   0  0  0  0  0  0  0  0  0  0  0  0
    4.3777    0.2659    0.1119 C   0  0  0  0  0  0  0  0  0  0  0  0
    3.7431    0.1538   -1.1357 C   0  0  0  0  0  0  0  0  0  0  0  0
    4.4573    0.2083   -2.3400 N   0  0  0  0  0  0  0  0  0  0  0  0
    5.5524    0.9684   -2.6665 C   0  0  0  0  0  0  0  0  0  0  0  0
    6.2812    0.6893   -3.8671 C   0  0  0  0  0  0  0  0  0  0  0  0
    5.8513   -0.3906   -4.7705 C   0  0  0  0  0  0  0  0  0  0  0  0
    4.8424   -1.0716   -4.6400 O   0  0  0  0  0  0  0  0  0  0  0  0
    6.6747   -0.5936   -5.8165 O   0  0  0  0  0  0  0  0  0  0  0  0
    7.4045    1.4723   -4.2007 C   0  0  0  0  0  0  0  0  0  0  0  0
    7.8193    2.5251   -3.3993 C   0  0  0  0  0  0  0  0  0  0  0  0
    7.0838    2.8201   -2.2409 C   0  0  0  0  0  0  0  0  0  0  0  0
    5.9773    2.0654   -1.8794 C   0  0  0  0  0  0  0  0  0  0  0  0
    2.3462   -0.0834   -1.2158 C   0  0  0  0  0  0  0  0  0  0  0  0
    1.6858   -0.2088   -2.5616 C   0  0  0  0  0  0  0  0  0  0  0  0
    1.6692   -0.1499    2.1495 H   0  0  0  0  0  0  0  0  0  0  0  0
    4.1385    0.2577    2.2542 H   0  0  0  0  0  0  0  0  0  0  0  0
    5.4582    0.3989    0.1565 H   0  0  0  0  0  0  0  0  0  0  0  0
    4.1842   -0.4413   -3.0810 H   0  0  0  0  0  0  0  0  0  0  0  0
    6.2778   -1.3122   -6.3363 H   0  0  0  0  0  0  0  0  0  0  0  0
    7.9423    1.2322   -5.1177 H   0  0  0  0  0  0  0  0  0  0  0  0
    8.6918    3.1207   -3.6725 H   0  0  0  0  0  0  0  0  0  0  0  0
    7.3754    3.6646   -1.6110 H   0  0  0  0  0  0  0  0  0  0  0  0
    5.4095    2.3335   -0.9903 H   0  0  0  0  0  0  0  0  0  0  0  0
    1.9020   -1.1868   -3.0267 H   0  0  0  0  0  0  0  0  0  0  0  0
    2.0618    0.5610   -3.2523 H   0  0  0  0  0  0  0  0  0  0  0  0
    0.5970   -0.1157   -2.4813 H   0  0  0  0  0  0  0  0  0  0  0  0
  1  2  1  0
  2  3  2  0
  2 17  1  0
  3  4  1  0
  3 19  1  0
  4  5  2  0
  4 20  1  0
  5  6  1  0
  5 21  1  0
  6  7  1  0
  6 17  2  0
  7  8  1  0
  7 22  1  0
  8  9  2  0
  8 16  1  0
  9 10  1  0
  9 13  1  0
 10 11  2  0
 10 12  1  0
 12 23  1  0
 13 14  2  0
 13 24  1  0
 14 15  1  0
 14 25  1  0
 15 16  2  0
 15 26  1  0
 16 27  1  0
 17 18  1  0
 18 28  1  0
 18 29  1  0
 18 30  1  0
M  END

