30

Cl        -0.08330       -0.51190       -0.01500
C          1.64420       -0.19620       -0.00580
C          2.26350       -0.06160        1.23990
C          3.63670        0.17050        1.28780
C          4.37770        0.26590        0.11190
C          3.74310        0.15380       -1.13570
N          4.45730        0.20830       -2.34000
C          5.55240        0.96840       -2.66650
C          6.28120        0.68930       -3.86710
C          5.85130       -0.39060       -4.77050
O          4.84240       -1.07160       -4.64000
O          6.67470       -0.59360       -5.81650
C          7.40450        1.47230       -4.20070
C          7.81930        2.52510       -3.39930
C          7.08380        2.82010       -2.24090
C          5.97730        2.06540       -1.87940
C          2.34620       -0.08340       -1.21580
C          1.68580       -0.20880       -2.56160
H          1.66920       -0.14990        2.14950
H          4.13850        0.25770        2.25420
H          5.45820        0.39890        0.15650
H          4.18420       -0.44130       -3.08100
H          6.27780       -1.31220       -6.33630
H          7.94230        1.23220       -5.11770
H          8.69180        3.12070       -3.67250
H          7.37540        3.66460       -1.61100
H          5.40950        2.33350       -0.99030
H          1.90200       -1.18680       -3.02670
H          2.06180        0.56100       -3.25230
H          0.59700       -0.11570       -2.48130
