30
rmsd78.gzmat
Cl         0.00000        0.00000        0.00000
C          1.71150        0.00000        0.00000
C          2.35020        0.00000        1.23210
C          3.74340        0.00920        1.26110
C          4.46540        0.01220        0.07280
C          3.79640       -0.00150       -1.15950
N          4.55040        0.04390       -2.36030
C          5.50050       -0.89000       -2.69860
C          6.23240       -0.73930       -3.90750
C          5.94870        0.35200       -4.82330
O          5.08010        1.19830       -4.73730
O          6.77990        0.37480       -5.89850
C          7.23580       -1.66910       -4.22680
C          7.50810       -2.73870       -3.39510
C          6.75760       -2.91010       -2.22100
C          5.76910       -2.01320       -1.87400
C          2.38820       -0.00490       -1.21880
C          1.64710       -0.01450       -2.50670
H          1.78090       -0.00500        2.16150
H          4.26820        0.02110        2.21580
H          5.55600        0.03600        0.09380
H          4.30700        0.77260       -3.04390
H          6.57610        1.11930       -6.52110
H          7.80510       -1.53880       -5.15370
H          8.28890       -3.44960       -3.64640
H          6.96020       -3.77030       -1.58000
H          5.17830       -2.17450       -0.97560
H          0.87830       -0.80470       -2.53250
H          2.28690       -0.19250       -3.38370
H          1.12900        0.94450       -2.67880
