31
rmsd228.gzmat
N          0.00000        0.00000        0.00000
C          1.35020        0.00000        0.00000
N          2.15420        0.00000        1.08730
C          1.51130        0.00940        2.27000
C          0.07360        0.02110        2.39250
C         -0.67790        0.00770        1.19080
N         -2.03350        0.00520        1.12620
N         -0.18800        0.03580        3.77900
C          1.08340        0.03140        4.42650
N          2.07960        0.01130        3.56050
C         -1.42860        0.11670        4.41530
O         -2.50740        0.08750        3.87270
O         -1.22110        0.25310        5.74660
C         -2.40310        0.23120        6.57100
C         -2.77600       -1.18840        6.84660
C         -2.17470       -1.87390        7.90340
C         -2.52920       -3.19540        8.16420
C         -3.47640       -3.83450        7.36550
C         -4.06690       -3.15370        6.30150
C         -3.71700       -1.83100        6.04040
H          1.84350       -0.00220       -0.98820
H         -2.49720       -0.01790        0.23730
H         -2.57820        0.00370        1.97180
H          1.16560        0.03620        5.51000
H         -3.21320        0.81490        6.09220
H         -2.03530        0.77640        7.46530
H         -1.42680       -1.38020        8.52180
H         -2.06570       -3.73020        8.99080
H         -3.75340       -4.86730        7.57230
H         -4.80090       -3.65550        5.67340
H         -4.17040       -1.30040        5.20110
