31
rmsd9.gzmat
N          0.00000        0.00000        0.00000
C          1.35000        0.00000        0.00000
N          2.15430        0.00000        1.08700
C          1.51110        0.01000        2.26930
C          0.07350        0.02410        2.39170
C         -0.67840        0.00270        1.19070
N         -2.03350       -0.03190        1.12450
N         -0.18780        0.04060        3.77810
C          1.08360        0.02710        4.42580
N          2.07950        0.00830        3.55930
C         -1.43190        0.10090        4.40850
O         -2.50590        0.11080        3.85530
O         -1.23920        0.17010        5.74760
C         -2.42850        0.01410        6.54890
C         -2.79020       -1.43420        6.59240
C         -2.13310       -2.28840        7.47910
C         -2.45390       -3.64360        7.50310
C         -3.42370       -4.14580        6.63640
C         -4.07360       -3.29370        5.74470
C         -3.75870       -1.93700        5.72240
H          1.84290       -0.00220       -0.98820
H         -2.49560       -0.02290        0.23450
H         -2.58060        0.00460        1.96720
H          1.16730        0.02770        5.50910
H         -3.23470        0.66120        6.15310
H         -2.07130        0.41640        7.51890
H         -1.36630       -1.89940        8.14710
H         -1.94470       -4.31080        8.19590
H         -3.67150       -5.20610        6.65280
H         -4.82350       -3.68830        5.06080
H         -4.25810       -1.27170        5.01520
