rmsd204.gzmat
 OpenBabel08211713373D

 31 33  0  0  1  0  0  0  0  0999 V2000
    0.0000    0.0000    0.0000 N   0  0  0  0  0  0  0  0  0  0  0  0
    1.3501    0.0000    0.0000 C   0  0  0  0  0  0  0  0  0  0  0  0
    2.1544    0.0000    1.0870 N   0  0  0  0  0  0  0  0  0  0  0  0
    1.5121    0.0006    2.2700 C   0  0  0  0  0  0  0  0  0  0  0  0
    0.0749    0.0059    2.3925 C   0  0  1  0  0  0  0  0  0  0  0  0
   -0.6777    0.0044    1.1911 C   0  0  0  0  0  0  0  0  0  0  0  0
   -2.0332    0.0113    1.1269 N   0  0  0  0  0  0  0  0  0  0  0  0
   -0.1869    0.0079    3.7792 N   0  0  0  0  0  0  0  0  0  0  0  0
    1.0844   -0.0027    4.4270 C   0  0  0  0  0  0  0  0  0  0  0  0
    2.0803   -0.0056    3.5606 N   0  0  0  0  0  0  0  0  0  0  0  0
   -1.4316   -0.0036    4.4099 C   0  0  0  0  0  0  0  0  0  0  0  0
   -2.5050   -0.0190    3.8547 O   0  0  0  0  0  0  0  0  0  0  0  0
   -1.2463    0.0275    5.7512 O   0  0  0  0  0  0  0  0  0  0  0  0
   -2.4363   -0.1846    6.5396 C   0  0  0  0  0  0  0  0  0  0  0  0
   -2.7208   -1.6502    6.5881 C   0  0  0  0  0  0  0  0  0  0  0  0
   -2.1051   -2.4475    7.5541 C   0  0  0  0  0  0  0  0  0  0  0  0
   -2.3516   -3.8183    7.5825 C   0  0  0  0  0  0  0  0  0  0  0  0
   -3.2079   -4.3925    6.6443 C   0  0  0  0  0  0  0  0  0  0  0  0
   -3.8194   -3.5963    5.6770 C   0  0  0  0  0  0  0  0  0  0  0  0
   -3.5773   -2.2251    5.6474 C   0  0  0  0  0  0  0  0  0  0  0  0
    1.8437   -0.0010   -0.9882 H   0  0  0  0  0  0  0  0  0  0  0  0
   -2.4983   -0.0057    0.2391 H   0  0  0  0  0  0  0  0  0  0  0  0
   -2.5774   -0.0053    1.9729 H   0  0  0  0  0  0  0  0  0  0  0  0
    1.1667   -0.0084    5.5102 H   0  0  0  0  0  0  0  0  0  0  0  0
   -3.2720    0.4151    6.1292 H   0  0  0  0  0  0  0  0  0  0  0  0
   -2.1140    0.2436    7.5107 H   0  0  0  0  0  0  0  0  0  0  0  0
   -1.4287   -2.0029    8.2826 H   0  0  0  0  0  0  0  0  0  0  0  0
   -1.8722   -4.4414    8.3352 H   0  0  0  0  0  0  0  0  0  0  0  0
   -3.3967   -5.4648    6.6639 H   0  0  0  0  0  0  0  0  0  0  0  0
   -4.4837   -4.0464    4.9415 H   0  0  0  0  0  0  0  0  0  0  0  0
   -4.0480   -1.6040    4.8818 H   0  0  0  0  0  0  0  0  0  0  0  0
  1  6  2  0  0  0  0
  2  1  2  0  0  0  0
  2  3  2  0  0  0  0
  3  4  2  0  0  0  0
  4 10  2  0  0  0  0
  5  4  1  1  0  0  0
  5  6  1  0  0  0  0
  5  8  1  0  0  0  0
  7  6  1  0  0  0  0
  7 23  1  0  0  0  0
  8 11  1  0  0  0  0
  8  9  1  0  0  0  0
  9 24  1  0  0  0  0
 10  9  2  0  0  0  0
 11 13  1  0  0  0  0
 12 11  2  0  0  0  0
 13 14  1  0  0  0  0
 14 15  1  0  0  0  0
 14 26  1  0  0  0  0
 15 16  2  0  0  0  0
 16 17  1  0  0  0  0
 16 27  1  0  0  0  0
 17 28  1  0  0  0  0
 18 29  1  0  0  0  0
 18 17  2  0  0  0  0
 19 18  1  0  0  0  0
 20 19  2  0  0  0  0
 20 15  1  0  0  0  0
 21  2  1  0  0  0  0
 22  7  1  0  0  0  0
 25 14  1  0  0  0  0
 30 19  1  0  0  0  0
 31 20  1  0  0  0  0
M  RAD  1   5   2
M  END
$$$$
