31
rmsd59.gzmat
N          0.00000        0.00000        0.00000
C          1.35030        0.00000        0.00000
N          2.15440        0.00000        1.08740
C          1.51140        0.00570        2.27010
C          0.07410        0.01470        2.39280
C         -0.67770        0.00500        1.19100
N         -2.03320        0.00260        1.12680
N         -0.18820        0.02130        3.77950
C          1.08350        0.01590        4.42690
N          2.07950        0.00260        3.56040
C         -1.43000        0.12100        4.41220
O         -2.50780        0.09870        3.86750
O         -1.22450        0.26940        5.74270
C         -2.41210        0.31300        6.55820
C         -2.84940       -1.08230        6.86130
C         -2.17740       -1.82260        7.83560
C         -2.58880       -3.12120        8.12650
C         -3.67090       -3.67910        7.44710
C         -4.33560       -2.94250        6.46760
C         -3.92120       -1.64660        6.16780
H          1.84390       -0.00190       -0.98820
H         -2.49720       -0.01240        0.23790
H         -2.57750       -0.00230        1.97270
H          1.16670        0.01330        5.51040
H         -3.19120        0.92320        6.06260
H         -2.02570        0.85670        7.44550
H         -1.33090       -1.38870        8.36560
H         -2.06480       -3.70080        8.88440
H         -3.99530       -4.69250        7.67910
H         -5.17790       -3.38080        5.93510
H         -4.42670       -1.07810        5.38530
