rmsd147.gzmat
 OpenBabel08211713373D

 31 33  0  0  1  0  0  0  0  0999 V2000
    0.0000    0.0000    0.0000 N   0  0  0  0  0  0  0  0  0  0  0  0
    1.3502    0.0000    0.0000 C   0  0  0  0  0  0  0  0  0  0  0  0
    2.1543    0.0000    1.0871 N   0  0  0  0  0  0  0  0  0  0  0  0
    1.5113    0.0034    2.2699 C   0  0  0  0  0  0  0  0  0  0  0  0
    0.0739    0.0083    2.3924 C   0  0  1  0  0  0  0  0  0  0  0  0
   -0.6780    0.0023    1.1910 C   0  0  0  0  0  0  0  0  0  0  0  0
   -2.0335    0.0015    1.1264 N   0  0  0  0  0  0  0  0  0  0  0  0
   -0.1876    0.0140    3.7791 N   0  0  0  0  0  0  0  0  0  0  0  0
    1.0836    0.0078    4.4269 C   0  0  0  0  0  0  0  0  0  0  0  0
    2.0796    0.0021    3.5604 N   0  0  0  0  0  0  0  0  0  0  0  0
   -1.4318    0.0191    4.4120 C   0  0  0  0  0  0  0  0  0  0  0  0
   -2.5064   -0.0029    3.8598 O   0  0  0  0  0  0  0  0  0  0  0  0
   -1.2401    0.0751    5.7517 O   0  0  0  0  0  0  0  0  0  0  0  0
   -2.4237   -0.1165    6.5540 C   0  0  0  0  0  0  0  0  0  0  0  0
   -2.7271   -1.5774    6.6195 C   0  0  0  0  0  0  0  0  0  0  0  0
   -2.0960   -2.3777    7.5727 C   0  0  0  0  0  0  0  0  0  0  0  0
   -2.3630   -3.7443    7.6171 C   0  0  0  0  0  0  0  0  0  0  0  0
   -3.2555   -4.3108    6.7080 C   0  0  0  0  0  0  0  0  0  0  0  0
   -3.8798   -3.5120    5.7508 C   0  0  0  0  0  0  0  0  0  0  0  0
   -3.6178   -2.1448    5.7063 C   0  0  0  0  0  0  0  0  0  0  0  0
    1.8432   -0.0014   -0.9885 H   0  0  0  0  0  0  0  0  0  0  0  0
   -2.4975   -0.0129    0.2376 H   0  0  0  0  0  0  0  0  0  0  0  0
   -2.5783   -0.0122    1.9719 H   0  0  0  0  0  0  0  0  0  0  0  0
    1.1667    0.0057    5.5103 H   0  0  0  0  0  0  0  0  0  0  0  0
   -3.2562    0.4907    6.1491 H   0  0  0  0  0  0  0  0  0  0  0  0
   -2.0846    0.3152    7.5181 H   0  0  0  0  0  0  0  0  0  0  0  0
   -1.3923   -1.9391    8.2784 H   0  0  0  0  0  0  0  0  0  0  0  0
   -1.8709   -4.3704    8.3589 H   0  0  0  0  0  0  0  0  0  0  0  0
   -3.4625   -5.3794    6.7443 H   0  0  0  0  0  0  0  0  0  0  0  0
   -4.5684   -3.9564    5.0340 H   0  0  0  0  0  0  0  0  0  0  0  0
   -4.0996   -1.5205    4.9506 H   0  0  0  0  0  0  0  0  0  0  0  0
  1  6  2  0  0  0  0
  2  1  2  0  0  0  0
  2  3  2  0  0  0  0
  3  4  2  0  0  0  0
  4 10  2  0  0  0  0
  5  4  1  1  0  0  0
  5  6  1  0  0  0  0
  5  8  1  0  0  0  0
  7  6  1  0  0  0  0
  7 23  1  0  0  0  0
  8 11  1  0  0  0  0
  8  9  1  0  0  0  0
  9 24  1  0  0  0  0
 10  9  2  0  0  0  0
 11 13  1  0  0  0  0
 12 11  2  0  0  0  0
 13 14  1  0  0  0  0
 14 15  1  0  0  0  0
 14 26  1  0  0  0  0
 15 16  2  0  0  0  0
 16 17  1  0  0  0  0
 16 27  1  0  0  0  0
 17 28  1  0  0  0  0
 18 29  1  0  0  0  0
 18 17  2  0  0  0  0
 19 18  1  0  0  0  0
 20 19  2  0  0  0  0
 20 15  1  0  0  0  0
 21  2  1  0  0  0  0
 22  7  1  0  0  0  0
 25 14  1  0  0  0  0
 30 19  1  0  0  0  0
 31 20  1  0  0  0  0
M  RAD  1   5   2
M  END
$$$$
