rmsd241.gzmat
 OpenBabel08211713373D

 31 33  0  0  1  0  0  0  0  0999 V2000
    0.0000    0.0000    0.0000 N   0  0  0  0  0  0  0  0  0  0  0  0
    1.3503    0.0000    0.0000 C   0  0  0  0  0  0  0  0  0  0  0  0
    2.1542    0.0000    1.0873 N   0  0  0  0  0  0  0  0  0  0  0  0
    1.5110   -0.0019    2.2700 C   0  0  0  0  0  0  0  0  0  0  0  0
    0.0735   -0.0060    2.3924 C   0  0  2  0  0  0  0  0  0  0  0  0
   -0.6783   -0.0033    1.1906 C   0  0  0  0  0  0  0  0  0  0  0  0
   -2.0338   -0.0152    1.1243 N   0  0  0  0  0  0  0  0  0  0  0  0
   -0.1882   -0.0073    3.7790 N   0  0  0  0  0  0  0  0  0  0  0  0
    1.0831   -0.0048    4.4265 C   0  0  0  0  0  0  0  0  0  0  0  0
    2.0793    0.0009    3.5599 N   0  0  0  0  0  0  0  0  0  0  0  0
   -1.4328   -0.0415    4.4119 C   0  0  0  0  0  0  0  0  0  0  0  0
   -2.5078    0.0200    3.8648 O   0  0  0  0  0  0  0  0  0  0  0  0
   -1.2376   -0.1759    5.7459 O   0  0  0  0  0  0  0  0  0  0  0  0
   -2.4220   -0.0523    6.5596 C   0  0  0  0  0  0  0  0  0  0  0  0
   -2.7155    1.3986    6.7567 C   0  0  0  0  0  0  0  0  0  0  0  0
   -3.7231    2.0147    6.0135 C   0  0  0  0  0  0  0  0  0  0  0  0
   -3.9818    3.3721    6.1886 C   0  0  0  0  0  0  0  0  0  0  0  0
   -3.2287    4.1144    7.0972 C   0  0  0  0  0  0  0  0  0  0  0  0
   -2.2154    3.5002    7.8320 C   0  0  0  0  0  0  0  0  0  0  0  0
   -1.9577    2.1418    7.6632 C   0  0  0  0  0  0  0  0  0  0  0  0
    1.8431    0.0014   -0.9885 H   0  0  0  0  0  0  0  0  0  0  0  0
   -2.4961    0.0105    0.2343 H   0  0  0  0  0  0  0  0  0  0  0  0
   -2.5799    0.0162    1.9686 H   0  0  0  0  0  0  0  0  0  0  0  0
    1.1674   -0.0015    5.5095 H   0  0  0  0  0  0  0  0  0  0  0  0
   -2.0888   -0.5686    7.4834 H   0  0  0  0  0  0  0  0  0  0  0  0
   -3.2564   -0.6175    6.1014 H   0  0  0  0  0  0  0  0  0  0  0  0
   -4.2969    1.4388    5.2853 H   0  0  0  0  0  0  0  0  0  0  0  0
   -4.7681    3.8544    5.6105 H   0  0  0  0  0  0  0  0  0  0  0  0
   -3.4281    5.1769    7.2284 H   0  0  0  0  0  0  0  0  0  0  0  0
   -1.6229    4.0831    8.5348 H   0  0  0  0  0  0  0  0  0  0  0  0
   -1.1613    1.6642    8.2319 H   0  0  0  0  0  0  0  0  0  0  0  0
  1  6  2  0  0  0  0
  2  1  2  0  0  0  0
  2  3  2  0  0  0  0
  3  4  2  0  0  0  0
  4 10  2  0  0  0  0
  5  4  1  1  0  0  0
  5  6  1  0  0  0  0
  5  8  1  0  0  0  0
  7  6  1  0  0  0  0
  7 23  1  0  0  0  0
  8 11  1  0  0  0  0
  8  9  1  0  0  0  0
  9 24  1  0  0  0  0
 10  9  2  0  0  0  0
 11 13  1  0  0  0  0
 12 11  2  0  0  0  0
 13 14  1  0  0  0  0
 14 15  1  0  0  0  0
 14 25  1  0  0  0  0
 15 20  2  0  0  0  0
 16 17  2  0  0  0  0
 16 15  1  0  0  0  0
 17 18  1  0  0  0  0
 18 29  1  0  0  0  0
 18 19  2  0  0  0  0
 19 30  1  0  0  0  0
 20 19  1  0  0  0  0
 20 31  1  0  0  0  0
 21  2  1  0  0  0  0
 22  7  1  0  0  0  0
 26 14  1  0  0  0  0
 27 16  1  0  0  0  0
 28 17  1  0  0  0  0
M  RAD  1   5   2
M  END
$$$$
