rmsd8.gzmat
 OpenBabel08211713373D

 31 33  0  0  1  0  0  0  0  0999 V2000
    0.0000    0.0000    0.0000 N   0  0  0  0  0  0  0  0  0  0  0  0
    1.3502    0.0000    0.0000 C   0  0  0  0  0  0  0  0  0  0  0  0
    2.1545    0.0000    1.0870 N   0  0  0  0  0  0  0  0  0  0  0  0
    1.5117   -0.0053    2.2699 C   0  0  0  0  0  0  0  0  0  0  0  0
    0.0742   -0.0124    2.3924 C   0  0  2  0  0  0  0  0  0  0  0  0
   -0.6780   -0.0013    1.1910 C   0  0  0  0  0  0  0  0  0  0  0  0
   -2.0335    0.0170    1.1270 N   0  0  0  0  0  0  0  0  0  0  0  0
   -0.1875   -0.0205    3.7790 N   0  0  0  0  0  0  0  0  0  0  0  0
    1.0839   -0.0129    4.4265 C   0  0  0  0  0  0  0  0  0  0  0  0
    2.0800   -0.0046    3.5600 N   0  0  0  0  0  0  0  0  0  0  0  0
   -1.4309   -0.0403    4.4128 C   0  0  0  0  0  0  0  0  0  0  0  0
   -2.5065   -0.0349    3.8622 O   0  0  0  0  0  0  0  0  0  0  0  0
   -1.2358   -0.0917    5.7522 O   0  0  0  0  0  0  0  0  0  0  0  0
   -2.4182    0.0876    6.5586 C   0  0  0  0  0  0  0  0  0  0  0  0
   -2.7093    1.5493    6.6584 C   0  0  0  0  0  0  0  0  0  0  0  0
   -3.5843    2.1477    5.7504 C   0  0  0  0  0  0  0  0  0  0  0  0
   -3.8384    3.5147    5.8300 C   0  0  0  0  0  0  0  0  0  0  0  0
   -3.2182    4.2836    6.8137 C   0  0  0  0  0  0  0  0  0  0  0  0
   -2.3409    3.6861    7.7176 C   0  0  0  0  0  0  0  0  0  0  0  0
   -2.0838    2.3192    7.6400 C   0  0  0  0  0  0  0  0  0  0  0  0
    1.8436    0.0009   -0.9883 H   0  0  0  0  0  0  0  0  0  0  0  0
   -2.4978    0.0118    0.2381 H   0  0  0  0  0  0  0  0  0  0  0  0
   -2.5781    0.0011    1.9724 H   0  0  0  0  0  0  0  0  0  0  0  0
    1.1665   -0.0121    5.5100 H   0  0  0  0  0  0  0  0  0  0  0  0
   -2.0835   -0.3696    7.5121 H   0  0  0  0  0  0  0  0  0  0  0  0
   -3.2562   -0.5028    6.1402 H   0  0  0  0  0  0  0  0  0  0  0  0
   -4.0598    1.5477    4.9715 H   0  0  0  0  0  0  0  0  0  0  0  0
   -4.5191    3.9821    5.1203 H   0  0  0  0  0  0  0  0  0  0  0  0
   -3.4153    5.3530    6.8739 H   0  0  0  0  0  0  0  0  0  0  0  0
   -1.8546    4.2886    8.4826 H   0  0  0  0  0  0  0  0  0  0  0  0
   -1.3919    1.8562    8.3417 H   0  0  0  0  0  0  0  0  0  0  0  0
  1  6  2  0  0  0  0
  2  1  2  0  0  0  0
  2  3  2  0  0  0  0
  3  4  2  0  0  0  0
  4 10  2  0  0  0  0
  5  4  1  1  0  0  0
  5  6  1  0  0  0  0
  5  8  1  0  0  0  0
  7  6  1  0  0  0  0
  7 23  1  0  0  0  0
  8 11  1  0  0  0  0
  8  9  1  0  0  0  0
  9 24  1  0  0  0  0
 10  9  2  0  0  0  0
 11 13  1  0  0  0  0
 12 11  2  0  0  0  0
 13 14  1  0  0  0  0
 14 15  1  0  0  0  0
 14 25  1  0  0  0  0
 15 20  2  0  0  0  0
 16 17  2  0  0  0  0
 16 15  1  0  0  0  0
 17 18  1  0  0  0  0
 18 29  1  0  0  0  0
 18 19  2  0  0  0  0
 19 30  1  0  0  0  0
 20 19  1  0  0  0  0
 20 31  1  0  0  0  0
 21  2  1  0  0  0  0
 22  7  1  0  0  0  0
 26 14  1  0  0  0  0
 27 16  1  0  0  0  0
 28 17  1  0  0  0  0
M  RAD  1   5   2
M  END
$$$$
