31
rmsd125.gzmat
N          0.00000        0.00000        0.00000
C          1.35020        0.00000        0.00000
N          2.15440        0.00000        1.08720
C          1.51170        0.01280        2.26990
C          0.07430        0.02100        2.39260
C         -0.67750       -0.00020        1.19120
N         -2.03280       -0.03290        1.12720
N         -0.18690        0.04890        3.77910
C          1.08490        0.05030        4.42620
N          2.08050        0.02780        3.55980
C         -1.42910        0.08600        4.41530
O         -2.50570        0.05950        3.86760
O         -1.22990        0.18260        5.75180
C         -2.40740        0.02400        6.56960
C         -2.68780       -1.43520        6.72290
C         -2.05990       -2.16400        7.73420
C         -2.30280       -3.53020        7.85810
C         -3.16660       -4.16820        6.96910
C         -3.79160       -3.44040        5.95760
C         -3.55420       -2.07350        5.83410
H          1.84320        0.00020       -0.98840
H         -2.49710       -0.02080        0.23810
H         -2.57720       -0.01400        1.97300
H          1.16810        0.06550        5.50950
H         -3.25060        0.59430        6.13430
H         -2.07170        0.51640        7.50550
H         -1.37620       -1.67000        8.42250
H         -1.81360       -4.10030        8.64590
H         -3.35040       -5.23750        7.06160
H         -4.46170       -3.93950        5.25930
H         -4.03620       -1.50540        5.03570
