31
rmsd241.gzmat
N          0.00000        0.00000        0.00000
C          1.35030        0.00000        0.00000
N          2.15420        0.00000        1.08730
C          1.51100       -0.00190        2.27000
C          0.07350       -0.00600        2.39240
C         -0.67830       -0.00330        1.19060
N         -2.03380       -0.01520        1.12430
N         -0.18820       -0.00730        3.77900
C          1.08310       -0.00480        4.42650
N          2.07930        0.00090        3.55990
C         -1.43280       -0.04150        4.41190
O         -2.50780        0.02000        3.86480
O         -1.23760       -0.17590        5.74590
C         -2.42200       -0.05230        6.55960
C         -2.71550        1.39860        6.75670
C         -3.72310        2.01470        6.01350
C         -3.98180        3.37210        6.18860
C         -3.22870        4.11440        7.09720
C         -2.21540        3.50020        7.83200
C         -1.95770        2.14180        7.66320
H          1.84310        0.00140       -0.98850
H         -2.49610        0.01050        0.23430
H         -2.57990        0.01620        1.96860
H          1.16740       -0.00150        5.50950
H         -2.08880       -0.56860        7.48340
H         -3.25640       -0.61750        6.10140
H         -4.29690        1.43880        5.28530
H         -4.76810        3.85440        5.61050
H         -3.42810        5.17690        7.22840
H         -1.62290        4.08310        8.53480
H         -1.16130        1.66420        8.23190
