31
rmsd204.gzmat
N          0.00000        0.00000        0.00000
C          1.35010        0.00000        0.00000
N          2.15440        0.00000        1.08700
C          1.51210        0.00060        2.27000
C          0.07490        0.00590        2.39250
C         -0.67770        0.00440        1.19110
N         -2.03320        0.01130        1.12690
N         -0.18690        0.00790        3.77920
C          1.08440       -0.00270        4.42700
N          2.08030       -0.00560        3.56060
C         -1.43160       -0.00360        4.40990
O         -2.50500       -0.01900        3.85470
O         -1.24630        0.02750        5.75120
C         -2.43630       -0.18460        6.53960
C         -2.72080       -1.65020        6.58810
C         -2.10510       -2.44750        7.55410
C         -2.35160       -3.81830        7.58250
C         -3.20790       -4.39250        6.64430
C         -3.81940       -3.59630        5.67700
C         -3.57730       -2.22510        5.64740
H          1.84370       -0.00100       -0.98820
H         -2.49830       -0.00570        0.23910
H         -2.57740       -0.00530        1.97290
H          1.16670       -0.00840        5.51020
H         -3.27200        0.41510        6.12920
H         -2.11400        0.24360        7.51070
H         -1.42870       -2.00290        8.28260
H         -1.87220       -4.44140        8.33520
H         -3.39670       -5.46480        6.66390
H         -4.48370       -4.04640        4.94150
H         -4.04800       -1.60400        4.88180
