rmsd125.gzmat
 OpenBabel08211713373D

 31 33  0  0  1  0  0  0  0  0999 V2000
    0.0000    0.0000    0.0000 N   0  0  0  0  0  0  0  0  0  0  0  0
    1.3502    0.0000    0.0000 C   0  0  0  0  0  0  0  0  0  0  0  0
    2.1544    0.0000    1.0872 N   0  0  0  0  0  0  0  0  0  0  0  0
    1.5117    0.0128    2.2699 C   0  0  0  0  0  0  0  0  0  0  0  0
    0.0743    0.0210    2.3926 C   0  0  1  0  0  0  0  0  0  0  0  0
   -0.6775   -0.0002    1.1912 C   0  0  0  0  0  0  0  0  0  0  0  0
   -2.0328   -0.0329    1.1272 N   0  0  0  0  0  0  0  0  0  0  0  0
   -0.1869    0.0489    3.7791 N   0  0  0  0  0  0  0  0  0  0  0  0
    1.0849    0.0503    4.4262 C   0  0  0  0  0  0  0  0  0  0  0  0
    2.0805    0.0278    3.5598 N   0  0  0  0  0  0  0  0  0  0  0  0
   -1.4291    0.0860    4.4153 C   0  0  0  0  0  0  0  0  0  0  0  0
   -2.5057    0.0595    3.8676 O   0  0  0  0  0  0  0  0  0  0  0  0
   -1.2299    0.1826    5.7518 O   0  0  0  0  0  0  0  0  0  0  0  0
   -2.4074    0.0240    6.5696 C   0  0  0  0  0  0  0  0  0  0  0  0
   -2.6878   -1.4352    6.7229 C   0  0  0  0  0  0  0  0  0  0  0  0
   -2.0599   -2.1640    7.7342 C   0  0  0  0  0  0  0  0  0  0  0  0
   -2.3028   -3.5302    7.8581 C   0  0  0  0  0  0  0  0  0  0  0  0
   -3.1666   -4.1682    6.9691 C   0  0  0  0  0  0  0  0  0  0  0  0
   -3.7916   -3.4404    5.9576 C   0  0  0  0  0  0  0  0  0  0  0  0
   -3.5542   -2.0735    5.8341 C   0  0  0  0  0  0  0  0  0  0  0  0
    1.8432    0.0002   -0.9884 H   0  0  0  0  0  0  0  0  0  0  0  0
   -2.4971   -0.0208    0.2381 H   0  0  0  0  0  0  0  0  0  0  0  0
   -2.5772   -0.0140    1.9730 H   0  0  0  0  0  0  0  0  0  0  0  0
    1.1681    0.0655    5.5095 H   0  0  0  0  0  0  0  0  0  0  0  0
   -3.2506    0.5943    6.1343 H   0  0  0  0  0  0  0  0  0  0  0  0
   -2.0717    0.5164    7.5055 H   0  0  0  0  0  0  0  0  0  0  0  0
   -1.3762   -1.6700    8.4225 H   0  0  0  0  0  0  0  0  0  0  0  0
   -1.8136   -4.1003    8.6459 H   0  0  0  0  0  0  0  0  0  0  0  0
   -3.3504   -5.2375    7.0616 H   0  0  0  0  0  0  0  0  0  0  0  0
   -4.4617   -3.9395    5.2593 H   0  0  0  0  0  0  0  0  0  0  0  0
   -4.0362   -1.5054    5.0357 H   0  0  0  0  0  0  0  0  0  0  0  0
  1  6  2  0  0  0  0
  2  1  2  0  0  0  0
  2  3  2  0  0  0  0
  3  4  2  0  0  0  0
  4 10  2  0  0  0  0
  5  4  1  1  0  0  0
  5  6  1  0  0  0  0
  5  8  1  0  0  0  0
  7  6  1  0  0  0  0
  7 23  1  0  0  0  0
  8 11  1  0  0  0  0
  8  9  1  0  0  0  0
  9 24  1  0  0  0  0
 10  9  2  0  0  0  0
 11 13  1  0  0  0  0
 12 11  2  0  0  0  0
 13 14  1  0  0  0  0
 14 15  1  0  0  0  0
 14 26  1  0  0  0  0
 15 16  2  0  0  0  0
 16 17  1  0  0  0  0
 16 27  1  0  0  0  0
 17 28  1  0  0  0  0
 18 29  1  0  0  0  0
 18 17  2  0  0  0  0
 19 18  1  0  0  0  0
 20 19  2  0  0  0  0
 20 15  1  0  0  0  0
 21  2  1  0  0  0  0
 22  7  1  0  0  0  0
 25 14  1  0  0  0  0
 30 19  1  0  0  0  0
 31 20  1  0  0  0  0
M  RAD  1   5   2
M  END
$$$$
