rmsd228.gzmat
 OpenBabel08211713373D

 31 33  0  0  1  0  0  0  0  0999 V2000
    0.0000    0.0000    0.0000 N   0  0  0  0  0  0  0  0  0  0  0  0
    1.3502    0.0000    0.0000 C   0  0  0  0  0  0  0  0  0  0  0  0
    2.1542    0.0000    1.0873 N   0  0  0  0  0  0  0  0  0  0  0  0
    1.5113    0.0094    2.2700 C   0  0  0  0  0  0  0  0  0  0  0  0
    0.0736    0.0211    2.3925 C   0  0  1  0  0  0  0  0  0  0  0  0
   -0.6779    0.0077    1.1908 C   0  0  0  0  0  0  0  0  0  0  0  0
   -2.0335    0.0052    1.1262 N   0  0  0  0  0  0  0  0  0  0  0  0
   -0.1880    0.0358    3.7790 N   0  0  0  0  0  0  0  0  0  0  0  0
    1.0834    0.0314    4.4265 C   0  0  0  0  0  0  0  0  0  0  0  0
    2.0796    0.0113    3.5605 N   0  0  0  0  0  0  0  0  0  0  0  0
   -1.4286    0.1167    4.4153 C   0  0  0  0  0  0  0  0  0  0  0  0
   -2.5074    0.0875    3.8727 O   0  0  0  0  0  0  0  0  0  0  0  0
   -1.2211    0.2531    5.7466 O   0  0  0  0  0  0  0  0  0  0  0  0
   -2.4031    0.2312    6.5710 C   0  0  0  0  0  0  0  0  0  0  0  0
   -2.7760   -1.1884    6.8466 C   0  0  0  0  0  0  0  0  0  0  0  0
   -2.1747   -1.8739    7.9034 C   0  0  0  0  0  0  0  0  0  0  0  0
   -2.5292   -3.1954    8.1642 C   0  0  0  0  0  0  0  0  0  0  0  0
   -3.4764   -3.8345    7.3655 C   0  0  0  0  0  0  0  0  0  0  0  0
   -4.0669   -3.1537    6.3015 C   0  0  0  0  0  0  0  0  0  0  0  0
   -3.7170   -1.8310    6.0404 C   0  0  0  0  0  0  0  0  0  0  0  0
    1.8435   -0.0022   -0.9882 H   0  0  0  0  0  0  0  0  0  0  0  0
   -2.4972   -0.0179    0.2373 H   0  0  0  0  0  0  0  0  0  0  0  0
   -2.5782    0.0037    1.9718 H   0  0  0  0  0  0  0  0  0  0  0  0
    1.1656    0.0362    5.5100 H   0  0  0  0  0  0  0  0  0  0  0  0
   -3.2132    0.8149    6.0922 H   0  0  0  0  0  0  0  0  0  0  0  0
   -2.0353    0.7764    7.4653 H   0  0  0  0  0  0  0  0  0  0  0  0
   -1.4268   -1.3802    8.5218 H   0  0  0  0  0  0  0  0  0  0  0  0
   -2.0657   -3.7302    8.9908 H   0  0  0  0  0  0  0  0  0  0  0  0
   -3.7534   -4.8673    7.5723 H   0  0  0  0  0  0  0  0  0  0  0  0
   -4.8009   -3.6555    5.6734 H   0  0  0  0  0  0  0  0  0  0  0  0
   -4.1704   -1.3004    5.2011 H   0  0  0  0  0  0  0  0  0  0  0  0
  1  6  2  0  0  0  0
  2  1  2  0  0  0  0
  2  3  2  0  0  0  0
  3  4  2  0  0  0  0
  4 10  2  0  0  0  0
  5  4  1  1  0  0  0
  5  6  1  0  0  0  0
  5  8  1  0  0  0  0
  7  6  1  0  0  0  0
  7 23  1  0  0  0  0
  8 11  1  0  0  0  0
  8  9  1  0  0  0  0
  9 24  1  0  0  0  0
 10  9  2  0  0  0  0
 11 13  1  0  0  0  0
 12 11  2  0  0  0  0
 13 14  1  0  0  0  0
 14 15  1  0  0  0  0
 14 26  1  0  0  0  0
 15 16  2  0  0  0  0
 16 17  1  0  0  0  0
 16 27  1  0  0  0  0
 17 28  1  0  0  0  0
 18 29  1  0  0  0  0
 18 17  2  0  0  0  0
 19 18  1  0  0  0  0
 20 19  2  0  0  0  0
 20 15  1  0  0  0  0
 21  2  1  0  0  0  0
 22  7  1  0  0  0  0
 25 14  1  0  0  0  0
 30 19  1  0  0  0  0
 31 20  1  0  0  0  0
M  RAD  1   5   2
M  END
$$$$
