52
rmsd216.gzmat
O          0.00000        0.00000        0.00000
C          1.20470        0.00000        0.00000
C          1.99930        0.00000        1.27410
C          3.25310        0.47470        1.26880
C          3.91150        0.95410        0.03040
O          4.88430        1.66880        0.06660
C          3.30770        0.49960       -1.24460
C          1.99280        0.01940       -1.25600
C          1.41800       -0.41690       -2.44410
C          2.16410       -0.37870       -3.62550
C          3.46910        0.10440       -3.61530
C          4.04450        0.55140       -2.42260
C          4.09210        0.56730        2.49750
O          4.64240       -0.39610        2.95950
C          4.18460        1.96550        3.08030
N          4.57360        2.04440        4.49600
C          5.98290        1.66670        4.71910
C          3.63780        1.34810        5.33860
C          3.85190        0.05240        5.83360
C          2.92260       -0.53220        6.67850
C          1.76340        0.18440        7.01330
O          0.92730       -0.52090        7.82620
C         -0.27400        0.12050        8.22660
C          1.53350        1.47160        6.53170
C          2.48160        2.05240        5.69390
C          1.32140       -0.52940        2.45440
C          0.11350        0.03250        2.87880
C         -0.52920       -0.47870        4.00300
C          0.02530       -1.55280        4.69750
C          1.22560       -2.11810        4.26890
C          1.87810       -1.60650        3.15100
H          0.38880       -0.78390       -2.45030
H          1.71820       -0.72680       -4.55690
H          4.04660        0.13660       -4.53880
H          5.06590        0.94050       -2.41070
H          3.20550        2.49140        2.96830
H          4.91650        2.55460        2.46880
H          6.62480        2.41240        4.22040
H          6.25630        0.66690        4.34480
H          6.20140        1.71060        5.79910
H          4.74160       -0.50550        5.53620
H          3.07060       -1.53440        7.07360
H         -0.75770       -0.65380        8.83690
H         -0.89560        0.36940        7.36090
H         -0.05920        1.00650        8.83220
H          0.63940        2.02500        6.79490
H          2.32960        3.06400        5.31710
H         -0.32680        0.86380        2.32770
H         -1.46660       -0.04050        4.33710
H         -0.47260       -1.94630        5.58270
H          1.66040       -2.95240        4.81670
H          2.82550       -2.04070        2.82320
