52
rmsd235.gzmat
O          0.00000        0.00000        0.00000
C          1.20470        0.00000        0.00000
C          1.99730        0.00000        1.27530
C          3.25380        0.46730        1.27190
C          3.91980        0.93730        0.03430
O          4.90160        1.63990        0.07080
C          3.31110        0.49270       -1.24180
C          1.99210        0.02420       -1.25610
C          1.41190       -0.39500       -2.44800
C          2.15680       -0.35140       -3.63000
C          3.46680        0.11830       -3.61600
C          4.04740        0.54710       -2.41990
C          4.08600        0.56340        2.50540
O          4.61820       -0.40180        2.98420
C          4.19610        1.96760        3.07060
N          4.56480        2.05810        4.49060
C          5.96660        1.66790        4.73680
C          3.60960        1.38890        5.33190
C          3.81410        0.11140        5.87550
C          2.87470       -0.43910        6.73220
C          1.71090        0.28910        7.02240
O          0.86700       -0.38240        7.85570
C         -0.35060        0.26210        8.19740
C          1.48520        1.55450        6.48440
C          2.44610        2.10430        5.64010
C          1.31420       -0.51590        2.45880
C          0.11510        0.06420        2.88280
C         -0.52760       -0.42710        4.01590
C          0.01590       -1.50260        4.71690
C          1.20490       -2.08920        4.28590
C          1.85900       -1.59540        3.16100
H          0.37910       -0.75230       -2.45590
H          1.70660       -0.68540       -4.56460
H          4.04430        0.15470       -4.53960
H          5.07300        0.92510       -2.40430
H          3.23090        2.51250        2.93520
H          4.94980        2.53250        2.46290
H          6.62150        2.41050        4.24970
H          6.23790        0.66760        4.36270
H          6.17030        1.70780        5.82010
H          4.70350       -0.46100        5.60630
H          3.01800       -1.42380        7.17000
H         -0.83550       -0.48500        8.83980
H         -0.95780        0.45470        7.30760
H         -0.16040        1.18190        8.75900
H          0.58390        2.11380        6.70810
H          2.29860        3.09960        5.22070
H         -0.31760        0.89480        2.32500
H         -1.45620        0.02820        4.35130
H         -0.48240       -1.88050        5.60880
H          1.62950       -2.92710        4.83650
H          2.79860       -2.04430        2.83130
