rmsd247.gzmat
 OpenBabel08211713403D

 52 55  0  0  0  0  0  0  0  0999 V2000
    0.0000    0.0000    0.0000 O   0  0  0  0  0  0  0  0  0  0  0  0
    1.2050    0.0000    0.0000 C   0  0  0  0  0  0  0  0  0  0  0  0
    1.9955    0.0000    1.2779 C   0  0  0  0  0  0  0  0  0  0  0  0
    3.2637    0.4352    1.2743 C   0  0  0  0  0  0  0  0  0  0  0  0
    3.9532    0.8571    0.0323 C   0  0  0  0  0  0  0  0  0  0  0  0
    4.9776    1.4973    0.0646 O   0  0  0  0  0  0  0  0  0  0  0  0
    3.3233    0.4436   -1.2435 C   0  0  0  0  0  0  0  0  0  0  0  0
    1.9901    0.0177   -1.2573 C   0  0  0  0  0  0  0  0  0  0  0  0
    1.3913   -0.3681   -2.4516 C   0  0  0  0  0  0  0  0  0  0  0  0
    2.1312   -0.3357   -3.6368 C   0  0  0  0  0  0  0  0  0  0  0  0
    3.4563    0.0895   -3.6235 C   0  0  0  0  0  0  0  0  0  0  0  0
    4.0561    0.4852   -2.4247 C   0  0  0  0  0  0  0  0  0  0  0  0
    4.0839    0.5450    2.5146 C   0  0  0  0  0  0  0  0  0  0  0  0
    4.4596   -0.4283    3.1116 O   0  0  0  0  0  0  0  0  0  0  0  0
    4.3968    1.9709    2.9316 C   0  0  0  0  0  0  0  0  0  0  0  0
    4.5992    2.1832    4.3718 N   0  0  0  0  0  0  0  0  0  0  0  0
    5.8407    1.5621    4.8713 C   0  0  0  0  0  0  0  0  0  0  0  0
    3.4232    1.8524    5.1292 C   0  0  0  0  0  0  0  0  0  0  0  0
    2.4058    2.8245    5.1448 C   0  0  0  0  0  0  0  0  0  0  0  0
    1.2607    2.6207    5.8942 C   0  0  0  0  0  0  0  0  0  0  0  0
    1.1395    1.4383    6.6430 C   0  0  0  0  0  0  0  0  0  0  0  0
   -0.0320    1.3758    7.3358 O   0  0  0  0  0  0  0  0  0  0  0  0
   -0.2502    0.2190    8.1297 C   0  0  0  0  0  0  0  0  0  0  0  0
    2.1362    0.4666    6.6405 C   0  0  0  0  0  0  0  0  0  0  0  0
    3.2766    0.6760    5.8669 C   0  0  0  0  0  0  0  0  0  0  0  0
    1.2887   -0.4883    2.4595 C   0  0  0  0  0  0  0  0  0  0  0  0
    0.1020    0.1264    2.8691 C   0  0  0  0  0  0  0  0  0  0  0  0
   -0.5818   -0.3630    3.9786 C   0  0  0  0  0  0  0  0  0  0  0  0
   -0.0903   -1.4681    4.6719 C   0  0  0  0  0  0  0  0  0  0  0  0
    1.0969   -2.0764    4.2673 C   0  0  0  0  0  0  0  0  0  0  0  0
    1.7909   -1.5863    3.1647 C   0  0  0  0  0  0  0  0  0  0  0  0
    0.3468   -0.6901   -2.4589 H   0  0  0  0  0  0  0  0  0  0  0  0
    1.6651   -0.6419   -4.5733 H   0  0  0  0  0  0  0  0  0  0  0  0
    4.0306    0.1173   -4.5494 H   0  0  0  0  0  0  0  0  0  0  0  0
    5.0939    0.8280   -2.4102 H   0  0  0  0  0  0  0  0  0  0  0  0
    3.5860    2.6612    2.5958 H   0  0  0  0  0  0  0  0  0  0  0  0
    5.3164    2.3022    2.3818 H   0  0  0  0  0  0  0  0  0  0  0  0
    6.6972    2.0416    4.3674 H   0  0  0  0  0  0  0  0  0  0  0  0
    5.9084    0.4738    4.7099 H   0  0  0  0  0  0  0  0  0  0  0  0
    5.9351    1.7649    5.9515 H   0  0  0  0  0  0  0  0  0  0  0  0
    2.5350    3.7442    4.5733 H   0  0  0  0  0  0  0  0  0  0  0  0
    0.4611    3.3572    5.9197 H   0  0  0  0  0  0  0  0  0  0  0  0
   -1.2563    0.3990    8.5308 H   0  0  0  0  0  0  0  0  0  0  0  0
    0.4824    0.1629    8.9408 H   0  0  0  0  0  0  0  0  0  0  0  0
   -0.2386   -0.6884    7.5181 H   0  0  0  0  0  0  0  0  0  0  0  0
    2.0402   -0.4481    7.2151 H   0  0  0  0  0  0  0  0  0  0  0  0
    4.0468   -0.0953    5.8296 H   0  0  0  0  0  0  0  0  0  0  0  0
   -0.2904    0.9815    2.3179 H   0  0  0  0  0  0  0  0  0  0  0  0
   -1.5018    0.1193    4.3040 H   0  0  0  0  0  0  0  0  0  0  0  0
   -0.6365   -1.8579    5.5282 H   0  0  0  0  0  0  0  0  0  0  0  0
    1.4853   -2.9340    4.8130 H   0  0  0  0  0  0  0  0  0  0  0  0
    2.7263   -2.0565    2.8525 H   0  0  0  0  0  0  0  0  0  0  0  0
  1  2  2  0  0  0  0
  2  3  1  0  0  0  0
  3 26  1  0  0  0  0
  4  3  2  0  0  0  0
  4 13  1  0  0  0  0
  5  6  2  0  0  0  0
  5  4  1  0  0  0  0
  7  5  1  0  0  0  0
  8  7  1  0  0  0  0
  8  2  1  0  0  0  0
  9  8  2  0  0  0  0
 10 11  2  0  0  0  0
 10  9  1  0  0  0  0
 11 12  1  0  0  0  0
 12 35  1  0  0  0  0
 12  7  2  0  0  0  0
 13 15  1  0  0  0  0
 13 14  2  0  0  0  0
 15 16  1  0  0  0  0
 16 17  1  0  0  0  0
 16 18  1  0  0  0  0
 17 40  1  0  0  0  0
 18 19  2  0  0  0  0
 18 25  1  0  0  0  0
 19 20  1  0  0  0  0
 20 42  1  0  0  0  0
 20 21  2  0  0  0  0
 21 22  1  0  0  0  0
 22 23  1  0  0  0  0
 23 43  1  0  0  0  0
 23 44  1  0  0  0  0
 24 21  1  0  0  0  0
 24 46  1  0  0  0  0
 25 24  2  0  0  0  0
 26 27  2  0  0  0  0
 26 31  1  0  0  0  0
 27 28  1  0  0  0  0
 28 49  1  0  0  0  0
 28 29  2  0  0  0  0
 29 50  1  0  0  0  0
 30 29  1  0  0  0  0
 30 51  1  0  0  0  0
 31 30  2  0  0  0  0
 32  9  1  0  0  0  0
 33 10  1  0  0  0  0
 34 11  1  0  0  0  0
 36 15  1  0  0  0  0
 37 15  1  0  0  0  0
 38 17  1  0  0  0  0
 39 17  1  0  0  0  0
 41 19  1  0  0  0  0
 45 23  1  0  0  0  0
 47 25  1  0  0  0  0
 48 27  1  0  0  0  0
 52 31  1  0  0  0  0
M  END
$$$$
