52
rmsd237.gzmat
O          0.00000        0.00000        0.00000
C          1.20480        0.00000        0.00000
C          1.99610        0.00000        1.27580
C          3.26750        0.42430        1.26960
C          3.94960        0.86560        0.03040
O          4.95600        1.53250        0.06510
C          3.32280        0.44530       -1.24500
C          1.99060        0.01610       -1.25730
C          1.39390       -0.37550       -2.45060
C          2.13510       -0.34660       -3.63530
C          3.45890        0.08220       -3.62290
C          4.05640        0.48580       -2.42540
C          4.10010        0.50140        2.50440
O          4.60530       -0.47690        2.98570
C          4.24210        1.90300        3.06760
N          4.65660        1.98880        4.47560
C          6.05740        1.57110        4.67900
C          3.71470        1.33230        5.34270
C          3.89500        0.04620        5.85540
C          2.96140       -0.49940        6.73460
C          1.83960        0.25290        7.07190
O          0.83330       -0.14970        7.89820
C          0.92800       -1.46050        8.43550
C          1.63790        1.54650        6.56370
C          2.58020        2.08220        5.70270
C          1.29290       -0.46570        2.46900
C          0.13310        0.18960        2.89240
C         -0.53000       -0.24920        4.03510
C         -0.05100       -1.35150        4.74140
C          1.09790       -2.01370        4.31030
C          1.77810       -1.56670        3.18090
H          0.35000       -0.69940       -2.45740
H          1.67040       -0.65790       -4.57050
H          4.03420        0.10770       -4.54820
H          5.09210        0.83490       -2.41200
H          3.27600        2.45480        2.96490
H          4.98030        2.46350        2.43680
H          6.71240        2.27720        4.14100
H          6.28760        0.55050        4.33260
H          6.30280        1.64320        5.75190
H          4.75890       -0.54840        5.55470
H          3.11800       -1.49720        7.12910
H          0.00280       -1.53880        9.02170
H          1.80180       -1.55170        9.08830
H          0.94400       -2.21240        7.64020
H          0.75150        2.10550        6.85180
H          2.45540        3.08980        5.30520
H         -0.25350        1.03730        2.32660
H         -1.42390        0.26860        4.37740
H         -0.57210       -1.68880        5.63600
H          1.47080       -2.87560        4.85990
H          2.69180       -2.06870        2.85650
