52

O          0.05580       -0.77010        2.05790
C          1.11090       -0.28270        1.68720
C          2.42490       -0.72260        2.28530
C          3.57870       -0.12380        1.87190
C          3.62230        0.87140        0.76740
O          4.69820        1.33120        0.40490
C          2.34100        1.29780        0.15820
C          1.13010        0.76710        0.63070
C         -0.08130        1.23280        0.10690
C         -0.08190        2.21900       -0.87820
C          1.12820        2.73790       -1.35670
C          2.33890        2.27610       -0.84160
C          4.94400       -0.31470        2.50730
O          5.62680       -1.29460        2.32140
C          5.43410        0.84180        3.40060
N          4.52690        1.18350        4.48070
C          4.54100        0.27470        5.61220
C          3.32780        1.83850        4.16360
C          2.12470        1.54750        4.82770
C          0.90540        2.07490        4.38950
C          0.85610        2.93360        3.28530
O         -0.28650        3.42040        2.73040
C         -1.51700        2.89460        3.17040
C          2.06360        3.32100        2.68740
C          3.27090        2.78750        3.11540
C          2.37410       -1.75260        3.34610
C          1.41680       -1.68240        4.37890
C          1.40480       -2.62990        5.40070
C          2.32960       -3.67890        5.40300
C          3.26400       -3.77640        4.36950
C          3.28690       -2.82450        3.34930
H         -1.00960        0.80790        0.49050
H         -1.02900        2.58800       -1.27830
H          1.12320        3.50890       -2.13070
H          3.29720        2.66920       -1.18470
H          5.62420        1.70360        2.74560
H          6.40000        0.52220        3.81500
H          5.57580       -0.04260        5.80170
H          3.92700       -0.63400        5.46100
H          4.17620        0.78860        6.51430
H          2.11130        0.84500        5.65780
H         -0.00640        1.77800        4.90760
H         -2.29470        3.33650        2.53310
H         -1.72820        3.16060        4.22240
H         -1.54610        1.79470        3.06900
H          2.02830        4.01310        1.84500
H          4.18100        3.08800        2.59870
H          0.69040       -0.87470        4.38180
H          0.66370       -2.55130        6.19970
H          2.31450       -4.42300        6.20320
H          3.98030       -4.60090        4.35130
H          4.01580       -2.90800        2.54500
