
     RDKit          3D

 52 55  0  0  0  0  0  0  0  0999 V2000
    0.0371   -0.3974   -0.1878 O   0  0  0  0  0  0  0  0  0  0  0  0
    1.2301   -0.1527   -0.1606 C   0  0  0  0  0  0  0  0  0  0  0  0
    1.9997   -0.1708    1.1362 C   0  0  0  0  0  0  0  0  0  0  0  0
    3.3324    0.1152    1.1242 C   0  0  0  0  0  0  0  0  0  0  0  0
    4.0736    0.5052   -0.1003 C   0  0  0  0  0  0  0  0  0  0  0  0
    5.2381    0.8742   -0.0203 O   0  0  0  0  0  0  0  0  0  0  0  0
    3.3464    0.4625   -1.3939 C   0  0  0  0  0  0  0  0  0  0  0  0
    1.9753    0.1518   -1.4177 C   0  0  0  0  0  0  0  0  0  0  0  0
    1.2900    0.1322   -2.6387 C   0  0  0  0  0  0  0  0  0  0  0  0
    1.9691    0.4148   -3.8238 C   0  0  0  0  0  0  0  0  0  0  0  0
    3.3354    0.7244   -3.7974 C   0  0  0  0  0  0  0  0  0  0  0  0
    4.0231    0.7519   -2.5844 C   0  0  0  0  0  0  0  0  0  0  0  0
    4.1773    0.1661    2.3767 C   0  0  0  0  0  0  0  0  0  0  0  0
    4.7191   -0.8166    2.8245 O   0  0  0  0  0  0  0  0  0  0  0  0
    4.3162    1.5446    3.0317 C   0  0  0  0  0  0  0  0  0  0  0  0
    4.7212    1.4897    4.4132 N   0  0  0  0  0  0  0  0  0  0  0  0
    6.1184    1.1854    4.6582 C   0  0  0  0  0  0  0  0  0  0  0  0
    3.7612    1.0454    5.3440 C   0  0  0  0  0  0  0  0  0  0  0  0
    4.0630    0.1106    6.3450 C   0  0  0  0  0  0  0  0  0  0  0  0
    3.0963   -0.3106    7.2684 C   0  0  0  0  0  0  0  0  0  0  0  0
    1.7952    0.1943    7.2054 C   0  0  0  0  0  0  0  0  0  0  0  0
    0.7702   -0.1816    8.0235 O   0  0  0  0  0  0  0  0  0  0  0  0
    1.0272   -1.1344    9.0249 C   0  0  0  0  0  0  0  0  0  0  0  0
    1.4871    1.1475    6.2223 C   0  0  0  0  0  0  0  0  0  0  0  0
    2.4455    1.5609    5.3122 C   0  0  0  0  0  0  0  0  0  0  0  0
    1.2544   -0.5157    2.3678 C   0  0  0  0  0  0  0  0  0  0  0  0
    0.0225    0.1058    2.6549 C   0  0  0  0  0  0  0  0  0  0  0  0
   -0.6670   -0.2005    3.8260 C   0  0  0  0  0  0  0  0  0  0  0  0
   -0.1521   -1.1403    4.7238 C   0  0  0  0  0  0  0  0  0  0  0  0
    1.0565   -1.7772    4.4395 C   0  0  0  0  0  0  0  0  0  0  0  0
    1.7568   -1.4695    3.2742 C   0  0  0  0  0  0  0  0  0  0  0  0
    0.2258   -0.1084   -2.6317 H   0  0  0  0  0  0  0  0  0  0  0  0
    1.4332    0.3952   -4.7756 H   0  0  0  0  0  0  0  0  0  0  0  0
    3.8627    0.9456   -4.7282 H   0  0  0  0  0  0  0  0  0  0  0  0
    5.0857    0.9946   -2.5314 H   0  0  0  0  0  0  0  0  0  0  0  0
    3.3678    2.0877    2.9096 H   0  0  0  0  0  0  0  0  0  0  0  0
    5.0608    2.0943    2.4292 H   0  0  0  0  0  0  0  0  0  0  0  0
    6.7348    1.7497    3.9422 H   0  0  0  0  0  0  0  0  0  0  0  0
    6.3655    0.1149    4.5468 H   0  0  0  0  0  0  0  0  0  0  0  0
    6.3951    1.5102    5.6733 H   0  0  0  0  0  0  0  0  0  0  0  0
    5.0595   -0.3252    6.4035 H   0  0  0  0  0  0  0  0  0  0  0  0
    3.3782   -1.0487    8.0192 H   0  0  0  0  0  0  0  0  0  0  0  0
    0.0838   -1.2891    9.5657 H   0  0  0  0  0  0  0  0  0  0  0  0
    1.7957   -0.7852    9.7389 H   0  0  0  0  0  0  0  0  0  0  0  0
    1.3586   -2.1003    8.6004 H   0  0  0  0  0  0  0  0  0  0  0  0
    0.4728    1.5462    6.1846 H   0  0  0  0  0  0  0  0  0  0  0  0
    2.1695    2.3072    4.5666 H   0  0  0  0  0  0  0  0  0  0  0  0
   -0.3888    0.8370    1.9597 H   0  0  0  0  0  0  0  0  0  0  0  0
   -1.6111    0.3042    4.0439 H   0  0  0  0  0  0  0  0  0  0  0  0
   -0.6792   -1.3569    5.6551 H   0  0  0  0  0  0  0  0  0  0  0  0
    1.4700   -2.5078    5.1374 H   0  0  0  0  0  0  0  0  0  0  0  0
    2.6958   -1.9760    3.0566 H   0  0  0  0  0  0  0  0  0  0  0  0
  1  2  2  0
  2  3  1  0
  2  8  1  0
  3  4  2  0
  3 26  1  0
  4  5  1  0
  4 13  1  0
  5  6  2  0
  5  7  1  0
  7  8  2  0
  7 12  1  0
  8  9  1  0
  9 10  2  0
  9 32  1  0
 10 11  1  0
 10 33  1  0
 11 12  2  0
 11 34  1  0
 12 35  1  0
 13 14  2  0
 13 15  1  0
 15 16  1  0
 15 36  1  0
 15 37  1  0
 16 17  1  0
 16 18  1  0
 17 38  1  0
 17 39  1  0
 17 40  1  0
 18 19  2  0
 18 25  1  0
 19 20  1  0
 19 41  1  0
 20 21  2  0
 20 42  1  0
 21 22  1  0
 21 24  1  0
 22 23  1  0
 23 43  1  0
 23 44  1  0
 23 45  1  0
 24 25  2  0
 24 46  1  0
 25 47  1  0
 26 27  2  0
 26 31  1  0
 27 28  1  0
 27 48  1  0
 28 29  2  0
 28 49  1  0
 29 30  1  0
 29 50  1  0
 30 31  2  0
 30 51  1  0
 31 52  1  0
M  END

