52
rmsd26.gzmat
O          0.00000        0.00000        0.00000
C          1.20540        0.00000        0.00000
C          1.99220        0.00000        1.28000
C          3.28180        0.36810        1.26960
C          4.00360        0.71350        0.02310
O          5.07580        1.27070        0.05000
C          3.34220        0.34830       -1.25070
C          1.98430        0.01160       -1.26130
C          1.35180       -0.29800       -2.46090
C          2.08320       -0.28640       -3.65150
C          3.43690        0.03560       -3.63870
C          4.07010        0.35970       -2.43580
C          4.10130        0.49150        2.50960
O          4.47100       -0.46980        3.12820
C          4.42830        1.92560        2.89060
N          4.62010        2.17340        4.32590
C          5.85650        1.56210        4.84770
C          3.43830        1.89830        5.08960
C          3.33750        0.85600        6.01390
C          2.18910        0.70860        6.79040
C          1.13830        1.60290        6.61320
O         -0.04700        1.58220        7.28610
C         -0.23010        0.53830        8.23070
C          1.21460        2.65250        5.68280
C          2.36590        2.79760        4.92980
C          1.25860       -0.40090        2.47820
C          0.08300        0.26730        2.83400
C         -0.61790       -0.12380        3.97120
C         -0.15630       -1.18650        4.74650
C          1.01430       -1.85430        4.39080
C          1.72570       -1.46140        3.26070
H          0.28680       -0.54460       -2.46720
H          1.58810       -0.52870       -4.59170
H          4.00690        0.03920       -4.56730
H          5.13050        0.62510       -2.42070
H          3.63080        2.61590        2.52460
H          5.35750        2.22880        2.34070
H          6.71640        1.99880        4.31180
H          5.90460        0.46560        4.74410
H          5.96600        1.82450        5.91340
H          4.14890        0.13820        6.12850
H          2.13180       -0.10020        7.51070
H         -1.24830        0.72950        8.59440
H          0.49090        0.62470        9.04960
H         -0.17260       -0.44300        7.74950
H          0.37560        3.33510        5.57230
H          2.45510        3.61920        4.21920
H         -0.28730        1.08920        2.22080
H         -1.52630        0.40390        4.25620
H         -0.71170       -1.49350        5.63040
H          1.37810       -2.68100        4.99740
H          2.64800       -1.97970        2.98810
