rmsd26.gzmat
 OpenBabel08211713403D

 52 55  0  0  0  0  0  0  0  0999 V2000
    0.0000    0.0000    0.0000 O   0  0  0  0  0  0  0  0  0  0  0  0
    1.2054    0.0000    0.0000 C   0  0  0  0  0  0  0  0  0  0  0  0
    1.9922    0.0000    1.2800 C   0  0  0  0  0  0  0  0  0  0  0  0
    3.2818    0.3681    1.2696 C   0  0  0  0  0  0  0  0  0  0  0  0
    4.0036    0.7135    0.0231 C   0  0  0  0  0  0  0  0  0  0  0  0
    5.0758    1.2707    0.0500 O   0  0  0  0  0  0  0  0  0  0  0  0
    3.3422    0.3483   -1.2507 C   0  0  0  0  0  0  0  0  0  0  0  0
    1.9843    0.0116   -1.2613 C   0  0  0  0  0  0  0  0  0  0  0  0
    1.3518   -0.2980   -2.4609 C   0  0  0  0  0  0  0  0  0  0  0  0
    2.0832   -0.2864   -3.6515 C   0  0  0  0  0  0  0  0  0  0  0  0
    3.4369    0.0356   -3.6387 C   0  0  0  0  0  0  0  0  0  0  0  0
    4.0701    0.3597   -2.4358 C   0  0  0  0  0  0  0  0  0  0  0  0
    4.1013    0.4915    2.5096 C   0  0  0  0  0  0  0  0  0  0  0  0
    4.4710   -0.4698    3.1282 O   0  0  0  0  0  0  0  0  0  0  0  0
    4.4283    1.9256    2.8906 C   0  0  0  0  0  0  0  0  0  0  0  0
    4.6201    2.1734    4.3259 N   0  0  0  0  0  0  0  0  0  0  0  0
    5.8565    1.5621    4.8477 C   0  0  0  0  0  0  0  0  0  0  0  0
    3.4383    1.8983    5.0896 C   0  0  0  0  0  0  0  0  0  0  0  0
    3.3375    0.8560    6.0139 C   0  0  0  0  0  0  0  0  0  0  0  0
    2.1891    0.7086    6.7904 C   0  0  0  0  0  0  0  0  0  0  0  0
    1.1383    1.6029    6.6132 C   0  0  0  0  0  0  0  0  0  0  0  0
   -0.0470    1.5822    7.2861 O   0  0  0  0  0  0  0  0  0  0  0  0
   -0.2301    0.5383    8.2307 C   0  0  0  0  0  0  0  0  0  0  0  0
    1.2146    2.6525    5.6828 C   0  0  0  0  0  0  0  0  0  0  0  0
    2.3659    2.7976    4.9298 C   0  0  0  0  0  0  0  0  0  0  0  0
    1.2586   -0.4009    2.4782 C   0  0  0  0  0  0  0  0  0  0  0  0
    0.0830    0.2673    2.8340 C   0  0  0  0  0  0  0  0  0  0  0  0
   -0.6179   -0.1238    3.9712 C   0  0  0  0  0  0  0  0  0  0  0  0
   -0.1563   -1.1865    4.7465 C   0  0  0  0  0  0  0  0  0  0  0  0
    1.0143   -1.8543    4.3908 C   0  0  0  0  0  0  0  0  0  0  0  0
    1.7257   -1.4614    3.2607 C   0  0  0  0  0  0  0  0  0  0  0  0
    0.2868   -0.5446   -2.4672 H   0  0  0  0  0  0  0  0  0  0  0  0
    1.5881   -0.5287   -4.5917 H   0  0  0  0  0  0  0  0  0  0  0  0
    4.0069    0.0392   -4.5673 H   0  0  0  0  0  0  0  0  0  0  0  0
    5.1305    0.6251   -2.4207 H   0  0  0  0  0  0  0  0  0  0  0  0
    3.6308    2.6159    2.5246 H   0  0  0  0  0  0  0  0  0  0  0  0
    5.3575    2.2288    2.3407 H   0  0  0  0  0  0  0  0  0  0  0  0
    6.7164    1.9988    4.3118 H   0  0  0  0  0  0  0  0  0  0  0  0
    5.9046    0.4656    4.7441 H   0  0  0  0  0  0  0  0  0  0  0  0
    5.9660    1.8245    5.9134 H   0  0  0  0  0  0  0  0  0  0  0  0
    4.1489    0.1382    6.1285 H   0  0  0  0  0  0  0  0  0  0  0  0
    2.1318   -0.1002    7.5107 H   0  0  0  0  0  0  0  0  0  0  0  0
   -1.2483    0.7295    8.5944 H   0  0  0  0  0  0  0  0  0  0  0  0
    0.4909    0.6247    9.0496 H   0  0  0  0  0  0  0  0  0  0  0  0
   -0.1726   -0.4430    7.7495 H   0  0  0  0  0  0  0  0  0  0  0  0
    0.3756    3.3351    5.5723 H   0  0  0  0  0  0  0  0  0  0  0  0
    2.4551    3.6192    4.2192 H   0  0  0  0  0  0  0  0  0  0  0  0
   -0.2873    1.0892    2.2208 H   0  0  0  0  0  0  0  0  0  0  0  0
   -1.5263    0.4039    4.2562 H   0  0  0  0  0  0  0  0  0  0  0  0
   -0.7117   -1.4935    5.6304 H   0  0  0  0  0  0  0  0  0  0  0  0
    1.3781   -2.6810    4.9974 H   0  0  0  0  0  0  0  0  0  0  0  0
    2.6480   -1.9797    2.9881 H   0  0  0  0  0  0  0  0  0  0  0  0
  1  2  2  0  0  0  0
  2  3  1  0  0  0  0
  3 26  1  0  0  0  0
  4  3  2  0  0  0  0
  4 13  1  0  0  0  0
  5  6  2  0  0  0  0
  5  4  1  0  0  0  0
  7  5  1  0  0  0  0
  8  7  1  0  0  0  0
  8  2  1  0  0  0  0
  9  8  2  0  0  0  0
 10 11  2  0  0  0  0
 10  9  1  0  0  0  0
 11 12  1  0  0  0  0
 12 35  1  0  0  0  0
 12  7  2  0  0  0  0
 13 15  1  0  0  0  0
 13 14  2  0  0  0  0
 15 16  1  0  0  0  0
 16 17  1  0  0  0  0
 16 18  1  0  0  0  0
 17 40  1  0  0  0  0
 18 19  1  0  0  0  0
 19 41  1  0  0  0  0
 19 20  2  0  0  0  0
 20 42  1  0  0  0  0
 21 20  1  0  0  0  0
 21 22  1  0  0  0  0
 22 23  1  0  0  0  0
 23 43  1  0  0  0  0
 23 44  1  0  0  0  0
 24 21  2  0  0  0  0
 25 18  2  0  0  0  0
 25 24  1  0  0  0  0
 26 27  2  0  0  0  0
 26 31  1  0  0  0  0
 27 28  1  0  0  0  0
 28 49  1  0  0  0  0
 28 29  2  0  0  0  0
 29 50  1  0  0  0  0
 30 29  1  0  0  0  0
 30 51  1  0  0  0  0
 31 30  2  0  0  0  0
 32  9  1  0  0  0  0
 33 10  1  0  0  0  0
 34 11  1  0  0  0  0
 36 15  1  0  0  0  0
 37 15  1  0  0  0  0
 38 17  1  0  0  0  0
 39 17  1  0  0  0  0
 45 23  1  0  0  0  0
 46 24  1  0  0  0  0
 47 25  1  0  0  0  0
 48 27  1  0  0  0  0
 52 31  1  0  0  0  0
M  END
$$$$
