52
rmsd247.gzmat
O          0.00000        0.00000        0.00000
C          1.20500        0.00000        0.00000
C          1.99550        0.00000        1.27790
C          3.26370        0.43520        1.27430
C          3.95320        0.85710        0.03230
O          4.97760        1.49730        0.06460
C          3.32330        0.44360       -1.24350
C          1.99010        0.01770       -1.25730
C          1.39130       -0.36810       -2.45160
C          2.13120       -0.33570       -3.63680
C          3.45630        0.08950       -3.62350
C          4.05610        0.48520       -2.42470
C          4.08390        0.54500        2.51460
O          4.45960       -0.42830        3.11160
C          4.39680        1.97090        2.93160
N          4.59920        2.18320        4.37180
C          5.84070        1.56210        4.87130
C          3.42320        1.85240        5.12920
C          2.40580        2.82450        5.14480
C          1.26070        2.62070        5.89420
C          1.13950        1.43830        6.64300
O         -0.03200        1.37580        7.33580
C         -0.25020        0.21900        8.12970
C          2.13620        0.46660        6.64050
C          3.27660        0.67600        5.86690
C          1.28870       -0.48830        2.45950
C          0.10200        0.12640        2.86910
C         -0.58180       -0.36300        3.97860
C         -0.09030       -1.46810        4.67190
C          1.09690       -2.07640        4.26730
C          1.79090       -1.58630        3.16470
H          0.34680       -0.69010       -2.45890
H          1.66510       -0.64190       -4.57330
H          4.03060        0.11730       -4.54940
H          5.09390        0.82800       -2.41020
H          3.58600        2.66120        2.59580
H          5.31640        2.30220        2.38180
H          6.69720        2.04160        4.36740
H          5.90840        0.47380        4.70990
H          5.93510        1.76490        5.95150
H          2.53500        3.74420        4.57330
H          0.46110        3.35720        5.91970
H         -1.25630        0.39900        8.53080
H          0.48240        0.16290        8.94080
H         -0.23860       -0.68840        7.51810
H          2.04020       -0.44810        7.21510
H          4.04680       -0.09530        5.82960
H         -0.29040        0.98150        2.31790
H         -1.50180        0.11930        4.30400
H         -0.63650       -1.85790        5.52820
H          1.48530       -2.93400        4.81300
H          2.72630       -2.05650        2.85250
