
     RDKit          3D

 52 55  0  0  0  0  0  0  0  0999 V2000
    0.0932   -0.6758   -0.0365 O   0  0  0  0  0  0  0  0  0  0  0  0
    1.2523   -0.3012   -0.0302 C   0  0  0  0  0  0  0  0  0  0  0  0
    2.0610   -0.2892    1.2448 C   0  0  0  0  0  0  0  0  0  0  0  0
    3.3612    0.1230    1.2006 C   0  0  0  0  0  0  0  0  0  0  0  0
    4.0170    0.6263   -0.0319 C   0  0  0  0  0  0  0  0  0  0  0  0
    5.1495    1.0897    0.0236 O   0  0  0  0  0  0  0  0  0  0  0  0
    3.2507    0.5735   -1.3010 C   0  0  0  0  0  0  0  0  0  0  0  0
    1.9163    0.1323   -1.2945 C   0  0  0  0  0  0  0  0  0  0  0  0
    1.1912    0.0992   -2.4921 C   0  0  0  0  0  0  0  0  0  0  0  0
    1.7954    0.4999   -3.6837 C   0  0  0  0  0  0  0  0  0  0  0  0
    3.1258    0.9397   -3.6873 C   0  0  0  0  0  0  0  0  0  0  0  0
    3.8526    0.9793   -2.4978 C   0  0  0  0  0  0  0  0  0  0  0  0
    4.2590    0.2049    2.4133 C   0  0  0  0  0  0  0  0  0  0  0  0
    4.8291   -0.7649    2.8549 O   0  0  0  0  0  0  0  0  0  0  0  0
    4.4365    1.5917    3.0485 C   0  0  0  0  0  0  0  0  0  0  0  0
    4.7735    1.5270    4.4459 N   0  0  0  0  0  0  0  0  0  0  0  0
    6.1561    1.2295    4.7669 C   0  0  0  0  0  0  0  0  0  0  0  0
    3.7693    1.1322    5.3460 C   0  0  0  0  0  0  0  0  0  0  0  0
    4.0601    0.3640    6.4935 C   0  0  0  0  0  0  0  0  0  0  0  0
    3.0608    0.0036    7.3935 C   0  0  0  0  0  0  0  0  0  0  0  0
    1.7316    0.3903    7.1862 C   0  0  0  0  0  0  0  0  0  0  0  0
    0.8145   -0.0318    8.1044 O   0  0  0  0  0  0  0  0  0  0  0  0
   -0.4949    0.4738    8.0240 C   0  0  0  0  0  0  0  0  0  0  0  0
    1.4263    1.1574    6.0561 C   0  0  0  0  0  0  0  0  0  0  0  0
    2.4264    1.5094    5.1516 C   0  0  0  0  0  0  0  0  0  0  0  0
    1.3810   -0.7455    2.4783 C   0  0  0  0  0  0  0  0  0  0  0  0
    0.0901   -0.2746    2.7946 C   0  0  0  0  0  0  0  0  0  0  0  0
   -0.5504   -0.6933    3.9583 C   0  0  0  0  0  0  0  0  0  0  0  0
    0.0769   -1.5931    4.8253 C   0  0  0  0  0  0  0  0  0  0  0  0
    1.3498   -2.0746    4.5183 C   0  0  0  0  0  0  0  0  0  0  0  0
    1.9966   -1.6597    3.3550 C   0  0  0  0  0  0  0  0  0  0  0  0
    0.1565   -0.2456   -2.4622 H   0  0  0  0  0  0  0  0  0  0  0  0
    1.2288    0.4705   -4.6172 H   0  0  0  0  0  0  0  0  0  0  0  0
    3.5944    1.2525   -4.6232 H   0  0  0  0  0  0  0  0  0  0  0  0
    4.8888    1.3202   -2.4682 H   0  0  0  0  0  0  0  0  0  0  0  0
    3.5367    2.1977    2.8710 H   0  0  0  0  0  0  0  0  0  0  0  0
    5.2447    2.0806    2.4790 H   0  0  0  0  0  0  0  0  0  0  0  0
    6.8050    1.7182    4.0259 H   0  0  0  0  0  0  0  0  0  0  0  0
    6.3856    0.1491    4.7581 H   0  0  0  0  0  0  0  0  0  0  0  0
    6.4093    1.6380    5.7580 H   0  0  0  0  0  0  0  0  0  0  0  0
    5.0776    0.0269    6.6850 H   0  0  0  0  0  0  0  0  0  0  0  0
    3.2958   -0.5977    8.2740 H   0  0  0  0  0  0  0  0  0  0  0  0
   -1.0468    0.0626    8.8802 H   0  0  0  0  0  0  0  0  0  0  0  0
   -1.0041    0.1653    7.0928 H   0  0  0  0  0  0  0  0  0  0  0  0
   -0.5133    1.5779    8.0814 H   0  0  0  0  0  0  0  0  0  0  0  0
    0.4049    1.4726    5.8503 H   0  0  0  0  0  0  0  0  0  0  0  0
    2.1387    2.1000    4.2828 H   0  0  0  0  0  0  0  0  0  0  0  0
   -0.4092    0.4257    2.1264 H   0  0  0  0  0  0  0  0  0  0  0  0
   -1.5469   -0.3107    4.1920 H   0  0  0  0  0  0  0  0  0  0  0  0
   -0.4205   -1.9141    5.7431 H   0  0  0  0  0  0  0  0  0  0  0  0
    1.8492   -2.7744    5.1910 H   0  0  0  0  0  0  0  0  0  0  0  0
    2.9826   -2.0531    3.1153 H   0  0  0  0  0  0  0  0  0  0  0  0
  1  2  2  0
  2  3  1  0
  2  8  1  0
  3  4  2  0
  3 26  1  0
  4  5  1  0
  4 13  1  0
  5  6  2  0
  5  7  1  0
  7  8  2  0
  7 12  1  0
  8  9  1  0
  9 10  2  0
  9 32  1  0
 10 11  1  0
 10 33  1  0
 11 12  2  0
 11 34  1  0
 12 35  1  0
 13 14  2  0
 13 15  1  0
 15 16  1  0
 15 36  1  0
 15 37  1  0
 16 17  1  0
 16 18  1  0
 17 38  1  0
 17 39  1  0
 17 40  1  0
 18 19  2  0
 18 25  1  0
 19 20  1  0
 19 41  1  0
 20 21  2  0
 20 42  1  0
 21 22  1  0
 21 24  1  0
 22 23  1  0
 23 43  1  0
 23 44  1  0
 23 45  1  0
 24 25  2  0
 24 46  1  0
 25 47  1  0
 26 27  2  0
 26 31  1  0
 27 28  1  0
 27 48  1  0
 28 29  2  0
 28 49  1  0
 29 30  1  0
 29 50  1  0
 30 31  2  0
 30 51  1  0
 31 52  1  0
M  END

