rmsd248.gzmat
 OpenBabel08211713403D

 52 55  0  0  0  0  0  0  0  0999 V2000
    0.0000    0.0000    0.0000 O   0  0  0  0  0  0  0  0  0  0  0  0
    1.2048    0.0000    0.0000 C   0  0  0  0  0  0  0  0  0  0  0  0
    1.9965    0.0000    1.2769 C   0  0  0  0  0  0  0  0  0  0  0  0
    3.2601    0.4486    1.2720 C   0  0  0  0  0  0  0  0  0  0  0  0
    3.9428    0.8823    0.0302 C   0  0  0  0  0  0  0  0  0  0  0  0
    4.9579    1.5369    0.0628 O   0  0  0  0  0  0  0  0  0  0  0  0
    3.3182    0.4598   -1.2455 C   0  0  0  0  0  0  0  0  0  0  0  0
    1.9899    0.0192   -1.2576 C   0  0  0  0  0  0  0  0  0  0  0  0
    1.3964   -0.3785   -2.4506 C   0  0  0  0  0  0  0  0  0  0  0  0
    2.1370   -0.3428   -3.6355 C   0  0  0  0  0  0  0  0  0  0  0  0
    3.4565    0.0990   -3.6239 C   0  0  0  0  0  0  0  0  0  0  0  0
    4.0507    0.5065   -2.4267 C   0  0  0  0  0  0  0  0  0  0  0  0
    4.0838    0.5615    2.5093 C   0  0  0  0  0  0  0  0  0  0  0  0
    4.4811   -0.4096    3.0955 O   0  0  0  0  0  0  0  0  0  0  0  0
    4.3732    1.9892    2.9380 C   0  0  0  0  0  0  0  0  0  0  0  0
    4.5483    2.1941    4.3826 N   0  0  0  0  0  0  0  0  0  0  0  0
    5.7890    1.5859    4.8987 C   0  0  0  0  0  0  0  0  0  0  0  0
    3.3640    1.8523    5.1197 C   0  0  0  0  0  0  0  0  0  0  0  0
    2.3162    2.7917    5.0808 C   0  0  0  0  0  0  0  0  0  0  0  0
    1.1648    2.5815    5.8189 C   0  0  0  0  0  0  0  0  0  0  0  0
    1.0660    1.4256    6.6110 C   0  0  0  0  0  0  0  0  0  0  0  0
   -0.1098    1.3591    7.2969 O   0  0  0  0  0  0  0  0  0  0  0  0
   -0.3224    0.2079    8.1007 C   0  0  0  0  0  0  0  0  0  0  0  0
    2.0885    0.4822    6.6561 C   0  0  0  0  0  0  0  0  0  0  0  0
    3.2363    0.6977    5.8949 C   0  0  0  0  0  0  0  0  0  0  0  0
    1.2992   -0.5041    2.4573 C   0  0  0  0  0  0  0  0  0  0  0  0
    0.0996    0.0846    2.8676 C   0  0  0  0  0  0  0  0  0  0  0  0
   -0.5720   -0.4186    3.9785 C   0  0  0  0  0  0  0  0  0  0  0  0
   -0.0549   -1.5114    4.6725 C   0  0  0  0  0  0  0  0  0  0  0  0
    1.1441   -2.0952    4.2663 C   0  0  0  0  0  0  0  0  0  0  0  0
    1.8252   -1.5916    3.1619 C   0  0  0  0  0  0  0  0  0  0  0  0
    0.3558   -0.7128   -2.4575 H   0  0  0  0  0  0  0  0  0  0  0  0
    1.6753   -0.6598   -4.5705 H   0  0  0  0  0  0  0  0  0  0  0  0
    4.0302    0.1308   -4.5500 H   0  0  0  0  0  0  0  0  0  0  0  0
    5.0840    0.8634   -2.4136 H   0  0  0  0  0  0  0  0  0  0  0  0
    3.5615    2.6726    2.5909 H   0  0  0  0  0  0  0  0  0  0  0  0
    5.2979    2.3334    2.4057 H   0  0  0  0  0  0  0  0  0  0  0  0
    6.6478    2.0773    4.4108 H   0  0  0  0  0  0  0  0  0  0  0  0
    5.8722    0.4990    4.7333 H   0  0  0  0  0  0  0  0  0  0  0  0
    5.8647    1.7853    5.9810 H   0  0  0  0  0  0  0  0  0  0  0  0
    2.4262    3.6930    4.4770 H   0  0  0  0  0  0  0  0  0  0  0  0
    0.3439    3.2941    5.8028 H   0  0  0  0  0  0  0  0  0  0  0  0
   -1.3320    0.3831    8.4957 H   0  0  0  0  0  0  0  0  0  0  0  0
    0.4053    0.1640    8.9168 H   0  0  0  0  0  0  0  0  0  0  0  0
   -0.3000   -0.7042    7.4960 H   0  0  0  0  0  0  0  0  0  0  0  0
    2.0075   -0.4158    7.2590 H   0  0  0  0  0  0  0  0  0  0  0  0
    4.0273   -0.0526    5.8984 H   0  0  0  0  0  0  0  0  0  0  0  0
   -0.3122    0.9309    2.3167 H   0  0  0  0  0  0  0  0  0  0  0  0
   -1.5018    0.0441    4.3047 H   0  0  0  0  0  0  0  0  0  0  0  0
   -0.5900   -1.9110    5.5315 H   0  0  0  0  0  0  0  0  0  0  0  0
    1.5514   -2.9434    4.8124 H   0  0  0  0  0  0  0  0  0  0  0  0
    2.7689   -2.0432    2.8475 H   0  0  0  0  0  0  0  0  0  0  0  0
  1  2  2  0  0  0  0
  2  3  1  0  0  0  0
  3 26  1  0  0  0  0
  4  3  2  0  0  0  0
  4 13  1  0  0  0  0
  5  6  2  0  0  0  0
  5  4  1  0  0  0  0
  7  5  1  0  0  0  0
  8  7  1  0  0  0  0
  8  2  1  0  0  0  0
  9  8  2  0  0  0  0
 10 11  2  0  0  0  0
 10  9  1  0  0  0  0
 11 12  1  0  0  0  0
 12 35  1  0  0  0  0
 12  7  2  0  0  0  0
 13 15  1  0  0  0  0
 13 14  2  0  0  0  0
 15 16  1  0  0  0  0
 16 17  1  0  0  0  0
 16 18  1  0  0  0  0
 17 40  1  0  0  0  0
 18 25  1  0  0  0  0
 19 18  2  0  0  0  0
 19 20  1  0  0  0  0
 20 21  2  0  0  0  0
 21 24  1  0  0  0  0
 21 22  1  0  0  0  0
 22 23  1  0  0  0  0
 23 43  1  0  0  0  0
 23 44  1  0  0  0  0
 24 46  1  0  0  0  0
 25 47  1  0  0  0  0
 25 24  2  0  0  0  0
 26 27  2  0  0  0  0
 26 31  1  0  0  0  0
 27 28  1  0  0  0  0
 28 49  1  0  0  0  0
 28 29  2  0  0  0  0
 29 50  1  0  0  0  0
 30 29  1  0  0  0  0
 30 51  1  0  0  0  0
 31 30  2  0  0  0  0
 32  9  1  0  0  0  0
 33 10  1  0  0  0  0
 34 11  1  0  0  0  0
 36 15  1  0  0  0  0
 37 15  1  0  0  0  0
 38 17  1  0  0  0  0
 39 17  1  0  0  0  0
 41 19  1  0  0  0  0
 42 20  1  0  0  0  0
 45 23  1  0  0  0  0
 48 27  1  0  0  0  0
 52 31  1  0  0  0  0
M  END
$$$$
