rmsd237.gzmat
 OpenBabel08211713403D

 52 55  0  0  0  0  0  0  0  0999 V2000
    0.0000    0.0000    0.0000 O   0  0  0  0  0  0  0  0  0  0  0  0
    1.2048    0.0000    0.0000 C   0  0  0  0  0  0  0  0  0  0  0  0
    1.9961    0.0000    1.2758 C   0  0  0  0  0  0  0  0  0  0  0  0
    3.2675    0.4243    1.2696 C   0  0  0  0  0  0  0  0  0  0  0  0
    3.9496    0.8656    0.0304 C   0  0  0  0  0  0  0  0  0  0  0  0
    4.9560    1.5325    0.0651 O   0  0  0  0  0  0  0  0  0  0  0  0
    3.3228    0.4453   -1.2450 C   0  0  0  0  0  0  0  0  0  0  0  0
    1.9906    0.0161   -1.2573 C   0  0  0  0  0  0  0  0  0  0  0  0
    1.3939   -0.3755   -2.4506 C   0  0  0  0  0  0  0  0  0  0  0  0
    2.1351   -0.3466   -3.6353 C   0  0  0  0  0  0  0  0  0  0  0  0
    3.4589    0.0822   -3.6229 C   0  0  0  0  0  0  0  0  0  0  0  0
    4.0564    0.4858   -2.4254 C   0  0  0  0  0  0  0  0  0  0  0  0
    4.1001    0.5014    2.5044 C   0  0  0  0  0  0  0  0  0  0  0  0
    4.6053   -0.4769    2.9857 O   0  0  0  0  0  0  0  0  0  0  0  0
    4.2421    1.9030    3.0676 C   0  0  0  0  0  0  0  0  0  0  0  0
    4.6566    1.9888    4.4756 N   0  0  0  0  0  0  0  0  0  0  0  0
    6.0574    1.5711    4.6790 C   0  0  0  0  0  0  0  0  0  0  0  0
    3.7147    1.3323    5.3427 C   0  0  0  0  0  0  0  0  0  0  0  0
    3.8950    0.0462    5.8554 C   0  0  0  0  0  0  0  0  0  0  0  0
    2.9614   -0.4994    6.7346 C   0  0  0  0  0  0  0  0  0  0  0  0
    1.8396    0.2529    7.0719 C   0  0  0  0  0  0  0  0  0  0  0  0
    0.8333   -0.1497    7.8982 O   0  0  0  0  0  0  0  0  0  0  0  0
    0.9280   -1.4605    8.4355 C   0  0  0  0  0  0  0  0  0  0  0  0
    1.6379    1.5465    6.5637 C   0  0  0  0  0  0  0  0  0  0  0  0
    2.5802    2.0822    5.7027 C   0  0  0  0  0  0  0  0  0  0  0  0
    1.2929   -0.4657    2.4690 C   0  0  0  0  0  0  0  0  0  0  0  0
    0.1331    0.1896    2.8924 C   0  0  0  0  0  0  0  0  0  0  0  0
   -0.5300   -0.2492    4.0351 C   0  0  0  0  0  0  0  0  0  0  0  0
   -0.0510   -1.3515    4.7414 C   0  0  0  0  0  0  0  0  0  0  0  0
    1.0979   -2.0137    4.3103 C   0  0  0  0  0  0  0  0  0  0  0  0
    1.7781   -1.5667    3.1809 C   0  0  0  0  0  0  0  0  0  0  0  0
    0.3500   -0.6994   -2.4574 H   0  0  0  0  0  0  0  0  0  0  0  0
    1.6704   -0.6579   -4.5705 H   0  0  0  0  0  0  0  0  0  0  0  0
    4.0342    0.1077   -4.5482 H   0  0  0  0  0  0  0  0  0  0  0  0
    5.0921    0.8349   -2.4120 H   0  0  0  0  0  0  0  0  0  0  0  0
    3.2760    2.4548    2.9649 H   0  0  0  0  0  0  0  0  0  0  0  0
    4.9803    2.4635    2.4368 H   0  0  0  0  0  0  0  0  0  0  0  0
    6.7124    2.2772    4.1410 H   0  0  0  0  0  0  0  0  0  0  0  0
    6.2876    0.5505    4.3326 H   0  0  0  0  0  0  0  0  0  0  0  0
    6.3028    1.6432    5.7519 H   0  0  0  0  0  0  0  0  0  0  0  0
    4.7589   -0.5484    5.5547 H   0  0  0  0  0  0  0  0  0  0  0  0
    3.1180   -1.4972    7.1291 H   0  0  0  0  0  0  0  0  0  0  0  0
    0.0028   -1.5388    9.0217 H   0  0  0  0  0  0  0  0  0  0  0  0
    1.8018   -1.5517    9.0883 H   0  0  0  0  0  0  0  0  0  0  0  0
    0.9440   -2.2124    7.6402 H   0  0  0  0  0  0  0  0  0  0  0  0
    0.7515    2.1055    6.8518 H   0  0  0  0  0  0  0  0  0  0  0  0
    2.4554    3.0898    5.3052 H   0  0  0  0  0  0  0  0  0  0  0  0
   -0.2535    1.0373    2.3266 H   0  0  0  0  0  0  0  0  0  0  0  0
   -1.4239    0.2686    4.3774 H   0  0  0  0  0  0  0  0  0  0  0  0
   -0.5721   -1.6888    5.6360 H   0  0  0  0  0  0  0  0  0  0  0  0
    1.4708   -2.8756    4.8599 H   0  0  0  0  0  0  0  0  0  0  0  0
    2.6918   -2.0687    2.8565 H   0  0  0  0  0  0  0  0  0  0  0  0
  1  2  2  0  0  0  0
  2  3  1  0  0  0  0
  3 26  1  0  0  0  0
  4  3  2  0  0  0  0
  4 13  1  0  0  0  0
  5  6  2  0  0  0  0
  5  4  1  0  0  0  0
  7  5  1  0  0  0  0
  8  7  1  0  0  0  0
  8  2  1  0  0  0  0
  9  8  2  0  0  0  0
 10 11  2  0  0  0  0
 10  9  1  0  0  0  0
 11 12  1  0  0  0  0
 12 35  1  0  0  0  0
 12  7  2  0  0  0  0
 13 14  2  0  0  0  0
 13 15  1  0  0  0  0
 15 16  1  0  0  0  0
 16 17  1  0  0  0  0
 16 18  1  0  0  0  0
 17 40  1  0  0  0  0
 18 25  2  0  0  0  0
 18 19  1  0  0  0  0
 19 20  2  0  0  0  0
 20 21  1  0  0  0  0
 20 42  1  0  0  0  0
 21 22  1  0  0  0  0
 22 23  1  0  0  0  0
 23 43  1  0  0  0  0
 23 44  1  0  0  0  0
 24 46  1  0  0  0  0
 24 21  2  0  0  0  0
 25 24  1  0  0  0  0
 26 27  2  0  0  0  0
 26 31  1  0  0  0  0
 27 28  1  0  0  0  0
 28 49  1  0  0  0  0
 28 29  2  0  0  0  0
 29 50  1  0  0  0  0
 30 29  1  0  0  0  0
 30 51  1  0  0  0  0
 31 30  2  0  0  0  0
 32  9  1  0  0  0  0
 33 10  1  0  0  0  0
 34 11  1  0  0  0  0
 36 15  1  0  0  0  0
 37 15  1  0  0  0  0
 38 17  1  0  0  0  0
 39 17  1  0  0  0  0
 41 19  1  0  0  0  0
 45 23  1  0  0  0  0
 47 25  1  0  0  0  0
 48 27  1  0  0  0  0
 52 31  1  0  0  0  0
M  END
$$$$
