40
rmsd109.gzmat
C          0.00000        0.00000        0.00000
C          1.39520        0.00000        0.00000
C          2.07700        0.00000        1.22240
C          1.35720       -0.00260        2.42940
C         -0.03230        0.00690        2.40470
C         -0.72110        0.00920        1.19120
N          3.50010       -0.01930        1.24960
C          4.18640       -0.70200        0.13800
C          5.64190       -0.89100        0.41650
C          6.42870       -1.79650       -0.30590
C          7.79270       -1.88530       -0.02440
C          8.37740       -1.09130        0.96260
C          7.61330       -0.18950        1.69930
C          6.24540       -0.11690        1.39930
O          5.54850        0.80390        2.13520
C          4.17150        0.78520        2.15490
O          3.64350        1.47540        2.99210
C          8.19770        0.68480        2.74760
C          5.82160       -2.65800       -1.35880
C         -0.67890       -0.01440       -1.31080
O         -0.20110       -0.33600       -2.37020
O         -1.96660        0.40120       -1.19120
C         -2.72450        0.43220       -2.39730
H          1.92740        0.00970       -0.95290
H          1.88630       -0.00210        3.38580
H         -0.58860        0.01540        3.34250
H         -1.81180        0.02040        1.17720
H          4.06510       -0.10860       -0.80620
H          3.68360       -1.69120       -0.02190
H          8.41380       -2.58360       -0.58190
H          9.44540       -1.17860        1.16030
H          7.55760        0.72600        3.64570
H          8.28800        1.72350        2.38800
H          9.19420        0.35820        3.07000
H          6.56770       -3.26610       -1.88990
H          5.29740       -2.06360       -2.12250
H          5.09450       -3.36410       -0.92660
H         -3.67900        0.86480       -2.07450
H         -2.85340       -0.58490       -2.78250
H         -2.23230        1.06500       -3.14450
