40
rmsd106.gzmat
C          0.00000        0.00000        0.00000
C          1.39550        0.00000        0.00000
C          2.07870        0.00000        1.22150
C          1.35990        0.00980        2.42890
C         -0.02970        0.02090        2.40480
C         -0.71950        0.01170        1.19230
N          3.50110       -0.03270        1.24330
C          4.17860       -0.71610        0.12620
C          5.61850       -0.97390        0.43030
C          6.37570       -1.92110       -0.26910
C          7.72950       -2.06750        0.03800
C          8.33070       -1.29240        1.02990
C          7.59340       -0.35330        1.74710
C          6.23790       -0.21940        1.41870
O          5.56680        0.73740        2.13280
C          4.18910        0.74540        2.15940
O          3.67790        1.43610        3.00620
C          8.19380        0.49180        2.80990
C          5.75010       -2.76220       -1.32740
C         -0.67430       -0.00460       -1.31320
O         -0.15680       -0.16050       -2.39150
O         -2.01040        0.20020       -1.17520
C         -2.76060        0.23210       -2.38580
H          1.92670        0.01400       -0.95390
H          1.88830        0.01760        3.38570
H         -0.58560        0.03840        3.34260
H         -1.81050        0.01630        1.18120
H          4.10280       -0.09270       -0.80350
H          3.63770       -1.67770       -0.07100
H          8.32950       -2.79680       -0.50260
H          9.39010       -1.42530        1.24830
H          7.52240        0.58720        3.68060
H          8.37080        1.51730        2.44550
H          9.15080        0.09980        3.17630
H          6.47220       -3.42890       -1.81960
H          5.29630       -2.14900       -2.12040
H          4.96040       -3.40810       -0.91240
H         -3.78140        0.42460       -2.03590
H         -2.68730       -0.73130       -2.90120
H         -2.40090        1.03930       -3.03320
