40
rmsd180.gzmat
C          0.00000        0.00000        0.00000
C          1.39560        0.00000        0.00000
C          2.07870        0.00000        1.22170
C          1.35900        0.01170        2.42860
C         -0.03050        0.01980        2.40480
C         -0.72030        0.01000        1.19210
N          3.50090       -0.03500        1.24380
C          4.17470       -0.74630        0.14270
C          5.61790       -0.99470        0.43760
C          6.38080       -1.91010       -0.29820
C          7.73650       -2.05720       -0.00170
C          8.33690       -1.31050        1.01260
C          7.59640       -0.39960        1.76190
C          6.23710       -0.26730        1.44570
O          5.56720        0.66280        2.19440
C          4.19100        0.71480        2.18040
O          3.68070        1.42210        3.01470
C          8.19710        0.42660        2.83960
C          5.75840       -2.71180       -1.38860
C         -0.67390       -0.00730       -1.31360
O         -0.16620       -0.22420       -2.38590
O         -1.99640        0.27590       -1.18420
C         -2.74110        0.32450       -2.39780
H          1.92740        0.01320       -0.95340
H          1.88780        0.02310        3.38510
H         -0.58530        0.03540        3.34340
H         -1.81120        0.01280        1.18080
H          4.08880       -0.14610       -0.80140
H          3.63550       -1.71440       -0.02780
H          8.33920       -2.76200       -0.57100
H          9.39930       -1.43930        1.21860
H          7.55800        0.44610        3.73910
H          8.30560        1.47560        2.51610
H          9.18830        0.07260        3.14880
H          6.48360       -3.35540       -1.90620
H          5.30530       -2.06870       -2.15840
H          4.96910       -3.37490       -1.00120
H         -3.74980        0.58200       -2.05540
H         -2.72160       -0.65180       -2.89310
H         -2.33520        1.09660       -3.06040
