
     RDKit          3D

 40 42  0  0  0  0  0  0  0  0999 V2000
    0.0281    0.1017    0.0336 C   0  0  0  0  0  0  0  0  0  0  0  0
    1.4297    0.1220    0.0441 C   0  0  0  0  0  0  0  0  0  0  0  0
    2.1339    0.1770    1.2511 C   0  0  0  0  0  0  0  0  0  0  0  0
    1.4104    0.2131    2.4581 C   0  0  0  0  0  0  0  0  0  0  0  0
    0.0171    0.2015    2.4396 C   0  0  0  0  0  0  0  0  0  0  0  0
   -0.6871    0.1452    1.2351 C   0  0  0  0  0  0  0  0  0  0  0  0
    3.5573    0.1477    1.2416 N   0  0  0  0  0  0  0  0  0  0  0  0
    4.2109   -0.4634    0.0791 C   0  0  0  0  0  0  0  0  0  0  0  0
    5.6101   -0.8969    0.3975 C   0  0  0  0  0  0  0  0  0  0  0  0
    6.2817   -1.9005   -0.3261 C   0  0  0  0  0  0  0  0  0  0  0  0
    7.5999   -2.1989    0.0364 C   0  0  0  0  0  0  0  0  0  0  0  0
    8.2353   -1.5232    1.0826 C   0  0  0  0  0  0  0  0  0  0  0  0
    7.5840   -0.5227    1.8099 C   0  0  0  0  0  0  0  0  0  0  0  0
    6.2644   -0.2353    1.4302 C   0  0  0  0  0  0  0  0  0  0  0  0
    5.6241    0.7689    2.1229 O   0  0  0  0  0  0  0  0  0  0  0  0
    4.2645    0.9085    2.1568 C   0  0  0  0  0  0  0  0  0  0  0  0
    3.7819    1.6558    2.9658 O   0  0  0  0  0  0  0  0  0  0  0  0
    8.2325    0.2273    2.9396 C   0  0  0  0  0  0  0  0  0  0  0  0
    5.5992   -2.6186   -1.4615 C   0  0  0  0  0  0  0  0  0  0  0  0
   -0.6399    0.0368   -1.2977 C   0  0  0  0  0  0  0  0  0  0  0  0
   -0.0543   -0.0235   -2.3555 O   0  0  0  0  0  0  0  0  0  0  0  0
   -1.9821    0.0514   -1.2034 O   0  0  0  0  0  0  0  0  0  0  0  0
   -2.6971   -0.0067   -2.4349 C   0  0  0  0  0  0  0  0  0  0  0  0
    1.9341    0.1037   -0.9204 H   0  0  0  0  0  0  0  0  0  0  0  0
    1.9419    0.2614    3.4055 H   0  0  0  0  0  0  0  0  0  0  0  0
   -0.5263    0.2304    3.3867 H   0  0  0  0  0  0  0  0  0  0  0  0
   -1.7765    0.1319    1.2181 H   0  0  0  0  0  0  0  0  0  0  0  0
    4.2093    0.2351   -0.7818 H   0  0  0  0  0  0  0  0  0  0  0  0
    3.6031   -1.3270   -0.2231 H   0  0  0  0  0  0  0  0  0  0  0  0
    8.1410   -2.9736   -0.5120 H   0  0  0  0  0  0  0  0  0  0  0  0
    9.2654   -1.7790    1.3435 H   0  0  0  0  0  0  0  0  0  0  0  0
    7.6526    0.1223    3.8704 H   0  0  0  0  0  0  0  0  0  0  0  0
    8.2796    1.3071    2.7251 H   0  0  0  0  0  0  0  0  0  0  0  0
    9.2534   -0.1376    3.1190 H   0  0  0  0  0  0  0  0  0  0  0  0
    6.2734   -3.3500   -1.9284 H   0  0  0  0  0  0  0  0  0  0  0  0
    5.2674   -1.9193   -2.2472 H   0  0  0  0  0  0  0  0  0  0  0  0
    4.7022   -3.1623   -1.1192 H   0  0  0  0  0  0  0  0  0  0  0  0
   -3.7618    0.0155   -2.1725 H   0  0  0  0  0  0  0  0  0  0  0  0
   -2.4569   -0.9302   -2.9833 H   0  0  0  0  0  0  0  0  0  0  0  0
   -2.4425    0.8513   -3.0752 H   0  0  0  0  0  0  0  0  0  0  0  0
  1  2  2  0
  1  6  1  0
  1 20  1  0
  2  3  1  0
  2 24  1  0
  3  4  2  0
  3  7  1  0
  4  5  1  0
  4 25  1  0
  5  6  2  0
  5 26  1  0
  6 27  1  0
  7  8  1  0
  7 16  1  0
  8  9  1  0
  8 28  1  0
  8 29  1  0
  9 10  2  0
  9 14  1  0
 10 11  1  0
 10 19  1  0
 11 12  2  0
 11 30  1  0
 12 13  1  0
 12 31  1  0
 13 14  2  0
 13 18  1  0
 14 15  1  0
 15 16  1  0
 16 17  2  0
 18 32  1  0
 18 33  1  0
 18 34  1  0
 19 35  1  0
 19 36  1  0
 19 37  1  0
 20 21  2  0
 20 22  1  0
 22 23  1  0
 23 38  1  0
 23 39  1  0
 23 40  1  0
M  END

