rmsd155.gzmat
 OpenBabel08211713383D

 40 42  0  0  0  0  0  0  0  0999 V2000
    0.0000    0.0000    0.0000 C   0  0  0  0  0  0  0  0  0  0  0  0
    1.3956    0.0000    0.0000 C   0  0  0  0  0  0  0  0  0  0  0  0
    2.0793    0.0000    1.2213 C   0  0  0  0  0  0  0  0  0  0  0  0
    1.3598    0.0098    2.4283 C   0  0  0  0  0  0  0  0  0  0  0  0
   -0.0297    0.0291    2.4043 C   0  0  0  0  0  0  0  0  0  0  0  0
   -0.7198    0.0193    1.1922 C   0  0  0  0  0  0  0  0  0  0  0  0
    3.5021   -0.0298    1.2459 N   0  0  0  0  0  0  0  0  0  0  0  0
    4.1848   -0.6913    0.1188 C   0  0  0  0  0  0  0  0  0  0  0  0
    5.6348   -0.9117    0.4032 C   0  0  0  0  0  0  0  0  0  0  0  0
    6.4112   -1.8232   -0.3225 C   0  0  0  0  0  0  0  0  0  0  0  0
    7.7735   -1.9313   -0.0382 C   0  0  0  0  0  0  0  0  0  0  0  0
    8.3660   -1.1533    0.9566 C   0  0  0  0  0  0  0  0  0  0  0  0
    7.6106   -0.2503    1.7010 C   0  0  0  0  0  0  0  0  0  0  0  0
    6.2460   -0.1554    1.3954 C   0  0  0  0  0  0  0  0  0  0  0  0
    5.5588    0.7689    2.1359 O   0  0  0  0  0  0  0  0  0  0  0  0
    4.1818    0.7596    2.1599 C   0  0  0  0  0  0  0  0  0  0  0  0
    3.6616    1.4442    3.0067 O   0  0  0  0  0  0  0  0  0  0  0  0
    8.2013    0.6007    2.7646 C   0  0  0  0  0  0  0  0  0  0  0  0
    5.7978   -2.6674   -1.3855 C   0  0  0  0  0  0  0  0  0  0  0  0
   -0.6745   -0.0197   -1.3128 C   0  0  0  0  0  0  0  0  0  0  0  0
   -0.1559   -0.1892   -2.3885 O   0  0  0  0  0  0  0  0  0  0  0  0
   -2.0112    0.1828   -1.1783 O   0  0  0  0  0  0  0  0  0  0  0  0
   -2.7624    0.1895   -2.3886 C   0  0  0  0  0  0  0  0  0  0  0  0
    1.9262    0.0128   -0.9544 H   0  0  0  0  0  0  0  0  0  0  0  0
    1.8874    0.0115    3.3859 H   0  0  0  0  0  0  0  0  0  0  0  0
   -0.5849    0.0542    3.3422 H   0  0  0  0  0  0  0  0  0  0  0  0
   -1.8107    0.0297    1.1803 H   0  0  0  0  0  0  0  0  0  0  0  0
    4.0815   -0.0679   -0.8085 H   0  0  0  0  0  0  0  0  0  0  0  0
    3.6667   -1.6662   -0.0748 H   0  0  0  0  0  0  0  0  0  0  0  0
    8.3879   -2.6316   -0.6007 H   0  0  0  0  0  0  0  0  0  0  0  0
    9.4332   -1.2531    1.1535 H   0  0  0  0  0  0  0  0  0  0  0  0
    7.5455    0.6575    3.6505 H   0  0  0  0  0  0  0  0  0  0  0  0
    8.3327    1.6373    2.4119 H   0  0  0  0  0  0  0  0  0  0  0  0
    9.1801    0.2402    3.1046 H   0  0  0  0  0  0  0  0  0  0  0  0
    6.5360   -3.2961   -1.9035 H   0  0  0  0  0  0  0  0  0  0  0  0
    5.3055   -2.0581   -2.1587 H   0  0  0  0  0  0  0  0  0  0  0  0
    5.0422   -3.3514   -0.9676 H   0  0  0  0  0  0  0  0  0  0  0  0
   -3.7849    0.3755   -2.0403 H   0  0  0  0  0  0  0  0  0  0  0  0
   -2.6795   -0.7803   -2.8909 H   0  0  0  0  0  0  0  0  0  0  0  0
   -2.4115    0.9913   -3.0476 H   0  0  0  0  0  0  0  0  0  0  0  0
  1  6  1  0  0  0  0
  2  1  2  0  0  0  0
  2  3  1  0  0  0  0
  3  7  1  0  0  0  0
  3  4  2  0  0  0  0
  4 25  1  0  0  0  0
  5  4  1  0  0  0  0
  5 26  1  0  0  0  0
  6  5  2  0  0  0  0
  7 16  1  0  0  0  0
  8  9  1  0  0  0  0
  8  7  1  0  0  0  0
  9 14  2  0  0  0  0
 10 11  2  0  0  0  0
 10  9  1  0  0  0  0
 11 12  1  0  0  0  0
 12 31  1  0  0  0  0
 12 13  2  0  0  0  0
 13 18  1  0  0  0  0
 14 13  1  0  0  0  0
 14 15  1  0  0  0  0
 15 16  1  0  0  0  0
 16 17  2  0  0  0  0
 18 34  1  0  0  0  0
 18 32  1  0  0  0  0
 19 37  1  0  0  0  0
 19 10  1  0  0  0  0
 20 22  1  0  0  0  0
 20  1  1  0  0  0  0
 21 20  2  0  0  0  0
 23 38  1  0  0  0  0
 23 22  1  0  0  0  0
 24  2  1  0  0  0  0
 27  6  1  0  0  0  0
 28  8  1  0  0  0  0
 29  8  1  0  0  0  0
 30 11  1  0  0  0  0
 33 18  1  0  0  0  0
 35 19  1  0  0  0  0
 36 19  1  0  0  0  0
 39 23  1  0  0  0  0
 40 23  1  0  0  0  0
M  END
$$$$
