rmsd109.gzmat
 OpenBabel08211713383D

 40 42  0  0  0  0  0  0  0  0999 V2000
    0.0000    0.0000    0.0000 C   0  0  0  0  0  0  0  0  0  0  0  0
    1.3952    0.0000    0.0000 C   0  0  0  0  0  0  0  0  0  0  0  0
    2.0770    0.0000    1.2224 C   0  0  0  0  0  0  0  0  0  0  0  0
    1.3572   -0.0026    2.4294 C   0  0  0  0  0  0  0  0  0  0  0  0
   -0.0323    0.0069    2.4047 C   0  0  0  0  0  0  0  0  0  0  0  0
   -0.7211    0.0092    1.1912 C   0  0  0  0  0  0  0  0  0  0  0  0
    3.5001   -0.0193    1.2496 N   0  0  0  0  0  0  0  0  0  0  0  0
    4.1864   -0.7020    0.1380 C   0  0  0  0  0  0  0  0  0  0  0  0
    5.6419   -0.8910    0.4165 C   0  0  0  0  0  0  0  0  0  0  0  0
    6.4287   -1.7965   -0.3059 C   0  0  0  0  0  0  0  0  0  0  0  0
    7.7927   -1.8853   -0.0244 C   0  0  0  0  0  0  0  0  0  0  0  0
    8.3774   -1.0913    0.9626 C   0  0  0  0  0  0  0  0  0  0  0  0
    7.6133   -0.1895    1.6993 C   0  0  0  0  0  0  0  0  0  0  0  0
    6.2454   -0.1169    1.3993 C   0  0  0  0  0  0  0  0  0  0  0  0
    5.5485    0.8039    2.1352 O   0  0  0  0  0  0  0  0  0  0  0  0
    4.1715    0.7852    2.1549 C   0  0  0  0  0  0  0  0  0  0  0  0
    3.6435    1.4754    2.9921 O   0  0  0  0  0  0  0  0  0  0  0  0
    8.1977    0.6848    2.7476 C   0  0  0  0  0  0  0  0  0  0  0  0
    5.8216   -2.6580   -1.3588 C   0  0  0  0  0  0  0  0  0  0  0  0
   -0.6789   -0.0144   -1.3108 C   0  0  0  0  0  0  0  0  0  0  0  0
   -0.2011   -0.3360   -2.3702 O   0  0  0  0  0  0  0  0  0  0  0  0
   -1.9666    0.4012   -1.1912 O   0  0  0  0  0  0  0  0  0  0  0  0
   -2.7245    0.4322   -2.3973 C   0  0  0  0  0  0  0  0  0  0  0  0
    1.9274    0.0097   -0.9529 H   0  0  0  0  0  0  0  0  0  0  0  0
    1.8863   -0.0021    3.3858 H   0  0  0  0  0  0  0  0  0  0  0  0
   -0.5886    0.0154    3.3425 H   0  0  0  0  0  0  0  0  0  0  0  0
   -1.8118    0.0204    1.1772 H   0  0  0  0  0  0  0  0  0  0  0  0
    4.0651   -0.1086   -0.8062 H   0  0  0  0  0  0  0  0  0  0  0  0
    3.6836   -1.6912   -0.0219 H   0  0  0  0  0  0  0  0  0  0  0  0
    8.4138   -2.5836   -0.5819 H   0  0  0  0  0  0  0  0  0  0  0  0
    9.4454   -1.1786    1.1603 H   0  0  0  0  0  0  0  0  0  0  0  0
    7.5576    0.7260    3.6457 H   0  0  0  0  0  0  0  0  0  0  0  0
    8.2880    1.7235    2.3880 H   0  0  0  0  0  0  0  0  0  0  0  0
    9.1942    0.3582    3.0700 H   0  0  0  0  0  0  0  0  0  0  0  0
    6.5677   -3.2661   -1.8899 H   0  0  0  0  0  0  0  0  0  0  0  0
    5.2974   -2.0636   -2.1225 H   0  0  0  0  0  0  0  0  0  0  0  0
    5.0945   -3.3641   -0.9266 H   0  0  0  0  0  0  0  0  0  0  0  0
   -3.6790    0.8648   -2.0745 H   0  0  0  0  0  0  0  0  0  0  0  0
   -2.8534   -0.5849   -2.7825 H   0  0  0  0  0  0  0  0  0  0  0  0
   -2.2323    1.0650   -3.1445 H   0  0  0  0  0  0  0  0  0  0  0  0
  1  6  1  0  0  0  0
  2  1  2  0  0  0  0
  2  3  1  0  0  0  0
  3  7  1  0  0  0  0
  3  4  2  0  0  0  0
  4 25  1  0  0  0  0
  5  4  1  0  0  0  0
  5 26  1  0  0  0  0
  6  5  2  0  0  0  0
  7 16  1  0  0  0  0
  8  9  1  0  0  0  0
  8  7  1  0  0  0  0
  9 14  2  0  0  0  0
 10 11  2  0  0  0  0
 10  9  1  0  0  0  0
 11 12  1  0  0  0  0
 12 31  1  0  0  0  0
 12 13  2  0  0  0  0
 13 18  1  0  0  0  0
 14 13  1  0  0  0  0
 14 15  1  0  0  0  0
 15 16  1  0  0  0  0
 16 17  2  0  0  0  0
 18 34  1  0  0  0  0
 18 32  1  0  0  0  0
 19 37  1  0  0  0  0
 19 10  1  0  0  0  0
 20 22  1  0  0  0  0
 20  1  1  0  0  0  0
 21 20  2  0  0  0  0
 23 38  1  0  0  0  0
 23 22  1  0  0  0  0
 24  2  1  0  0  0  0
 27  6  1  0  0  0  0
 28  8  1  0  0  0  0
 29  8  1  0  0  0  0
 30 11  1  0  0  0  0
 33 18  1  0  0  0  0
 35 19  1  0  0  0  0
 36 19  1  0  0  0  0
 39 23  1  0  0  0  0
 40 23  1  0  0  0  0
M  END
$$$$
