rmsd103.gzmat
 OpenBabel08211713383D

 40 42  0  0  0  0  0  0  0  0999 V2000
    0.0000    0.0000    0.0000 C   0  0  0  0  0  0  0  0  0  0  0  0
    1.3954    0.0000    0.0000 C   0  0  0  0  0  0  0  0  0  0  0  0
    2.0801    0.0000    1.2217 C   0  0  0  0  0  0  0  0  0  0  0  0
    1.3603    0.0287    2.4285 C   0  0  0  0  0  0  0  0  0  0  0  0
   -0.0291    0.0515    2.4042 C   0  0  0  0  0  0  0  0  0  0  0  0
   -0.7196    0.0302    1.1920 C   0  0  0  0  0  0  0  0  0  0  0  0
    3.4999   -0.0604    1.2361 N   0  0  0  0  0  0  0  0  0  0  0  0
    4.1650   -0.7295    0.1024 C   0  0  0  0  0  0  0  0  0  0  0  0
    5.5511   -1.1569    0.4616 C   0  0  0  0  0  0  0  0  0  0  0  0
    6.2344   -2.1664   -0.2258 C   0  0  0  0  0  0  0  0  0  0  0  0
    7.5419   -2.4769    0.1521 C   0  0  0  0  0  0  0  0  0  0  0  0
    8.1704   -1.7994    1.1973 C   0  0  0  0  0  0  0  0  0  0  0  0
    7.5074   -0.7944    1.8981 C   0  0  0  0  0  0  0  0  0  0  0  0
    6.1959   -0.5010    1.5031 C   0  0  0  0  0  0  0  0  0  0  0  0
    5.5929    0.5097    2.2052 O   0  0  0  0  0  0  0  0  0  0  0  0
    4.2187    0.6247    2.2017 C   0  0  0  0  0  0  0  0  0  0  0  0
    3.7405    1.3251    3.0595 O   0  0  0  0  0  0  0  0  0  0  0  0
    8.1358   -0.0444    3.0144 C   0  0  0  0  0  0  0  0  0  0  0  0
    5.5812   -2.9000   -1.3457 C   0  0  0  0  0  0  0  0  0  0  0  0
   -0.6745   -0.0374   -1.3125 C   0  0  0  0  0  0  0  0  0  0  0  0
   -0.1477   -0.1131   -2.3949 O   0  0  0  0  0  0  0  0  0  0  0  0
   -2.0247    0.0143   -1.1693 O   0  0  0  0  0  0  0  0  0  0  0  0
   -2.7779   -0.0165   -2.3777 C   0  0  0  0  0  0  0  0  0  0  0  0
    1.9256    0.0120   -0.9545 H   0  0  0  0  0  0  0  0  0  0  0  0
    1.8860    0.0400    3.3869 H   0  0  0  0  0  0  0  0  0  0  0  0
   -0.5841    0.0837    3.3423 H   0  0  0  0  0  0  0  0  0  0  0  0
   -1.8103    0.0381    1.1806 H   0  0  0  0  0  0  0  0  0  0  0  0
    4.2031   -0.0319   -0.7753 H   0  0  0  0  0  0  0  0  0  0  0  0
    3.5461   -1.6135   -0.1995 H   0  0  0  0  0  0  0  0  0  0  0  0
    8.0843   -3.2589   -0.3759 H   0  0  0  0  0  0  0  0  0  0  0  0
    9.1922   -2.0624    1.4705 H   0  0  0  0  0  0  0  0  0  0  0  0
    7.5013   -0.0633    3.9169 H   0  0  0  0  0  0  0  0  0  0  0  0
    8.2649    1.0197    2.7538 H   0  0  0  0  0  0  0  0  0  0  0  0
    9.1207   -0.4372    3.2952 H   0  0  0  0  0  0  0  0  0  0  0  0
    6.2571   -3.6176   -1.8319 H   0  0  0  0  0  0  0  0  0  0  0  0
    5.2305   -2.2151   -2.1325 H   0  0  0  0  0  0  0  0  0  0  0  0
    4.7115   -3.4774   -0.9941 H   0  0  0  0  0  0  0  0  0  0  0  0
   -3.8138    0.0034   -2.0199 H   0  0  0  0  0  0  0  0  0  0  0  0
   -2.5647   -0.9345   -2.9359 H   0  0  0  0  0  0  0  0  0  0  0  0
   -2.5462    0.8632   -2.9879 H   0  0  0  0  0  0  0  0  0  0  0  0
  1  6  1  0  0  0  0
  2  1  2  0  0  0  0
  2  3  1  0  0  0  0
  3  7  1  0  0  0  0
  3  4  2  0  0  0  0
  4 25  1  0  0  0  0
  5  4  1  0  0  0  0
  5 26  1  0  0  0  0
  6  5  2  0  0  0  0
  7 16  1  0  0  0  0
  8  9  1  0  0  0  0
  8  7  1  0  0  0  0
  9 14  2  0  0  0  0
 10 11  2  0  0  0  0
 10  9  1  0  0  0  0
 11 12  1  0  0  0  0
 12 31  1  0  0  0  0
 12 13  2  0  0  0  0
 13 18  1  0  0  0  0
 14 13  1  0  0  0  0
 14 15  1  0  0  0  0
 16 15  1  0  0  0  0
 16 17  2  0  0  0  0
 18 34  1  0  0  0  0
 18 32  1  0  0  0  0
 19 37  1  0  0  0  0
 19 10  1  0  0  0  0
 20 22  1  0  0  0  0
 20  1  1  0  0  0  0
 21 20  2  0  0  0  0
 23 38  1  0  0  0  0
 23 22  1  0  0  0  0
 24  2  1  0  0  0  0
 27  6  1  0  0  0  0
 28  8  1  0  0  0  0
 29  8  1  0  0  0  0
 30 11  1  0  0  0  0
 33 18  1  0  0  0  0
 35 19  1  0  0  0  0
 36 19  1  0  0  0  0
 39 23  1  0  0  0  0
 40 23  1  0  0  0  0
M  END
$$$$
