40
rmsd110.gzmat
C          0.00000        0.00000        0.00000
C          1.39500        0.00000        0.00000
C          2.07670        0.00000        1.22270
C          1.35720        0.00950        2.42960
C         -0.03250        0.01860        2.40440
C         -0.72120        0.00980        1.19130
N          3.49890       -0.03640        1.24380
C          4.17020       -0.74640        0.14000
C          5.61050       -1.00180        0.44280
C          6.36330       -1.95630       -0.25170
C          7.71550       -2.11000        0.05870
C          8.32200       -1.32640        1.04070
C          7.59210       -0.37160        1.74500
C          6.23480       -0.23950        1.42220
O          5.56940        0.72740        2.12840
C          4.19160        0.74970        2.14940
O          3.68340        1.46010        2.98170
C          8.20440        0.49490        2.78360
C          5.73530       -2.79450       -1.31100
C         -0.67580       -0.01350       -1.31270
O         -0.20360       -0.36190       -2.36590
O         -1.95190        0.43930       -1.20370
C         -2.69590        0.49290       -2.41750
H          1.92820        0.00980       -0.95250
H          1.88650        0.01670        3.38630
H         -0.58900        0.03210        3.34210
H         -1.81190        0.01280        1.17720
H          4.09120       -0.14380       -0.80280
H          3.62580       -1.71100       -0.03330
H          8.31030       -2.85030       -0.47290
H          9.38060       -1.46390        1.26030
H          7.54750        0.60110        3.66370
H          8.36800        1.51520        2.39800
H          9.17100        0.11690        3.13920
H          6.45320       -3.47310       -1.79350
H          5.29780       -2.17800       -2.11140
H          4.93230       -3.42710       -0.90100
H         -3.64580        0.94000       -2.10250
H         -2.83820       -0.51720       -2.81550
H         -2.18280        1.12280       -3.15300
