40

C          0.02810        0.10170        0.03360
C          1.42970        0.12200        0.04410
C          2.13390        0.17700        1.25110
C          1.41040        0.21310        2.45810
C          0.01710        0.20150        2.43960
C         -0.68710        0.14520        1.23510
N          3.55730        0.14770        1.24160
C          4.21090       -0.46340        0.07910
C          5.61010       -0.89690        0.39750
C          6.28170       -1.90050       -0.32610
C          7.59990       -2.19890        0.03640
C          8.23530       -1.52320        1.08260
C          7.58400       -0.52270        1.80990
C          6.26440       -0.23530        1.43020
O          5.62410        0.76890        2.12290
C          4.26450        0.90850        2.15680
O          3.78190        1.65580        2.96580
C          8.23250        0.22730        2.93960
C          5.59920       -2.61860       -1.46150
C         -0.63990        0.03680       -1.29770
O         -0.05430       -0.02350       -2.35550
O         -1.98210        0.05140       -1.20340
C         -2.69710       -0.00670       -2.43490
H          1.93410        0.10370       -0.92040
H          1.94190        0.26140        3.40550
H         -0.52630        0.23040        3.38670
H         -1.77650        0.13190        1.21810
H          4.20930        0.23510       -0.78180
H          3.60310       -1.32700       -0.22310
H          8.14100       -2.97360       -0.51200
H          9.26540       -1.77900        1.34350
H          7.65260        0.12230        3.87040
H          8.27960        1.30710        2.72510
H          9.25340       -0.13760        3.11900
H          6.27340       -3.35000       -1.92840
H          5.26740       -1.91930       -2.24720
H          4.70220       -3.16230       -1.11920
H         -3.76180        0.01550       -2.17250
H         -2.45690       -0.93020       -2.98330
H         -2.44250        0.85130       -3.07520
