40
rmsd76.gzmat
C          0.00000        0.00000        0.00000
C          1.39570        0.00000        0.00000
C          2.07910        0.00000        1.22190
C          1.35950        0.01470        2.42910
C         -0.02960        0.03420        2.40480
C         -0.71940        0.02370        1.19230
N          3.49970       -0.04080        1.24200
C          4.18090       -0.73510        0.13410
C          5.57170       -1.13120        0.51180
C          6.28340       -2.12740       -0.16660
C          7.59220       -2.41260        0.22610
C          8.19360       -1.72660        1.28150
C          7.50190       -0.73640        1.97530
C          6.19260       -0.46190        1.55920
O          5.57060        0.54570        2.24820
C          4.19850        0.66620        2.20620
O          3.70220        1.39180        3.03250
C          8.10120        0.01830        3.10460
C          5.65870       -2.87390       -1.29420
C         -0.67510       -0.02700       -1.31270
O         -0.14890       -0.11150       -2.39470
O         -2.02460        0.04670       -1.17050
C         -2.77610        0.03310       -2.38050
H          1.92770        0.01330       -0.95330
H          1.88630        0.01820        3.38680
H         -0.58480        0.05580        3.34300
H         -1.81010        0.03690        1.18100
H          4.21400       -0.06530       -0.76500
H          3.57610       -1.63670       -0.14290
H          8.15670       -3.18180       -0.29720
H          9.21670       -1.96930        1.56760
H          7.41600        0.06170        3.96850
H          8.29980        1.06500        2.81920
H          9.04590       -0.41540        3.45520
H          6.35360       -3.58150       -1.76840
H          5.30990       -2.19600       -2.08810
H          4.79310       -3.46420       -0.95440
H         -3.81290        0.05550       -2.02480
H         -2.56730       -0.87880       -2.95030
H         -2.53750        0.91930       -2.97890
