27
rmsd39.gzmat
C          0.00000        0.00000        0.00000
O          1.20950        0.00000        0.00000
C         -0.85740        0.00000       -1.20560
C         -0.50640       -0.84360       -2.26050
C         -1.28350       -0.85720       -3.41690
C         -2.39670       -0.02420       -3.51850
C         -2.73420        0.82830       -2.46740
C         -1.96460        0.84330       -1.30700
N         -0.68920        0.10340        1.22830
N          0.02420        0.04060        2.43090
C          0.42670       -1.26280        2.81020
N         -0.30240       -2.39060        2.73110
N          0.41500       -3.37040        3.38710
H          0.01990       -4.29700        3.41980
C          1.60390       -2.90490        3.90720
S          2.76230       -3.69690        4.77620
N          1.62080       -1.54840        3.51550
N          2.57810       -0.57060        3.78280
H          0.37630       -1.48210       -2.17950
H         -1.01740       -1.51550       -4.24260
H         -3.00540       -0.03570       -4.42210
H         -3.59860        1.48410       -2.55610
H         -2.22130        1.51960       -0.49050
H         -1.64850       -0.22610        1.33640
H          0.83570        0.69770        2.39730
H          2.72810       -0.51140        4.79950
H          3.46800       -0.84900        3.34430
