rmsd41.gzmat
 OpenBabel08211713373D

 27 28  0  0  0  0  0  0  0  0999 V2000
    0.0000    0.0000    0.0000 C   0  0  0  0  0  0  0  0  0  0  0  0
    1.2083    0.0000    0.0000 O   0  0  0  0  0  0  0  0  0  0  0  0
   -0.8681    0.0000   -1.1979 C   0  0  0  0  0  0  0  0  0  0  0  0
   -0.6308   -0.9545   -2.1872 C   0  0  0  0  0  0  0  0  0  0  0  0
   -1.4336   -0.9731   -3.3258 C   0  0  0  0  0  0  0  0  0  0  0  0
   -2.4577   -0.0384   -3.4731 C   0  0  0  0  0  0  0  0  0  0  0  0
   -2.6811    0.9219   -2.4863 C   0  0  0  0  0  0  0  0  0  0  0  0
   -1.8840    0.9447   -1.3448 C   0  0  0  0  0  0  0  0  0  0  0  0
   -0.6950    0.0949    1.2273 N   0  0  0  0  0  0  0  0  0  0  0  0
    0.0079   -0.0226    2.4321 N   0  0  0  0  0  0  0  0  0  0  0  0
    0.4214   -1.3396    2.7443 C   0  0  0  0  0  0  0  0  0  0  0  0
   -0.2551   -2.4799    2.5133 N   0  0  0  0  0  0  0  0  0  0  0  0
    0.4364   -3.4852    3.1594 N   0  0  0  0  0  0  0  0  0  0  0  0
    0.0838   -4.4250    3.0712 H   0  0  0  0  0  0  0  0  0  0  0  0
    1.5577   -3.0258    3.8157 C   0  0  0  0  0  0  0  0  0  0  0  0
    2.6603   -3.8445    4.7313 S   0  0  0  0  0  0  0  0  0  0  0  0
    1.5610   -1.6427    3.5260 N   0  0  0  0  0  0  0  0  0  0  0  0
    2.4447   -0.6571    3.9636 N   0  0  0  0  0  0  0  0  0  0  0  0
    0.1803   -1.6763   -2.0699 H   0  0  0  0  0  0  0  0  0  0  0  0
   -1.2577   -1.7163   -4.1023 H   0  0  0  0  0  0  0  0  0  0  0  0
   -3.0843   -0.0552   -4.3642 H   0  0  0  0  0  0  0  0  0  0  0  0
   -3.4769    1.6545   -2.6090 H   0  0  0  0  0  0  0  0  0  0  0  0
   -2.0476    1.7021   -0.5773 H   0  0  0  0  0  0  0  0  0  0  0  0
   -1.6599   -0.2271    1.3182 H   0  0  0  0  0  0  0  0  0  0  0  0
    0.8078    0.6479    2.4436 H   0  0  0  0  0  0  0  0  0  0  0  0
    2.4581   -0.6453    4.9928 H   0  0  0  0  0  0  0  0  0  0  0  0
    3.3924   -0.8919    3.6348 H   0  0  0  0  0  0  0  0  0  0  0  0
  1  9  1  0  0  0  0
  2  1  2  0  0  0  0
  3  1  1  0  0  0  0
  4 19  1  0  0  0  0
  4  3  2  0  0  0  0
  5  4  1  0  0  0  0
  6  5  2  0  0  0  0
  6  7  1  0  0  0  0
  7  8  2  0  0  0  0
  8  3  1  0  0  0  0
  8 23  1  0  0  0  0
  9 24  1  0  0  0  0
  9 10  1  0  0  0  0
 10 25  1  0  0  0  0
 10 11  1  0  0  0  0
 11 17  1  0  0  0  0
 12 11  2  0  0  0  0
 12 13  1  0  0  0  0
 13 15  1  0  0  0  0
 14 13  1  0  0  0  0
 15 16  2  0  0  0  0
 17 15  1  0  0  0  0
 17 18  1  0  0  0  0
 18 26  1  0  0  0  0
 20  5  1  0  0  0  0
 21  6  1  0  0  0  0
 22  7  1  0  0  0  0
 27 18  1  0  0  0  0
M  END
$$$$
