27
rmsd29.gzmat
C          0.00000        0.00000        0.00000
O          1.21010        0.00000        0.00000
C         -0.84960        0.00000       -1.20970
C         -2.02160        0.75290       -1.28930
C         -2.78020        0.71930       -2.45670
C         -2.36600       -0.05990       -3.53700
C         -1.18730       -0.80040       -3.45790
C         -0.42250       -0.76890       -2.29420
N         -0.68460        0.07780        1.23350
N          0.04000       -0.05120        2.42610
C          0.46920       -1.37330        2.70120
N         -0.26450       -2.49560        2.59530
N          0.49910       -3.51660        3.12260
H          0.10050       -4.44270        3.13070
C          1.72220       -3.08330        3.59010
S          2.93840       -3.93170        4.31420
N          1.71140       -1.70270        3.29570
N          2.67950       -0.73780        3.56930
H         -2.33860        1.37630       -0.45270
H         -3.69520        1.30500       -2.52790
H         -2.96390       -0.08590       -4.44760
H         -0.86100       -1.40020       -4.30650
H          0.51010       -1.33530       -2.22740
H         -1.64430       -0.25340        1.33670
H          0.84260        0.61770        2.42490
H          2.92760       -0.77800        4.56720
H          3.52470       -0.95080        3.02040
