27
rmsd50.gzmat
C          0.00000        0.00000        0.00000
O          1.20900        0.00000        0.00000
C         -0.86310        0.00000       -1.20110
C         -1.87370        0.94850       -1.35900
C         -2.65570        0.92910       -2.51120
C         -2.42540       -0.03270       -3.49490
C         -1.40910       -0.97360       -3.33470
C         -0.61970       -0.95720       -2.18670
N         -0.69190        0.09050        1.22900
N          0.02080       -0.03360        2.42920
C          0.48890       -1.34440        2.69380
N         -0.18460       -2.49620        2.52240
N          0.59830       -3.49430        3.06600
H          0.25310       -4.43960        3.01360
C          1.77660       -3.01820        3.60180
S          2.99670       -3.82870        4.36250
N          1.71170       -1.63080        3.34720
N          2.62780       -0.63170        3.67270
H         -2.04480        1.70620       -0.59340
H         -3.44570        1.66630       -2.64550
H         -3.04100       -0.04600       -4.39370
H         -1.22850       -1.71890       -4.10820
H          0.18690       -1.68240       -2.06000
H         -1.65450       -0.23510        1.32550
H          0.80260        0.65930        2.44660
H          2.81350       -0.65800        4.68510
H          3.51250       -0.81710        3.17820
