rmsd89.gzmat
 OpenBabel08211713373D

 27 28  0  0  0  0  0  0  0  0999 V2000
    0.0000    0.0000    0.0000 C   0  0  0  0  0  0  0  0  0  0  0  0
    1.2096    0.0000    0.0000 O   0  0  0  0  0  0  0  0  0  0  0  0
   -0.8556    0.0000   -1.2058 C   0  0  0  0  0  0  0  0  0  0  0  0
   -0.5235   -0.8778   -2.2388 C   0  0  0  0  0  0  0  0  0  0  0  0
   -1.2959   -0.8959   -3.3979 C   0  0  0  0  0  0  0  0  0  0  0  0
   -2.3862   -0.0361   -3.5222 C   0  0  0  0  0  0  0  0  0  0  0  0
   -2.7070    0.8468   -2.4909 C   0  0  0  0  0  0  0  0  0  0  0  0
   -1.9404    0.8688   -1.3282 C   0  0  0  0  0  0  0  0  0  0  0  0
   -0.6882    0.0835    1.2307 N   0  0  0  0  0  0  0  0  0  0  0  0
    0.0302   -0.0384    2.4280 N   0  0  0  0  0  0  0  0  0  0  0  0
    0.5012   -1.3492    2.6888 C   0  0  0  0  0  0  0  0  0  0  0  0
   -0.1941   -2.4945    2.5718 N   0  0  0  0  0  0  0  0  0  0  0  0
    0.6049   -3.4947    3.0861 N   0  0  0  0  0  0  0  0  0  0  0  0
    0.2451   -4.4360    3.0697 H   0  0  0  0  0  0  0  0  0  0  0  0
    1.8159   -3.0259    3.5520 C   0  0  0  0  0  0  0  0  0  0  0  0
    3.0625   -3.8418    4.2622 S   0  0  0  0  0  0  0  0  0  0  0  0
    1.7549   -1.6426    3.2785 N   0  0  0  0  0  0  0  0  0  0  0  0
    2.6981   -0.6504    3.5419 N   0  0  0  0  0  0  0  0  0  0  0  0
    0.3402   -1.5391   -2.1377 H   0  0  0  0  0  0  0  0  0  0  0  0
   -1.0438   -1.5783   -4.2085 H   0  0  0  0  0  0  0  0  0  0  0  0
   -2.9884   -0.0508   -4.4302 H   0  0  0  0  0  0  0  0  0  0  0  0
   -3.5542    1.5220   -2.5965 H   0  0  0  0  0  0  0  0  0  0  0  0
   -2.1806    1.5697   -0.5279 H   0  0  0  0  0  0  0  0  0  0  0  0
   -1.6492   -0.2442    1.3313 H   0  0  0  0  0  0  0  0  0  0  0  0
    0.8124    0.6541    2.4389 H   0  0  0  0  0  0  0  0  0  0  0  0
    2.9649   -0.6899    4.5354 H   0  0  0  0  0  0  0  0  0  0  0  0
    3.5393   -0.8331    2.9755 H   0  0  0  0  0  0  0  0  0  0  0  0
  1  9  1  0  0  0  0
  2  1  2  0  0  0  0
  3  1  1  0  0  0  0
  4 19  1  0  0  0  0
  4  3  2  0  0  0  0
  5  4  1  0  0  0  0
  6  5  2  0  0  0  0
  6  7  1  0  0  0  0
  7  8  2  0  0  0  0
  8  3  1  0  0  0  0
  8 23  1  0  0  0  0
  9 24  1  0  0  0  0
  9 10  1  0  0  0  0
 10 25  1  0  0  0  0
 10 11  1  0  0  0  0
 11 17  1  0  0  0  0
 12 11  2  0  0  0  0
 12 13  1  0  0  0  0
 13 15  1  0  0  0  0
 14 13  1  0  0  0  0
 15 16  2  0  0  0  0
 17 18  1  0  0  0  0
 17 15  1  0  0  0  0
 18 26  1  0  0  0  0
 20  5  1  0  0  0  0
 21  6  1  0  0  0  0
 22  7  1  0  0  0  0
 27 18  1  0  0  0  0
M  END
$$$$
