27
rmsd31.gzmat
C          0.00000        0.00000        0.00000
O          1.20940        0.00000        0.00000
C         -0.85470        0.00000       -1.20630
C         -1.94180        0.86560       -1.32800
C         -2.70420        0.84760       -2.49320
C         -2.38040       -0.03140       -3.52650
C         -1.28950       -0.89080       -3.40190
C         -0.51840       -0.87310       -2.24200
N         -0.68830        0.08310        1.23230
N          0.03300       -0.05050        2.42730
C          0.54570       -1.35230        2.65040
N         -0.09970       -2.51780        2.46450
N          0.72550       -3.50760        2.95780
H          0.40860       -4.46100        2.88190
C          1.90490       -3.01310        3.47410
S          3.17060       -3.80840        4.17370
N          1.79150       -1.62140        3.26650
N          2.69140       -0.60690        3.59000
H         -2.18690        1.56090       -0.52430
H         -3.55100        1.52310       -2.59960
H         -2.98020       -0.04360       -4.43610
H         -1.03530       -1.57150       -4.21340
H          0.34880       -1.53010       -2.14300
H         -1.64450       -0.26060        1.33040
H          0.79190        0.66640        2.45970
H          2.92320       -0.66710        4.59120
H          3.55830       -0.74580        3.05060
