rmsd31.gzmat
 OpenBabel08211713373D

 27 28  0  0  0  0  0  0  0  0999 V2000
    0.0000    0.0000    0.0000 C   0  0  0  0  0  0  0  0  0  0  0  0
    1.2094    0.0000    0.0000 O   0  0  0  0  0  0  0  0  0  0  0  0
   -0.8547    0.0000   -1.2063 C   0  0  0  0  0  0  0  0  0  0  0  0
   -1.9418    0.8656   -1.3280 C   0  0  0  0  0  0  0  0  0  0  0  0
   -2.7042    0.8476   -2.4932 C   0  0  0  0  0  0  0  0  0  0  0  0
   -2.3804   -0.0314   -3.5265 C   0  0  0  0  0  0  0  0  0  0  0  0
   -1.2895   -0.8908   -3.4019 C   0  0  0  0  0  0  0  0  0  0  0  0
   -0.5184   -0.8731   -2.2420 C   0  0  0  0  0  0  0  0  0  0  0  0
   -0.6883    0.0831    1.2323 N   0  0  0  0  0  0  0  0  0  0  0  0
    0.0330   -0.0505    2.4273 N   0  0  0  0  0  0  0  0  0  0  0  0
    0.5457   -1.3523    2.6504 C   0  0  0  0  0  0  0  0  0  0  0  0
   -0.0997   -2.5178    2.4645 N   0  0  0  0  0  0  0  0  0  0  0  0
    0.7255   -3.5076    2.9578 N   0  0  0  0  0  0  0  0  0  0  0  0
    0.4086   -4.4610    2.8819 H   0  0  0  0  0  0  0  0  0  0  0  0
    1.9049   -3.0131    3.4741 C   0  0  0  0  0  0  0  0  0  0  0  0
    3.1706   -3.8084    4.1737 S   0  0  0  0  0  0  0  0  0  0  0  0
    1.7915   -1.6214    3.2665 N   0  0  0  0  0  0  0  0  0  0  0  0
    2.6914   -0.6069    3.5900 N   0  0  0  0  0  0  0  0  0  0  0  0
   -2.1869    1.5609   -0.5243 H   0  0  0  0  0  0  0  0  0  0  0  0
   -3.5510    1.5231   -2.5996 H   0  0  0  0  0  0  0  0  0  0  0  0
   -2.9802   -0.0436   -4.4361 H   0  0  0  0  0  0  0  0  0  0  0  0
   -1.0353   -1.5715   -4.2134 H   0  0  0  0  0  0  0  0  0  0  0  0
    0.3488   -1.5301   -2.1430 H   0  0  0  0  0  0  0  0  0  0  0  0
   -1.6445   -0.2606    1.3304 H   0  0  0  0  0  0  0  0  0  0  0  0
    0.7919    0.6664    2.4597 H   0  0  0  0  0  0  0  0  0  0  0  0
    2.9232   -0.6671    4.5912 H   0  0  0  0  0  0  0  0  0  0  0  0
    3.5583   -0.7458    3.0506 H   0  0  0  0  0  0  0  0  0  0  0  0
  1  9  1  0  0  0  0
  2  1  2  0  0  0  0
  3  1  1  0  0  0  0
  4  3  1  0  0  0  0
  4 19  1  0  0  0  0
  5  4  2  0  0  0  0
  6  7  2  0  0  0  0
  6  5  1  0  0  0  0
  7  8  1  0  0  0  0
  8 23  1  0  0  0  0
  8  3  2  0  0  0  0
  9 24  1  0  0  0  0
  9 10  1  0  0  0  0
 10 25  1  0  0  0  0
 10 11  1  0  0  0  0
 11 17  1  0  0  0  0
 12 11  2  0  0  0  0
 12 13  1  0  0  0  0
 13 15  1  0  0  0  0
 14 13  1  0  0  0  0
 15 16  2  0  0  0  0
 17 15  1  0  0  0  0
 17 18  1  0  0  0  0
 18 26  1  0  0  0  0
 20  5  1  0  0  0  0
 21  6  1  0  0  0  0
 22  7  1  0  0  0  0
 27 18  1  0  0  0  0
M  END
$$$$
