rmsd75.gzmat
 OpenBabel08211713373D

 27 28  0  0  0  0  0  0  0  0999 V2000
    0.0000    0.0000    0.0000 C   0  0  0  0  0  0  0  0  0  0  0  0
    1.2098    0.0000    0.0000 O   0  0  0  0  0  0  0  0  0  0  0  0
   -0.8544    0.0000   -1.2067 C   0  0  0  0  0  0  0  0  0  0  0  0
   -1.9895    0.8051   -1.3047 C   0  0  0  0  0  0  0  0  0  0  0  0
   -2.7630    0.7607   -2.4619 C   0  0  0  0  0  0  0  0  0  0  0  0
   -2.3969   -0.0780   -3.5149 C   0  0  0  0  0  0  0  0  0  0  0  0
   -1.2516   -0.8679   -3.4198 C   0  0  0  0  0  0  0  0  0  0  0  0
   -0.4738   -0.8284   -2.2648 C   0  0  0  0  0  0  0  0  0  0  0  0
   -0.6866    0.0689    1.2332 N   0  0  0  0  0  0  0  0  0  0  0  0
    0.0296   -0.0978    2.4261 N   0  0  0  0  0  0  0  0  0  0  0  0
    0.4237   -1.4355    2.6772 C   0  0  0  0  0  0  0  0  0  0  0  0
   -0.3250   -2.5403    2.5070 N   0  0  0  0  0  0  0  0  0  0  0  0
    0.3969   -3.5908    3.0354 N   0  0  0  0  0  0  0  0  0  0  0  0
   -0.0062   -4.5125    2.9737 H   0  0  0  0  0  0  0  0  0  0  0  0
    1.6115   -3.1964    3.5560 C   0  0  0  0  0  0  0  0  0  0  0  0
    2.7851   -4.0896    4.2959 S   0  0  0  0  0  0  0  0  0  0  0  0
    1.6377   -1.8070    3.3030 N   0  0  0  0  0  0  0  0  0  0  0  0
    2.6086   -0.8693    3.6517 N   0  0  0  0  0  0  0  0  0  0  0  0
   -2.2655    1.4735   -0.4882 H   0  0  0  0  0  0  0  0  0  0  0  0
   -3.6533    1.3822   -2.5455 H   0  0  0  0  0  0  0  0  0  0  0  0
   -3.0062   -0.1127   -4.4176 H   0  0  0  0  0  0  0  0  0  0  0  0
   -0.9616   -1.5131   -4.2481 H   0  0  0  0  0  0  0  0  0  0  0  0
    0.4315   -1.4350   -2.1857 H   0  0  0  0  0  0  0  0  0  0  0  0
   -1.6529   -0.2465    1.3253 H   0  0  0  0  0  0  0  0  0  0  0  0
    0.8474    0.5520    2.4423 H   0  0  0  0  0  0  0  0  0  0  0  0
    2.8018   -0.9373    4.6606 H   0  0  0  0  0  0  0  0  0  0  0  0
    3.4774   -1.0884    3.1432 H   0  0  0  0  0  0  0  0  0  0  0  0
  1  9  1  0  0  0  0
  2  1  2  0  0  0  0
  3  1  1  0  0  0  0
  4  3  1  0  0  0  0
  4 19  1  0  0  0  0
  5  4  2  0  0  0  0
  6  7  2  0  0  0  0
  6  5  1  0  0  0  0
  7  8  1  0  0  0  0
  8 23  1  0  0  0  0
  8  3  2  0  0  0  0
  9 24  1  0  0  0  0
  9 10  1  0  0  0  0
 10 25  1  0  0  0  0
 10 11  1  0  0  0  0
 11 17  1  0  0  0  0
 12 11  2  0  0  0  0
 12 13  1  0  0  0  0
 13 15  1  0  0  0  0
 14 13  1  0  0  0  0
 15 16  2  0  0  0  0
 17 15  1  0  0  0  0
 17 18  1  0  0  0  0
 18 26  1  0  0  0  0
 20  5  1  0  0  0  0
 21  6  1  0  0  0  0
 22  7  1  0  0  0  0
 27 18  1  0  0  0  0
M  END
$$$$
