49
rmsd139.gzmat
Cl         0.00000        0.00000        0.00000
C          1.70890        0.00000        0.00000
C          2.37460        0.00000        1.21900
C          3.76730       -0.05070        1.21190
C          4.45030       -0.11870       -0.00210
S          6.21840       -0.25940       -0.05260
C          6.47100       -1.62760        1.17380
H          5.49800       -2.16230        1.34680
C          6.99470       -1.05130        2.48610
O          6.45580       -0.32550        3.26610
O          8.24130       -1.55180        2.72620
C          8.68970       -2.40810        1.66580
H          8.89870       -3.39440        2.15400
N          7.53350       -2.51080        0.73470
C          7.32310       -3.71620        0.05570
O          8.18610       -4.56460        0.12040
C          6.09600       -3.87500       -0.81030
C          4.82900       -3.98160       -0.02290
C          4.80030       -4.68020        1.18670
C          3.62240       -4.74180        1.92620
C          2.46550       -4.12310        1.45480
C          2.48540       -3.45310        0.23350
C          3.66430       -3.38170       -0.50530
C          9.97690       -1.78460        1.06080
C         10.51980       -2.74090       -0.00500
C          9.72410       -0.40540        0.45380
C         10.98160       -1.66260        2.21670
C          3.76470       -0.07640       -1.21620
C          2.37210       -0.01260       -1.22030
H          1.83070        0.03770        2.16370
H          4.30340       -0.03130        2.16820
H          6.22390       -4.80350       -1.42370
H          6.05380       -3.04880       -1.55520
H          5.69630       -5.18460        1.54910
H          3.60450       -5.27790        2.87450
H          1.54640       -4.16790        2.03600
H          1.57950       -2.97990       -0.14330
H          3.67200       -2.85340       -1.45700
H         10.64140       -3.76130        0.38140
H         11.49420       -2.40840       -0.37630
H          9.84520       -2.81170       -0.86690
H          9.21560        0.26170        1.16040
H          9.11910       -0.46980       -0.45770
H         10.66560        0.08190        0.17460
H         10.60680       -0.99220        3.00220
H         11.93560       -1.25350        1.86660
H         11.19290       -2.63130        2.68150
H          4.29830       -0.09820       -2.16870
H          1.82350        0.01810       -2.16140
