49
rmsd78.gzmat
Cl         0.00000        0.00000        0.00000
C          1.70920        0.00000        0.00000
C          2.37410        0.00000        1.21940
C          3.76700       -0.04300        1.21270
C          4.45060       -0.10330       -0.00140
S          6.22070       -0.22140       -0.04570
C          6.47710       -1.62270        1.14150
H          5.49790       -2.14200        1.32670
C          7.04430       -1.09030        2.45420
O          6.54050       -0.37150        3.26330
O          8.28340       -1.62730        2.65400
C          8.68980       -2.46310        1.56060
H          8.89050       -3.46650        2.01650
N          7.50960       -2.51710        0.65580
C          7.25260       -3.70190       -0.04320
O          8.09380       -4.57380       -0.01660
C          6.00420       -3.80680       -0.88650
C          4.74730       -3.92510       -0.08460
C          3.56690       -3.35980       -0.57250
C          2.38890       -3.45870        0.16430
C          2.38660       -4.11420        1.39390
C          3.56120       -4.69010        1.87560
C          4.73710       -4.60740        1.13470
C          9.97510       -1.84860        0.94190
C         10.44180       -2.74990       -0.20500
C          9.74930       -0.42430        0.43610
C         11.02930       -1.83930        2.06020
C          3.76550       -0.07040       -1.21600
C          2.37290       -0.01360       -1.22030
H          1.82870        0.03060        2.16370
H          4.30390       -0.02340        2.16860
H          6.10430       -4.71330       -1.53740
H          5.96020       -2.95190       -1.59810
H          3.56150       -2.83710       -1.52740
H          1.46960       -3.01920       -0.22140
H          1.46770       -4.18140        1.97320
H          3.55880       -5.21170        2.83250
H          5.64450       -5.08650        1.50290
H         10.52120       -3.80070        0.10420
H         11.42260       -2.43840       -0.57860
H          9.74350       -2.72470       -1.05040
H          9.29580        0.21240        1.20530
H          9.10540       -0.40730       -0.45040
H         10.69570        0.04700        0.14690
H         10.67900       -1.27540        2.93530
H         11.95820       -1.36740        1.72170
H         11.28180       -2.85170        2.39330
H          4.29980       -0.09370       -2.16840
H          1.82530        0.01190       -2.16230
