rmsd148.gzmat
 OpenBabel08211713413D

 49 51  0  0  1  0  0  0  0  0999 V2000
    0.0000    0.0000    0.0000 Cl  0  0  0  0  0  0  0  0  0  0  0  0
    1.7092    0.0000    0.0000 C   0  0  0  0  0  0  0  0  0  0  0  0
    2.3743    0.0000    1.2194 C   0  0  0  0  0  0  0  0  0  0  0  0
    3.7670   -0.0488    1.2131 C   0  0  0  0  0  0  0  0  0  0  0  0
    4.4505   -0.1174   -0.0007 C   0  0  0  0  0  0  0  0  0  0  0  0
    6.2186   -0.2674   -0.0421 S   0  0  0  0  0  0  0  0  0  0  0  0
    6.4413   -1.6703    1.1506 C   0  0  2  0  0  0  0  0  0  0  0  0
    5.4547   -2.1833    1.3140 H   0  0  0  0  0  0  0  0  0  0  0  0
    6.9811   -1.1403    2.4757 C   0  0  0  0  0  0  0  0  0  0  0  0
    6.4646   -0.4147    3.2711 O   0  0  0  0  0  0  0  0  0  0  0  0
    8.2096   -1.6882    2.7067 O   0  0  0  0  0  0  0  0  0  0  0  0
    8.6334   -2.5326    1.6266 C   0  0  1  0  0  0  0  0  0  0  0  0
    8.8064   -3.5377    2.0900 H   0  0  0  0  0  0  0  0  0  0  0  0
    7.4785   -2.5720    0.6890 N   0  0  0  0  0  0  0  0  0  0  0  0
    7.2331   -3.7515   -0.0230 C   0  0  0  0  0  0  0  0  0  0  0  0
    8.0692   -4.6275    0.0209 O   0  0  0  0  0  0  0  0  0  0  0  0
    6.0055   -3.8476   -0.8975 C   0  0  0  0  0  0  0  0  0  0  0  0
    4.7290   -3.9454   -0.1243 C   0  0  0  0  0  0  0  0  0  0  0  0
    3.5702   -3.3565   -0.6349 C   0  0  0  0  0  0  0  0  0  0  0  0
    2.3801   -3.4179    0.0864 C   0  0  0  0  0  0  0  0  0  0  0  0
    2.3430   -4.0650    1.3197 C   0  0  0  0  0  0  0  0  0  0  0  0
    3.4936   -4.6743    1.8184 C   0  0  0  0  0  0  0  0  0  0  0  0
    4.6822   -4.6249    1.0955 C   0  0  0  0  0  0  0  0  0  0  0  0
    9.9441   -1.9392    1.0424 C   0  0  0  0  0  0  0  0  0  0  0  0
   10.4412   -2.8651   -0.0713 C   0  0  0  0  0  0  0  0  0  0  0  0
    9.7478   -0.5234    0.5022 C   0  0  0  0  0  0  0  0  0  0  0  0
   10.9582   -1.9153    2.1968 C   0  0  0  0  0  0  0  0  0  0  0  0
    3.7657   -0.0766   -1.2153 C   0  0  0  0  0  0  0  0  0  0  0  0
    2.3733   -0.0130   -1.2199 C   0  0  0  0  0  0  0  0  0  0  0  0
    1.8298    0.0346    2.1639 H   0  0  0  0  0  0  0  0  0  0  0  0
    4.3038   -0.0274    2.1693 H   0  0  0  0  0  0  0  0  0  0  0  0
    6.1109   -4.7586   -1.5408 H   0  0  0  0  0  0  0  0  0  0  0  0
    5.9900   -2.9953   -1.6139 H   0  0  0  0  0  0  0  0  0  0  0  0
    3.5917   -2.8423   -1.5940 H   0  0  0  0  0  0  0  0  0  0  0  0
    1.4787   -2.9548   -0.3136 H   0  0  0  0  0  0  0  0  0  0  0  0
    1.4162   -4.0970    1.8893 H   0  0  0  0  0  0  0  0  0  0  0  0
    3.4622   -5.1934    2.7758 H   0  0  0  0  0  0  0  0  0  0  0  0
    5.5717   -5.1238    1.4801 H   0  0  0  0  0  0  0  0  0  0  0  0
   10.4997   -3.9111    0.2578 H   0  0  0  0  0  0  0  0  0  0  0  0
   11.4366   -2.5694   -0.4175 H   0  0  0  0  0  0  0  0  0  0  0  0
    9.7718   -2.8489   -0.9399 H   0  0  0  0  0  0  0  0  0  0  0  0
    9.2981    0.1377    1.2529 H   0  0  0  0  0  0  0  0  0  0  0  0
    9.1115   -0.5160   -0.3898 H   0  0  0  0  0  0  0  0  0  0  0  0
   10.7055   -0.0763    0.2110 H   0  0  0  0  0  0  0  0  0  0  0  0
   10.5927   -1.3107    3.0379 H   0  0  0  0  0  0  0  0  0  0  0  0
   11.9103   -1.4797    1.8749 H   0  0  0  0  0  0  0  0  0  0  0  0
   11.1713   -2.9204    2.5755 H   0  0  0  0  0  0  0  0  0  0  0  0
    4.3000   -0.0990   -2.1675 H   0  0  0  0  0  0  0  0  0  0  0  0
    1.8260    0.0158   -2.1620 H   0  0  0  0  0  0  0  0  0  0  0  0
  2  1  1  0  0  0  0
  2  3  2  0  0  0  0
  3 30  1  0  0  0  0
  4  3  1  0  0  0  0
  4 31  1  0  0  0  0
  5  4  2  0  0  0  0
  6  5  1  0  0  0  0
  6  7  1  0  0  0  0
  7  8  1  1  0  0  0
  7  9  1  0  0  0  0
  9 11  1  0  0  0  0
  9 10  2  0  0  0  0
 12 13  1  1  0  0  0
 12 11  1  0  0  0  0
 14  7  1  0  0  0  0
 14 12  1  0  0  0  0
 15 16  2  0  0  0  0
 15 14  1  0  0  0  0
 17 18  1  0  0  0  0
 17 15  1  0  0  0  0
 18 23  1  0  0  0  0
 19 18  2  0  0  0  0
 19 20  1  0  0  0  0
 20 21  2  0  0  0  0
 21 22  1  0  0  0  0
 21 36  1  0  0  0  0
 22 37  1  0  0  0  0
 23 38  1  0  0  0  0
 23 22  2  0  0  0  0
 24 12  1  0  0  0  0
 24 27  1  0  0  0  0
 25 39  1  0  0  0  0
 25 24  1  0  0  0  0
 26 24  1  0  0  0  0
 26 42  1  0  0  0  0
 27 47  1  0  0  0  0
 27 45  1  0  0  0  0
 28  5  1  0  0  0  0
 29 28  2  0  0  0  0
 29  2  1  0  0  0  0
 32 17  1  0  0  0  0
 33 17  1  0  0  0  0
 34 19  1  0  0  0  0
 35 20  1  0  0  0  0
 40 25  1  0  0  0  0
 41 25  1  0  0  0  0
 43 26  1  0  0  0  0
 44 26  1  0  0  0  0
 46 27  1  0  0  0  0
 48 28  1  0  0  0  0
 49 29  1  0  0  0  0
M  END
$$$$
