49

Cl         0.02560        0.06100       -0.29740
C          1.77150        0.10080       -0.25010
C          2.42730        0.08150        0.98270
C          3.82110        0.05850        1.02120
C          4.55550        0.01260       -0.17330
S          6.33060       -0.16040       -0.16260
C          6.48160       -1.57280        1.04320
H          5.46840       -1.98650        1.13010
C          6.93490       -1.11170        2.42730
O          6.36710       -0.35630        3.16110
O          8.09440       -1.72610        2.72730
C          8.58220       -2.53120        1.64550
H          8.75410       -3.55070        2.02010
N          7.45730       -2.56690        0.70350
C          7.19010       -3.72360       -0.01200
O          7.95070       -4.67250        0.02380
C          5.90000       -3.73730       -0.81750
C          4.67030       -3.96550        0.04550
C          3.47340       -3.28980       -0.23090
C          2.34240       -3.48200        0.56630
C          2.39580       -4.35600        1.65490
C          3.58220       -5.04160        1.93410
C          4.71090       -4.85120        1.13380
C          9.90920       -1.94850        1.10990
C         10.42340       -2.82570       -0.04120
C          9.71300       -0.51030        0.61290
C         10.91840       -1.97360        2.27050
C          3.88670        0.07030       -1.40440
C          2.49340        0.12540       -1.44680
H          1.84790        0.08070        1.90670
H          4.34230        0.05910        1.98090
H          6.01470       -4.55510       -1.54430
H          5.79640       -2.79300       -1.37220
H          3.42940       -2.59170       -1.06800
H          1.42460       -2.93450        0.34060
H          1.51590       -4.50240        2.28560
H          3.62980       -5.73030        2.78100
H          5.63310       -5.39570        1.35170
H         10.51910       -3.87850        0.25930
H         11.41080       -2.46130       -0.36490
H          9.74910       -2.78920       -0.90890
H          9.32960        0.15300        1.40260
H          9.02240       -0.47330       -0.24290
H         10.67580       -0.09870        0.27380
H         10.57250       -1.35870        3.11360
H         11.89150       -1.58480        1.93360
H         11.07550       -3.00120        2.63660
H          4.45730        0.03710       -2.33490
H          1.96440        0.15120       -2.40050
