rmsd99.gzmat
 OpenBabel08211713413D

 49 51  0  0  1  0  0  0  0  0999 V2000
    0.0000    0.0000    0.0000 Cl  0  0  0  0  0  0  0  0  0  0  0  0
    1.7095    0.0000    0.0000 C   0  0  0  0  0  0  0  0  0  0  0  0
    2.3745    0.0000    1.2192 C   0  0  0  0  0  0  0  0  0  0  0  0
    3.7675   -0.0432    1.2125 C   0  0  0  0  0  0  0  0  0  0  0  0
    4.4518   -0.1061   -0.0013 C   0  0  0  0  0  0  0  0  0  0  0  0
    6.2228   -0.2195   -0.0477 S   0  0  0  0  0  0  0  0  0  0  0  0
    6.4865   -1.6238    1.1340 C   0  0  2  0  0  0  0  0  0  0  0  0
    5.5176   -2.1723    1.2849 H   0  0  0  0  0  0  0  0  0  0  0  0
    6.9992   -1.0889    2.4680 C   0  0  0  0  0  0  0  0  0  0  0  0
    6.4523   -0.3911    3.2677 O   0  0  0  0  0  0  0  0  0  0  0  0
    8.2455   -1.5942    2.7019 O   0  0  0  0  0  0  0  0  0  0  0  0
    8.7066   -2.4099    1.6151 C   0  0  1  0  0  0  0  0  0  0  0  0
    8.9154   -3.4122    2.0692 H   0  0  0  0  0  0  0  0  0  0  0  0
    7.5587   -2.4829    0.6706 N   0  0  0  0  0  0  0  0  0  0  0  0
    7.3641   -3.6640   -0.0544 C   0  0  0  0  0  0  0  0  0  0  0  0
    8.2279   -4.5125   -0.0028 O   0  0  0  0  0  0  0  0  0  0  0  0
    6.1602   -3.7926   -0.9567 C   0  0  0  0  0  0  0  0  0  0  0  0
    4.8656   -3.9164   -0.2191 C   0  0  0  0  0  0  0  0  0  0  0  0
    3.7096   -3.3563   -0.7672 C   0  0  0  0  0  0  0  0  0  0  0  0
    2.5017   -3.4348   -0.0780 C   0  0  0  0  0  0  0  0  0  0  0  0
    2.4420   -4.0782    1.1563 C   0  0  0  0  0  0  0  0  0  0  0  0
    3.5890   -4.6638    1.6898 C   0  0  0  0  0  0  0  0  0  0  0  0
    4.7976   -4.5904    1.0025 C   0  0  0  0  0  0  0  0  0  0  0  0
    9.9962   -1.7605    1.0430 C   0  0  0  0  0  0  0  0  0  0  0  0
   10.5136   -2.6333   -0.1041 C   0  0  0  0  0  0  0  0  0  0  0  0
    9.7567   -0.3332    0.5524 C   0  0  0  0  0  0  0  0  0  0  0  0
   11.0167   -1.7465    2.1917 C   0  0  0  0  0  0  0  0  0  0  0  0
    3.7661   -0.0753   -1.2158 C   0  0  0  0  0  0  0  0  0  0  0  0
    2.3734   -0.0158   -1.2202 C   0  0  0  0  0  0  0  0  0  0  0  0
    1.8292    0.0302    2.1635 H   0  0  0  0  0  0  0  0  0  0  0  0
    4.3034   -0.0234    2.1690 H   0  0  0  0  0  0  0  0  0  0  0  0
    6.3042   -4.7027   -1.5941 H   0  0  0  0  0  0  0  0  0  0  0  0
    6.1446   -2.9429   -1.6767 H   0  0  0  0  0  0  0  0  0  0  0  0
    3.7484   -2.8524   -1.7311 H   0  0  0  0  0  0  0  0  0  0  0  0
    1.6043   -2.9860   -0.5021 H   0  0  0  0  0  0  0  0  0  0  0  0
    1.5001   -4.1274    1.6998 H   0  0  0  0  0  0  0  0  0  0  0  0
    3.5400   -5.1841    2.6460 H   0  0  0  0  0  0  0  0  0  0  0  0
    5.6861   -5.0669    1.4166 H   0  0  0  0  0  0  0  0  0  0  0  0
   10.6121   -3.6864    0.1914 H   0  0  0  0  0  0  0  0  0  0  0  0
   11.4951   -2.2932   -0.4494 H   0  0  0  0  0  0  0  0  0  0  0  0
    9.8356   -2.6116   -0.9658 H   0  0  0  0  0  0  0  0  0  0  0  0
    9.2745    0.2843    1.3199 H   0  0  0  0  0  0  0  0  0  0  0  0
    9.1326   -0.3141   -0.3479 H   0  0  0  0  0  0  0  0  0  0  0  0
   10.7015    0.1577    0.2916 H   0  0  0  0  0  0  0  0  0  0  0  0
   10.6443   -1.1703    3.0494 H   0  0  0  0  0  0  0  0  0  0  0  0
   11.9589   -1.2860    1.8750 H   0  0  0  0  0  0  0  0  0  0  0  0
   11.2509   -2.7563    2.5446 H   0  0  0  0  0  0  0  0  0  0  0  0
    4.3000   -0.1023   -2.1686 H   0  0  0  0  0  0  0  0  0  0  0  0
    1.8266    0.0098   -2.1621 H   0  0  0  0  0  0  0  0  0  0  0  0
  2  1  1  0  0  0  0
  2  3  2  0  0  0  0
  3 30  1  0  0  0  0
  4  3  1  0  0  0  0
  4 31  1  0  0  0  0
  5  4  2  0  0  0  0
  6  5  1  0  0  0  0
  6  7  1  0  0  0  0
  7  8  1  1  0  0  0
  7  9  1  0  0  0  0
  9 11  1  0  0  0  0
  9 10  2  0  0  0  0
 12 13  1  1  0  0  0
 12 11  1  0  0  0  0
 14  7  1  0  0  0  0
 14 12  1  0  0  0  0
 15 16  2  0  0  0  0
 15 14  1  0  0  0  0
 17 18  1  0  0  0  0
 17 15  1  0  0  0  0
 18 23  1  0  0  0  0
 19 18  2  0  0  0  0
 19 20  1  0  0  0  0
 20 21  2  0  0  0  0
 21 22  1  0  0  0  0
 21 36  1  0  0  0  0
 22 37  1  0  0  0  0
 23 38  1  0  0  0  0
 23 22  2  0  0  0  0
 24 12  1  0  0  0  0
 24 27  1  0  0  0  0
 25 39  1  0  0  0  0
 25 24  1  0  0  0  0
 26 24  1  0  0  0  0
 26 42  1  0  0  0  0
 27 47  1  0  0  0  0
 27 45  1  0  0  0  0
 28  5  1  0  0  0  0
 29 28  2  0  0  0  0
 29  2  1  0  0  0  0
 32 17  1  0  0  0  0
 33 17  1  0  0  0  0
 34 19  1  0  0  0  0
 35 20  1  0  0  0  0
 40 25  1  0  0  0  0
 41 25  1  0  0  0  0
 43 26  1  0  0  0  0
 44 26  1  0  0  0  0
 46 27  1  0  0  0  0
 48 28  1  0  0  0  0
 49 29  1  0  0  0  0
M  END
$$$$
