rmsd70.gzmat
 OpenBabel08211713413D

 49 51  0  0  1  0  0  0  0  0999 V2000
    0.0000    0.0000    0.0000 Cl  0  0  0  0  0  0  0  0  0  0  0  0
    1.7094    0.0000    0.0000 C   0  0  0  0  0  0  0  0  0  0  0  0
    2.3741    0.0000    1.2196 C   0  0  0  0  0  0  0  0  0  0  0  0
    3.7670   -0.0432    1.2134 C   0  0  0  0  0  0  0  0  0  0  0  0
    4.4519   -0.1086   -0.0001 C   0  0  0  0  0  0  0  0  0  0  0  0
    6.2227   -0.2333   -0.0440 S   0  0  0  0  0  0  0  0  0  0  0  0
    6.4752   -1.6119    1.1700 C   0  0  2  0  0  0  0  0  0  0  0  0
    5.5031   -2.1536    1.3284 H   0  0  0  0  0  0  0  0  0  0  0  0
    6.9820   -1.0489    2.4945 C   0  0  0  0  0  0  0  0  0  0  0  0
    6.4355   -0.3247    3.2710 O   0  0  0  0  0  0  0  0  0  0  0  0
    8.2203   -1.5614    2.7525 O   0  0  0  0  0  0  0  0  0  0  0  0
    8.6789   -2.4157    1.6948 C   0  0  1  0  0  0  0  0  0  0  0  0
    8.8561   -3.4113    2.1771 H   0  0  0  0  0  0  0  0  0  0  0  0
    7.5455   -2.4868    0.7325 N   0  0  0  0  0  0  0  0  0  0  0  0
    7.3460   -3.6778    0.0245 C   0  0  0  0  0  0  0  0  0  0  0  0
    8.1964   -4.5375    0.1051 O   0  0  0  0  0  0  0  0  0  0  0  0
    6.1527   -3.8059   -0.8914 C   0  0  0  0  0  0  0  0  0  0  0  0
    4.8507   -3.9129   -0.1639 C   0  0  0  0  0  0  0  0  0  0  0  0
    3.7023   -3.3534   -0.7278 C   0  0  0  0  0  0  0  0  0  0  0  0
    2.4866   -3.4263   -0.0516 C   0  0  0  0  0  0  0  0  0  0  0  0
    2.4138   -4.0538    1.1901 C   0  0  0  0  0  0  0  0  0  0  0  0
    3.5553   -4.6322    1.7432 C   0  0  0  0  0  0  0  0  0  0  0  0
    4.7695   -4.5728    1.0647 C   0  0  0  0  0  0  0  0  0  0  0  0
    9.9926   -1.8109    1.1299 C   0  0  0  0  0  0  0  0  0  0  0  0
   10.5198   -2.7334    0.0270 C   0  0  0  0  0  0  0  0  0  0  0  0
    9.7882   -0.3983    0.5841 C   0  0  0  0  0  0  0  0  0  0  0  0
   10.9868   -1.7748    2.3012 C   0  0  0  0  0  0  0  0  0  0  0  0
    3.7670   -0.0752   -1.2149 C   0  0  0  0  0  0  0  0  0  0  0  0
    2.3740   -0.0145   -1.2198 C   0  0  0  0  0  0  0  0  0  0  0  0
    1.8292    0.0312    2.1640 H   0  0  0  0  0  0  0  0  0  0  0  0
    4.3023   -0.0200    2.1704 H   0  0  0  0  0  0  0  0  0  0  0  0
    6.2956   -4.7240   -1.5173 H   0  0  0  0  0  0  0  0  0  0  0  0
    6.1506   -2.9646   -1.6208 H   0  0  0  0  0  0  0  0  0  0  0  0
    3.7516   -2.8540   -1.6936 H   0  0  0  0  0  0  0  0  0  0  0  0
    1.5933   -2.9862   -0.4930 H   0  0  0  0  0  0  0  0  0  0  0  0
    1.4660   -4.0973    1.7233 H   0  0  0  0  0  0  0  0  0  0  0  0
    3.4968   -5.1355    2.7078 H   0  0  0  0  0  0  0  0  0  0  0  0
    5.6522   -5.0503    1.4902 H   0  0  0  0  0  0  0  0  0  0  0  0
   10.5838   -3.7782    0.3595 H   0  0  0  0  0  0  0  0  0  0  0  0
   11.5186   -2.4282   -0.3011 H   0  0  0  0  0  0  0  0  0  0  0  0
    9.8666   -2.7254   -0.8540 H   0  0  0  0  0  0  0  0  0  0  0  0
    9.3163    0.2587    1.3251 H   0  0  0  0  0  0  0  0  0  0  0  0
    9.1667   -0.3992   -0.3185 H   0  0  0  0  0  0  0  0  0  0  0  0
   10.7455    0.0601    0.3095 H   0  0  0  0  0  0  0  0  0  0  0  0
   10.6159   -1.1436    3.1202 H   0  0  0  0  0  0  0  0  0  0  0  0
   11.9527   -1.3657    1.9851 H   0  0  0  0  0  0  0  0  0  0  0  0
   11.1754   -2.7736    2.7095 H   0  0  0  0  0  0  0  0  0  0  0  0
    4.3009   -0.1022   -2.1674 H   0  0  0  0  0  0  0  0  0  0  0  0
    1.8262    0.0122   -2.1617 H   0  0  0  0  0  0  0  0  0  0  0  0
  1  2  1  0  0  0  0
  2  3  2  0  0  0  0
  3 30  1  0  0  0  0
  4  3  1  0  0  0  0
  4 31  1  0  0  0  0
  5  4  2  0  0  0  0
  6  5  1  0  0  0  0
  6  7  1  0  0  0  0
  7  8  1  1  0  0  0
  7  9  1  0  0  0  0
  9 11  1  0  0  0  0
  9 10  2  0  0  0  0
 12 13  1  1  0  0  0
 12 11  1  0  0  0  0
 14  7  1  0  0  0  0
 14 12  1  0  0  0  0
 15 16  2  0  0  0  0
 15 14  1  0  0  0  0
 17 18  1  0  0  0  0
 17 15  1  0  0  0  0
 18 23  1  0  0  0  0
 19 18  2  0  0  0  0
 19 20  1  0  0  0  0
 20 21  2  0  0  0  0
 21 36  1  0  0  0  0
 21 22  1  0  0  0  0
 22 37  1  0  0  0  0
 23 38  1  0  0  0  0
 23 22  2  0  0  0  0
 24 12  1  0  0  0  0
 24 27  1  0  0  0  0
 25 39  1  0  0  0  0
 25 24  1  0  0  0  0
 26 24  1  0  0  0  0
 26 42  1  0  0  0  0
 27 47  1  0  0  0  0
 27 45  1  0  0  0  0
 28  5  1  0  0  0  0
 29 28  2  0  0  0  0
 29  2  1  0  0  0  0
 32 17  1  0  0  0  0
 33 17  1  0  0  0  0
 34 19  1  0  0  0  0
 35 20  1  0  0  0  0
 40 25  1  0  0  0  0
 41 25  1  0  0  0  0
 43 26  1  0  0  0  0
 44 26  1  0  0  0  0
 46 27  1  0  0  0  0
 48 28  1  0  0  0  0
 49 29  1  0  0  0  0
M  END
$$$$
