rmsd212.gzmat
 OpenBabel08211713413D

 49 51  0  0  1  0  0  0  0  0999 V2000
    0.0000    0.0000    0.0000 Cl  0  0  0  0  0  0  0  0  0  0  0  0
    1.7093    0.0000    0.0000 C   0  0  0  0  0  0  0  0  0  0  0  0
    2.3750    0.0000    1.2190 C   0  0  0  0  0  0  0  0  0  0  0  0
    3.7680   -0.0447    1.2122 C   0  0  0  0  0  0  0  0  0  0  0  0
    4.4513   -0.1048   -0.0020 C   0  0  0  0  0  0  0  0  0  0  0  0
    6.2219   -0.2195   -0.0494 S   0  0  0  0  0  0  0  0  0  0  0  0
    6.4832   -1.6509    1.1003 C   0  0  2  0  0  0  0  0  0  0  0  0
    5.5144   -2.2030    1.2377 H   0  0  0  0  0  0  0  0  0  0  0  0
    6.9942   -1.1454    2.4463 C   0  0  0  0  0  0  0  0  0  0  0  0
    6.4447   -0.4694    3.2628 O   0  0  0  0  0  0  0  0  0  0  0  0
    8.2434   -1.6497    2.6662 O   0  0  0  0  0  0  0  0  0  0  0  0
    8.7084   -2.4337    1.5581 C   0  0  1  0  0  0  0  0  0  0  0  0
    8.9307   -3.4444    1.9869 H   0  0  0  0  0  0  0  0  0  0  0  0
    7.5570   -2.4972    0.6179 N   0  0  0  0  0  0  0  0  0  0  0  0
    7.3638   -3.6691   -0.1223 C   0  0  0  0  0  0  0  0  0  0  0  0
    8.2380   -4.5082   -0.0979 O   0  0  0  0  0  0  0  0  0  0  0  0
    6.1428   -3.8007   -1.0013 C   0  0  0  0  0  0  0  0  0  0  0  0
    4.8717   -3.9564   -0.2294 C   0  0  0  0  0  0  0  0  0  0  0  0
    4.8440   -4.6934    0.9572 C   0  0  0  0  0  0  0  0  0  0  0  0
    3.6612   -4.7964    1.6841 C   0  0  0  0  0  0  0  0  0  0  0  0
    2.4982   -4.1821    1.2219 C   0  0  0  0  0  0  0  0  0  0  0  0
    2.5176   -3.4736    0.0228 C   0  0  0  0  0  0  0  0  0  0  0  0
    3.7013   -3.3597   -0.7027 C   0  0  0  0  0  0  0  0  0  0  0  0
    9.9885   -1.7563    0.9971 C   0  0  0  0  0  0  0  0  0  0  0  0
   10.5216   -2.6088   -0.1579 C   0  0  0  0  0  0  0  0  0  0  0  0
    9.7274   -0.3277    0.5216 C   0  0  0  0  0  0  0  0  0  0  0  0
   11.0061   -1.7388    2.1482 C   0  0  0  0  0  0  0  0  0  0  0  0
    3.7654   -0.0703   -1.2162 C   0  0  0  0  0  0  0  0  0  0  0  0
    2.3725   -0.0136   -1.2204 C   0  0  0  0  0  0  0  0  0  0  0  0
    1.8297    0.0314    2.1631 H   0  0  0  0  0  0  0  0  0  0  0  0
    4.3045   -0.0274    2.1685 H   0  0  0  0  0  0  0  0  0  0  0  0
    6.2850   -4.6984   -1.6558 H   0  0  0  0  0  0  0  0  0  0  0  0
    6.0961   -2.9405   -1.7064 H   0  0  0  0  0  0  0  0  0  0  0  0
    5.7445   -5.1945    1.3119 H   0  0  0  0  0  0  0  0  0  0  0  0
    3.6443   -5.3611    2.6156 H   0  0  0  0  0  0  0  0  0  0  0  0
    1.5750   -4.2596    1.7936 H   0  0  0  0  0  0  0  0  0  0  0  0
    1.6081   -3.0009   -0.3453 H   0  0  0  0  0  0  0  0  0  0  0  0
    3.7094   -2.7993   -1.6357 H   0  0  0  0  0  0  0  0  0  0  0  0
   10.6570   -3.6586    0.1334 H   0  0  0  0  0  0  0  0  0  0  0  0
   11.4873   -2.2351   -0.5125 H   0  0  0  0  0  0  0  0  0  0  0  0
    9.8344   -2.6080   -1.0126 H   0  0  0  0  0  0  0  0  0  0  0  0
    9.2096    0.2662    1.2845 H   0  0  0  0  0  0  0  0  0  0  0  0
    9.1278   -0.3114   -0.3954 H   0  0  0  0  0  0  0  0  0  0  0  0
   10.6662    0.1912    0.2951 H   0  0  0  0  0  0  0  0  0  0  0  0
   10.6348   -1.1529    2.9996 H   0  0  0  0  0  0  0  0  0  0  0  0
   11.9524   -1.2884    1.8294 H   0  0  0  0  0  0  0  0  0  0  0  0
   11.2322   -2.7464    2.5122 H   0  0  0  0  0  0  0  0  0  0  0  0
    4.2991   -0.0928   -2.1690 H   0  0  0  0  0  0  0  0  0  0  0  0
    1.8245    0.0119   -2.1619 H   0  0  0  0  0  0  0  0  0  0  0  0
  2  1  1  0  0  0  0
  2  3  2  0  0  0  0
  3 30  1  0  0  0  0
  4  3  1  0  0  0  0
  4 31  1  0  0  0  0
  5  4  2  0  0  0  0
  6  5  1  0  0  0  0
  6  7  1  0  0  0  0
  7  8  1  1  0  0  0
  7  9  1  0  0  0  0
  9 11  1  0  0  0  0
  9 10  2  0  0  0  0
 12 13  1  1  0  0  0
 12 11  1  0  0  0  0
 14  7  1  0  0  0  0
 14 12  1  0  0  0  0
 15 16  2  0  0  0  0
 15 14  1  0  0  0  0
 17 18  1  0  0  0  0
 17 15  1  0  0  0  0
 18 19  1  0  0  0  0
 19 34  1  0  0  0  0
 19 20  2  0  0  0  0
 20 35  1  0  0  0  0
 21 20  1  0  0  0  0
 21 36  1  0  0  0  0
 22 21  2  0  0  0  0
 23 18  2  0  0  0  0
 23 22  1  0  0  0  0
 24 12  1  0  0  0  0
 24 27  1  0  0  0  0
 25 39  1  0  0  0  0
 25 24  1  0  0  0  0
 26 24  1  0  0  0  0
 26 42  1  0  0  0  0
 27 47  1  0  0  0  0
 27 45  1  0  0  0  0
 28  5  1  0  0  0  0
 29 28  2  0  0  0  0
 29  2  1  0  0  0  0
 32 17  1  0  0  0  0
 33 17  1  0  0  0  0
 37 22  1  0  0  0  0
 38 23  1  0  0  0  0
 40 25  1  0  0  0  0
 41 25  1  0  0  0  0
 43 26  1  0  0  0  0
 44 26  1  0  0  0  0
 46 27  1  0  0  0  0
 48 28  1  0  0  0  0
 49 29  1  0  0  0  0
M  END
$$$$
