rmsd74.gzmat
 OpenBabel08211713413D

 49 51  0  0  1  0  0  0  0  0999 V2000
    0.0000    0.0000    0.0000 Cl  0  0  0  0  0  0  0  0  0  0  0  0
    1.7089    0.0000    0.0000 C   0  0  0  0  0  0  0  0  0  0  0  0
    2.3755    0.0000    1.2186 C   0  0  0  0  0  0  0  0  0  0  0  0
    3.7679   -0.0559    1.2102 C   0  0  0  0  0  0  0  0  0  0  0  0
    4.4493   -0.1330   -0.0043 C   0  0  0  0  0  0  0  0  0  0  0  0
    6.2160   -0.2963   -0.0509 S   0  0  0  0  0  0  0  0  0  0  0  0
    6.4380   -1.6741    1.1707 C   0  0  2  0  0  0  0  0  0  0  0  0
    5.4517   -2.1851    1.3415 H   0  0  0  0  0  0  0  0  0  0  0  0
    6.9736   -1.1184    2.4870 C   0  0  0  0  0  0  0  0  0  0  0  0
    6.4556   -0.3764    3.2658 O   0  0  0  0  0  0  0  0  0  0  0  0
    8.2002   -1.6637    2.7340 O   0  0  0  0  0  0  0  0  0  0  0  0
    8.6324   -2.5181    1.6655 C   0  0  1  0  0  0  0  0  0  0  0  0
    8.8168   -3.5148    2.1424 H   0  0  0  0  0  0  0  0  0  0  0  0
    7.4780   -2.5825    0.7290 N   0  0  0  0  0  0  0  0  0  0  0  0
    7.2381   -3.7795    0.0443 C   0  0  0  0  0  0  0  0  0  0  0  0
    8.0752   -4.6529    0.1133 O   0  0  0  0  0  0  0  0  0  0  0  0
    6.0179   -3.8966   -0.8373 C   0  0  0  0  0  0  0  0  0  0  0  0
    4.7334   -3.9631   -0.0752 C   0  0  0  0  0  0  0  0  0  0  0  0
    3.5866   -3.3735   -0.6110 C   0  0  0  0  0  0  0  0  0  0  0  0
    2.3880   -3.4086    0.0977 C   0  0  0  0  0  0  0  0  0  0  0  0
    2.3309   -4.0286    1.3439 C   0  0  0  0  0  0  0  0  0  0  0  0
    3.4693   -4.6385    1.8684 C   0  0  0  0  0  0  0  0  0  0  0  0
    4.6665   -4.6159    1.1581 C   0  0  0  0  0  0  0  0  0  0  0  0
    9.9354   -1.9173    1.0718 C   0  0  0  0  0  0  0  0  0  0  0  0
   10.4281   -2.8380   -0.0478 C   0  0  0  0  0  0  0  0  0  0  0  0
    9.7289   -0.5015    0.5356 C   0  0  0  0  0  0  0  0  0  0  0  0
   10.9577   -1.8923    2.2182 C   0  0  0  0  0  0  0  0  0  0  0  0
    3.7633   -0.0878   -1.2180 C   0  0  0  0  0  0  0  0  0  0  0  0
    2.3715   -0.0151   -1.2207 C   0  0  0  0  0  0  0  0  0  0  0  0
    1.8327    0.0398    2.1639 H   0  0  0  0  0  0  0  0  0  0  0  0
    4.3058   -0.0320    2.1658 H   0  0  0  0  0  0  0  0  0  0  0  0
    6.1236   -4.8277   -1.4508 H   0  0  0  0  0  0  0  0  0  0  0  0
    6.0152   -3.0669   -1.5799 H   0  0  0  0  0  0  0  0  0  0  0  0
    3.6249   -2.8799   -1.5803 H   0  0  0  0  0  0  0  0  0  0  0  0
    1.4958   -2.9454   -0.3219 H   0  0  0  0  0  0  0  0  0  0  0  0
    1.3974   -4.0404    1.9033 H   0  0  0  0  0  0  0  0  0  0  0  0
    3.4222   -5.1378    2.8355 H   0  0  0  0  0  0  0  0  0  0  0  0
    5.5467   -5.1158    1.5623 H   0  0  0  0  0  0  0  0  0  0  0  0
   10.5190   -3.8801    0.2851 H   0  0  0  0  0  0  0  0  0  0  0  0
   11.4081   -2.5205   -0.4175 H   0  0  0  0  0  0  0  0  0  0  0  0
    9.7388   -2.8408   -0.9005 H   0  0  0  0  0  0  0  0  0  0  0  0
    9.2471    0.1477    1.2766 H   0  0  0  0  0  0  0  0  0  0  0  0
    9.1179   -0.4994   -0.3740 H   0  0  0  0  0  0  0  0  0  0  0  0
   10.6859   -0.0349    0.2743 H   0  0  0  0  0  0  0  0  0  0  0  0
   10.6070   -1.2696    3.0519 H   0  0  0  0  0  0  0  0  0  0  0  0
   11.9150   -1.4789    1.8826 H   0  0  0  0  0  0  0  0  0  0  0  0
   11.1564   -2.8943    2.6122 H   0  0  0  0  0  0  0  0  0  0  0  0
    4.2957   -0.1143   -2.1709 H   0  0  0  0  0  0  0  0  0  0  0  0
    1.8235    0.0211   -2.1618 H   0  0  0  0  0  0  0  0  0  0  0  0
  2  1  1  0  0  0  0
  2  3  2  0  0  0  0
  3 30  1  0  0  0  0
  4  3  1  0  0  0  0
  4 31  1  0  0  0  0
  5  4  2  0  0  0  0
  6  5  1  0  0  0  0
  6  7  1  0  0  0  0
  7  8  1  1  0  0  0
  7  9  1  0  0  0  0
  9 11  1  0  0  0  0
  9 10  2  0  0  0  0
 12 13  1  1  0  0  0
 12 11  1  0  0  0  0
 14  7  1  0  0  0  0
 14 12  1  0  0  0  0
 15 16  2  0  0  0  0
 15 14  1  0  0  0  0
 17 18  1  0  0  0  0
 17 15  1  0  0  0  0
 18 23  1  0  0  0  0
 19 18  2  0  0  0  0
 19 20  1  0  0  0  0
 20 21  2  0  0  0  0
 21 22  1  0  0  0  0
 21 36  1  0  0  0  0
 22 37  1  0  0  0  0
 23 38  1  0  0  0  0
 23 22  2  0  0  0  0
 24 12  1  0  0  0  0
 24 27  1  0  0  0  0
 25 39  1  0  0  0  0
 25 24  1  0  0  0  0
 26 24  1  0  0  0  0
 26 42  1  0  0  0  0
 27 47  1  0  0  0  0
 27 45  1  0  0  0  0
 28  5  1  0  0  0  0
 29 28  2  0  0  0  0
 29  2  1  0  0  0  0
 32 17  1  0  0  0  0
 33 17  1  0  0  0  0
 34 19  1  0  0  0  0
 35 20  1  0  0  0  0
 40 25  1  0  0  0  0
 41 25  1  0  0  0  0
 43 26  1  0  0  0  0
 44 26  1  0  0  0  0
 46 27  1  0  0  0  0
 48 28  1  0  0  0  0
 49 29  1  0  0  0  0
M  END
$$$$
