rmsd78.gzmat
 OpenBabel08211713413D

 49 51  0  0  1  0  0  0  0  0999 V2000
    0.0000    0.0000    0.0000 Cl  0  0  0  0  0  0  0  0  0  0  0  0
    1.7092    0.0000    0.0000 C   0  0  0  0  0  0  0  0  0  0  0  0
    2.3741    0.0000    1.2194 C   0  0  0  0  0  0  0  0  0  0  0  0
    3.7670   -0.0430    1.2127 C   0  0  0  0  0  0  0  0  0  0  0  0
    4.4506   -0.1033   -0.0014 C   0  0  0  0  0  0  0  0  0  0  0  0
    6.2207   -0.2214   -0.0457 S   0  0  0  0  0  0  0  0  0  0  0  0
    6.4771   -1.6227    1.1415 C   0  0  2  0  0  0  0  0  0  0  0  0
    5.4979   -2.1420    1.3267 H   0  0  0  0  0  0  0  0  0  0  0  0
    7.0443   -1.0903    2.4542 C   0  0  0  0  0  0  0  0  0  0  0  0
    6.5405   -0.3715    3.2633 O   0  0  0  0  0  0  0  0  0  0  0  0
    8.2834   -1.6273    2.6540 O   0  0  0  0  0  0  0  0  0  0  0  0
    8.6898   -2.4631    1.5606 C   0  0  1  0  0  0  0  0  0  0  0  0
    8.8905   -3.4665    2.0165 H   0  0  0  0  0  0  0  0  0  0  0  0
    7.5096   -2.5171    0.6558 N   0  0  0  0  0  0  0  0  0  0  0  0
    7.2526   -3.7019   -0.0432 C   0  0  0  0  0  0  0  0  0  0  0  0
    8.0938   -4.5738   -0.0166 O   0  0  0  0  0  0  0  0  0  0  0  0
    6.0042   -3.8068   -0.8865 C   0  0  0  0  0  0  0  0  0  0  0  0
    4.7473   -3.9251   -0.0846 C   0  0  0  0  0  0  0  0  0  0  0  0
    3.5669   -3.3598   -0.5725 C   0  0  0  0  0  0  0  0  0  0  0  0
    2.3889   -3.4587    0.1643 C   0  0  0  0  0  0  0  0  0  0  0  0
    2.3866   -4.1142    1.3939 C   0  0  0  0  0  0  0  0  0  0  0  0
    3.5612   -4.6901    1.8756 C   0  0  0  0  0  0  0  0  0  0  0  0
    4.7371   -4.6074    1.1347 C   0  0  0  0  0  0  0  0  0  0  0  0
    9.9751   -1.8486    0.9419 C   0  0  0  0  0  0  0  0  0  0  0  0
   10.4418   -2.7499   -0.2050 C   0  0  0  0  0  0  0  0  0  0  0  0
    9.7493   -0.4243    0.4361 C   0  0  0  0  0  0  0  0  0  0  0  0
   11.0293   -1.8393    2.0602 C   0  0  0  0  0  0  0  0  0  0  0  0
    3.7655   -0.0704   -1.2160 C   0  0  0  0  0  0  0  0  0  0  0  0
    2.3729   -0.0136   -1.2203 C   0  0  0  0  0  0  0  0  0  0  0  0
    1.8287    0.0306    2.1637 H   0  0  0  0  0  0  0  0  0  0  0  0
    4.3039   -0.0234    2.1686 H   0  0  0  0  0  0  0  0  0  0  0  0
    6.1043   -4.7133   -1.5374 H   0  0  0  0  0  0  0  0  0  0  0  0
    5.9602   -2.9519   -1.5981 H   0  0  0  0  0  0  0  0  0  0  0  0
    3.5615   -2.8371   -1.5274 H   0  0  0  0  0  0  0  0  0  0  0  0
    1.4696   -3.0192   -0.2214 H   0  0  0  0  0  0  0  0  0  0  0  0
    1.4677   -4.1814    1.9732 H   0  0  0  0  0  0  0  0  0  0  0  0
    3.5588   -5.2117    2.8325 H   0  0  0  0  0  0  0  0  0  0  0  0
    5.6445   -5.0865    1.5029 H   0  0  0  0  0  0  0  0  0  0  0  0
   10.5212   -3.8007    0.1042 H   0  0  0  0  0  0  0  0  0  0  0  0
   11.4226   -2.4384   -0.5786 H   0  0  0  0  0  0  0  0  0  0  0  0
    9.7435   -2.7247   -1.0504 H   0  0  0  0  0  0  0  0  0  0  0  0
    9.2958    0.2124    1.2053 H   0  0  0  0  0  0  0  0  0  0  0  0
    9.1054   -0.4073   -0.4504 H   0  0  0  0  0  0  0  0  0  0  0  0
   10.6957    0.0470    0.1469 H   0  0  0  0  0  0  0  0  0  0  0  0
   10.6790   -1.2754    2.9353 H   0  0  0  0  0  0  0  0  0  0  0  0
   11.9582   -1.3674    1.7217 H   0  0  0  0  0  0  0  0  0  0  0  0
   11.2818   -2.8517    2.3933 H   0  0  0  0  0  0  0  0  0  0  0  0
    4.2998   -0.0937   -2.1684 H   0  0  0  0  0  0  0  0  0  0  0  0
    1.8253    0.0119   -2.1623 H   0  0  0  0  0  0  0  0  0  0  0  0
  2  1  1  0  0  0  0
  2  3  2  0  0  0  0
  3 30  1  0  0  0  0
  4  3  1  0  0  0  0
  4 31  1  0  0  0  0
  5  4  2  0  0  0  0
  6  5  1  0  0  0  0
  6  7  1  0  0  0  0
  7  8  1  1  0  0  0
  7  9  1  0  0  0  0
  9 11  1  0  0  0  0
  9 10  2  0  0  0  0
 12 13  1  1  0  0  0
 12 11  1  0  0  0  0
 14  7  1  0  0  0  0
 14 12  1  0  0  0  0
 15 16  2  0  0  0  0
 15 14  1  0  0  0  0
 17 18  1  0  0  0  0
 17 15  1  0  0  0  0
 18 23  1  0  0  0  0
 19 18  2  0  0  0  0
 19 20  1  0  0  0  0
 20 21  2  0  0  0  0
 21 22  1  0  0  0  0
 21 36  1  0  0  0  0
 22 37  1  0  0  0  0
 23 38  1  0  0  0  0
 23 22  2  0  0  0  0
 24 12  1  0  0  0  0
 24 27  1  0  0  0  0
 25 39  1  0  0  0  0
 25 24  1  0  0  0  0
 26 24  1  0  0  0  0
 26 42  1  0  0  0  0
 27 47  1  0  0  0  0
 27 45  1  0  0  0  0
 28  5  1  0  0  0  0
 29 28  2  0  0  0  0
 29  2  1  0  0  0  0
 32 17  1  0  0  0  0
 33 17  1  0  0  0  0
 34 19  1  0  0  0  0
 35 20  1  0  0  0  0
 40 25  1  0  0  0  0
 41 25  1  0  0  0  0
 43 26  1  0  0  0  0
 44 26  1  0  0  0  0
 46 27  1  0  0  0  0
 48 28  1  0  0  0  0
 49 29  1  0  0  0  0
M  END
$$$$
