49
rmsd70.gzmat
Cl         0.00000        0.00000        0.00000
C          1.70940        0.00000        0.00000
C          2.37410        0.00000        1.21960
C          3.76700       -0.04320        1.21340
C          4.45190       -0.10860       -0.00010
S          6.22270       -0.23330       -0.04400
C          6.47520       -1.61190        1.17000
H          5.50310       -2.15360        1.32840
C          6.98200       -1.04890        2.49450
O          6.43550       -0.32470        3.27100
O          8.22030       -1.56140        2.75250
C          8.67890       -2.41570        1.69480
H          8.85610       -3.41130        2.17710
N          7.54550       -2.48680        0.73250
C          7.34600       -3.67780        0.02450
O          8.19640       -4.53750        0.10510
C          6.15270       -3.80590       -0.89140
C          4.85070       -3.91290       -0.16390
C          3.70230       -3.35340       -0.72780
C          2.48660       -3.42630       -0.05160
C          2.41380       -4.05380        1.19010
C          3.55530       -4.63220        1.74320
C          4.76950       -4.57280        1.06470
C          9.99260       -1.81090        1.12990
C         10.51980       -2.73340        0.02700
C          9.78820       -0.39830        0.58410
C         10.98680       -1.77480        2.30120
C          3.76700       -0.07520       -1.21490
C          2.37400       -0.01450       -1.21980
H          1.82920        0.03120        2.16400
H          4.30230       -0.02000        2.17040
H          6.29560       -4.72400       -1.51730
H          6.15060       -2.96460       -1.62080
H          3.75160       -2.85400       -1.69360
H          1.59330       -2.98620       -0.49300
H          1.46600       -4.09730        1.72330
H          3.49680       -5.13550        2.70780
H          5.65220       -5.05030        1.49020
H         10.58380       -3.77820        0.35950
H         11.51860       -2.42820       -0.30110
H          9.86660       -2.72540       -0.85400
H          9.31630        0.25870        1.32510
H          9.16670       -0.39920       -0.31850
H         10.74550        0.06010        0.30950
H         10.61590       -1.14360        3.12020
H         11.95270       -1.36570        1.98510
H         11.17540       -2.77360        2.70950
H          4.30090       -0.10220       -2.16740
H          1.82620        0.01220       -2.16170
