33
rmsd23.gzmat
O          0.00000        0.00000        0.00000
N          1.39500        0.00000        0.00000
C          1.89450        0.00000        1.23210
C          3.31140       -0.00020        1.55270
C          4.26960        0.10010        0.53690
C          5.62440        0.09100        0.85720
C          6.02860       -0.01680        2.18690
C          5.07600       -0.11280        3.20070
C          3.71990       -0.10320        2.88740
C          0.78490       -0.00460        2.16680
N          0.40450       -0.00710        3.46920
N         -0.93250       -0.00990        3.45200
H         -1.45460       -0.00190        4.31550
C         -1.48610       -0.01280        2.15660
C         -2.94010        0.01150        1.99280
O         -3.63480        0.14900        2.97900
C         -3.52210       -0.11060        0.64280
C         -4.72650        0.55430        0.39480
C         -5.32830        0.45380       -0.85690
C         -4.73170       -0.31470       -1.85530
C         -3.53770       -0.98960       -1.60200
C         -2.93110       -0.89030       -0.35220
C         -0.38900       -0.00590        1.30830
H          3.95190        0.18630       -0.50490
H          6.36800        0.16920        0.06610
H          7.08840       -0.02470        2.43490
H          5.39080       -0.19550        4.23980
H          2.97720       -0.17620        3.68490
H         -5.19350        1.14370        1.18770
H         -6.26660        0.96970       -1.05060
H         -5.20190       -0.39160       -2.83480
H         -3.07810       -1.59520       -2.38140
H         -2.00530       -1.43280       -0.15660
