rmsd24.gzmat
 OpenBabel08211713413D

 33 36  0  0  0  0  0  0  0  0999 V2000
    0.0000    0.0000    0.0000 O   0  0  0  0  0  0  0  0  0  0  0  0
    1.3949    0.0000    0.0000 N   0  0  0  0  0  0  0  0  0  0  0  0
    1.8938    0.0000    1.2323 C   0  0  0  0  0  0  0  0  0  0  0  0
    3.3102   -0.0002    1.5528 C   0  0  0  0  0  0  0  0  0  0  0  0
    4.2612    0.2513    0.5568 C   0  0  0  0  0  0  0  0  0  0  0  0
    5.6162    0.2484    0.8755 C   0  0  0  0  0  0  0  0  0  0  0  0
    6.0260   -0.0056    2.1838 C   0  0  0  0  0  0  0  0  0  0  0  0
    5.0798   -0.2564    3.1768 C   0  0  0  0  0  0  0  0  0  0  0  0
    3.7234   -0.2534    2.8657 C   0  0  0  0  0  0  0  0  0  0  0  0
    0.7848   -0.0039    2.1677 C   0  0  0  0  0  0  0  0  0  0  0  0
    0.4027   -0.0050    3.4696 N   0  0  0  0  0  0  0  0  0  0  0  0
   -0.9351   -0.0089    3.4507 N   0  0  0  0  0  0  0  0  0  0  0  0
   -1.4570   -0.0019    4.3137 H   0  0  0  0  0  0  0  0  0  0  0  0
   -1.4858   -0.0132    2.1553 C   0  0  0  0  0  0  0  0  0  0  0  0
   -2.9363    0.0000    1.9657 C   0  0  0  0  0  0  0  0  0  0  0  0
   -3.6596    0.0948    2.9345 O   0  0  0  0  0  0  0  0  0  0  0  0
   -3.4644   -0.0733    0.5889 C   0  0  0  0  0  0  0  0  0  0  0  0
   -4.5957    0.6856    0.2802 C   0  0  0  0  0  0  0  0  0  0  0  0
   -5.1209    0.6491   -1.0094 C   0  0  0  0  0  0  0  0  0  0  0  0
   -4.5232   -0.1511   -1.9822 C   0  0  0  0  0  0  0  0  0  0  0  0
   -3.4054   -0.9232   -1.6661 C   0  0  0  0  0  0  0  0  0  0  0  0
   -2.8756   -0.8886   -0.3786 C   0  0  0  0  0  0  0  0  0  0  0  0
   -0.3875   -0.0055    1.3082 C   0  0  0  0  0  0  0  0  0  0  0  0
    3.9369    0.4481   -0.4676 H   0  0  0  0  0  0  0  0  0  0  0  0
    6.3554    0.4450    0.1011 H   0  0  0  0  0  0  0  0  0  0  0  0
    7.0862   -0.0072    2.4308 H   0  0  0  0  0  0  0  0  0  0  0  0
    5.4001   -0.4542    4.1983 H   0  0  0  0  0  0  0  0  0  0  0  0
    2.9845   -0.4474    3.6462 H   0  0  0  0  0  0  0  0  0  0  0  0
   -5.0645    1.2997    1.0522 H   0  0  0  0  0  0  0  0  0  0  0  0
   -5.9990    1.2429   -1.2553 H   0  0  0  0  0  0  0  0  0  0  0  0
   -4.9323   -0.1757   -2.9913 H   0  0  0  0  0  0  0  0  0  0  0  0
   -2.9435   -1.5514   -2.4263 H   0  0  0  0  0  0  0  0  0  0  0  0
   -2.0108   -1.5059   -0.1317 H   0  0  0  0  0  0  0  0  0  0  0  0
  1  2  1  0  0  0  0
  1 23  1  0  0  0  0
  2  3  2  0  0  0  0
  3  4  1  0  0  0  0
  3 10  1  0  0  0  0
  4  9  2  0  0  0  0
  5  6  2  0  0  0  0
  5  4  1  0  0  0  0
  6  7  1  0  0  0  0
  7 26  1  0  0  0  0
  7  8  2  0  0  0  0
  8 27  1  0  0  0  0
  9  8  1  0  0  0  0
  9 28  1  0  0  0  0
 10 11  2  0  0  0  0
 12 11  1  0  0  0  0
 12 13  1  0  0  0  0
 14 12  1  0  0  0  0
 15 14  1  0  0  0  0
 15 16  2  0  0  0  0
 17 15  1  0  0  0  0
 18 17  1  0  0  0  0
 18 29  1  0  0  0  0
 19 18  2  0  0  0  0
 20 21  2  0  0  0  0
 20 19  1  0  0  0  0
 21 22  1  0  0  0  0
 22 33  1  0  0  0  0
 22 17  2  0  0  0  0
 23 14  2  0  0  0  0
 23 10  1  0  0  0  0
 24  5  1  0  0  0  0
 25  6  1  0  0  0  0
 30 19  1  0  0  0  0
 31 20  1  0  0  0  0
 32 21  1  0  0  0  0
M  END
$$$$
