33

O          0.25880        0.31190       -0.07000
N          1.67490        0.34900       -0.00440
C          2.04670        0.13980        1.23970
C          3.45760        0.11740        1.63950
C          4.48150        0.32120        0.69770
C          5.81420        0.29550        1.10160
C          6.13990        0.06720        2.44410
C          5.12530       -0.13580        3.38300
C          3.78740       -0.11150        2.98580
C          0.87540       -0.04750        2.06280
N          0.46090       -0.28500        3.31620
N         -0.85730       -0.30830        3.19450
H         -1.46920       -0.47130        3.99110
C         -1.36280       -0.09910        1.92300
C         -2.83520       -0.12680        1.79640
O         -3.47650       -0.33120        2.82230
C         -3.51420        0.08310        0.48740
C         -4.92080        0.03640        0.48880
C         -5.63490        0.22220       -0.69090
C         -4.95260        0.45760       -1.89060
C         -3.55660        0.50560       -1.90140
C         -2.83600        0.31970       -0.71980
C         -0.19720        0.07500        1.16960
H          4.21520        0.49820       -0.34540
H          6.60660        0.45440        0.36650
H          7.18670        0.04780        2.75680
H          5.37570       -0.31430        4.43120
H          2.99160       -0.26970        3.71640
H         -5.42740       -0.14860        1.43700
H         -6.72660        0.18430       -0.67990
H         -5.51160        0.60380       -2.81820
H         -3.02070        0.68900       -2.83530
H         -1.74950        0.36330       -0.76350
