rmsd47.gzmat
 OpenBabel08211713413D

 33 36  0  0  0  0  0  0  0  0999 V2000
    0.0000    0.0000    0.0000 O   0  0  0  0  0  0  0  0  0  0  0  0
    1.3942    0.0000    0.0000 N   0  0  0  0  0  0  0  0  0  0  0  0
    1.8943    0.0000    1.2322 C   0  0  0  0  0  0  0  0  0  0  0  0
    3.3130   -0.0013    1.5441 C   0  0  0  0  0  0  0  0  0  0  0  0
    4.2635    0.0882    0.5199 C   0  0  0  0  0  0  0  0  0  0  0  0
    5.6205    0.0847    0.8300 C   0  0  0  0  0  0  0  0  0  0  0  0
    6.0341   -0.0084    2.1579 C   0  0  0  0  0  0  0  0  0  0  0  0
    5.0893   -0.0976    3.1795 C   0  0  0  0  0  0  0  0  0  0  0  0
    3.7308   -0.0938    2.8773 C   0  0  0  0  0  0  0  0  0  0  0  0
    0.7851    0.0027    2.1686 C   0  0  0  0  0  0  0  0  0  0  0  0
    0.3996    0.0062    3.4699 N   0  0  0  0  0  0  0  0  0  0  0  0
   -0.9386    0.0117    3.4489 N   0  0  0  0  0  0  0  0  0  0  0  0
   -1.4616    0.0094    4.3111 H   0  0  0  0  0  0  0  0  0  0  0  0
   -1.4861    0.0140    2.1530 C   0  0  0  0  0  0  0  0  0  0  0  0
   -2.9339   -0.0050    1.9442 C   0  0  0  0  0  0  0  0  0  0  0  0
   -3.6760   -0.0851    2.8986 O   0  0  0  0  0  0  0  0  0  0  0  0
   -3.4243    0.0393    0.5521 C   0  0  0  0  0  0  0  0  0  0  0  0
   -2.8395    0.8792   -0.3967 C   0  0  0  0  0  0  0  0  0  0  0  0
   -3.3156    0.8778   -1.7052 C   0  0  0  0  0  0  0  0  0  0  0  0
   -4.3765    0.0447   -2.0605 C   0  0  0  0  0  0  0  0  0  0  0  0
   -4.9728   -0.7784   -1.1062 C   0  0  0  0  0  0  0  0  0  0  0  0
   -4.5018   -0.7781    0.2050 C   0  0  0  0  0  0  0  0  0  0  0  0
   -0.3863    0.0050    1.3082 C   0  0  0  0  0  0  0  0  0  0  0  0
    3.9385    0.1598   -0.5206 H   0  0  0  0  0  0  0  0  0  0  0  0
    6.3586    0.1534    0.0330 H   0  0  0  0  0  0  0  0  0  0  0  0
    7.0957   -0.0125    2.3993 H   0  0  0  0  0  0  0  0  0  0  0  0
    5.4139   -0.1706    4.2160 H   0  0  0  0  0  0  0  0  0  0  0  0
    2.9934   -0.1641    3.6797 H   0  0  0  0  0  0  0  0  0  0  0  0
   -2.0179    1.5404   -0.1185 H   0  0  0  0  0  0  0  0  0  0  0  0
   -2.8547    1.5241   -2.4507 H   0  0  0  0  0  0  0  0  0  0  0  0
   -4.7416    0.0392   -3.0865 H   0  0  0  0  0  0  0  0  0  0  0  0
   -5.8065   -1.4207   -1.3832 H   0  0  0  0  0  0  0  0  0  0  0  0
   -4.9702   -1.4101    0.9623 H   0  0  0  0  0  0  0  0  0  0  0  0
  1 23  1  0  0  0  0
  2  1  1  0  0  0  0
  2  3  2  0  0  0  0
  3  4  1  0  0  0  0
  3 10  1  0  0  0  0
  4  9  2  0  0  0  0
  5  6  2  0  0  0  0
  5  4  1  0  0  0  0
  6  7  1  0  0  0  0
  7 26  1  0  0  0  0
  7  8  2  0  0  0  0
  8 27  1  0  0  0  0
  9  8  1  0  0  0  0
  9 28  1  0  0  0  0
 10 11  2  0  0  0  0
 12 11  1  0  0  0  0
 12 13  1  0  0  0  0
 14 12  1  0  0  0  0
 15 14  1  0  0  0  0
 15 16  2  0  0  0  0
 17 15  1  0  0  0  0
 18 29  1  0  0  0  0
 18 17  2  0  0  0  0
 19 18  1  0  0  0  0
 20 19  2  0  0  0  0
 20 21  1  0  0  0  0
 21 22  2  0  0  0  0
 22 17  1  0  0  0  0
 22 33  1  0  0  0  0
 23 14  2  0  0  0  0
 23 10  1  0  0  0  0
 24  5  1  0  0  0  0
 25  6  1  0  0  0  0
 30 19  1  0  0  0  0
 31 20  1  0  0  0  0
 32 21  1  0  0  0  0
M  END
$$$$
