33
rmsd24.gzmat
O          0.00000        0.00000        0.00000
N          1.39490        0.00000        0.00000
C          1.89380        0.00000        1.23230
C          3.31020       -0.00020        1.55280
C          4.26120        0.25130        0.55680
C          5.61620        0.24840        0.87550
C          6.02600       -0.00560        2.18380
C          5.07980       -0.25640        3.17680
C          3.72340       -0.25340        2.86570
C          0.78480       -0.00390        2.16770
N          0.40270       -0.00500        3.46960
N         -0.93510       -0.00890        3.45070
H         -1.45700       -0.00190        4.31370
C         -1.48580       -0.01320        2.15530
C         -2.93630        0.00000        1.96570
O         -3.65960        0.09480        2.93450
C         -3.46440       -0.07330        0.58890
C         -4.59570        0.68560        0.28020
C         -5.12090        0.64910       -1.00940
C         -4.52320       -0.15110       -1.98220
C         -3.40540       -0.92320       -1.66610
C         -2.87560       -0.88860       -0.37860
C         -0.38750       -0.00550        1.30820
H          3.93690        0.44810       -0.46760
H          6.35540        0.44500        0.10110
H          7.08620       -0.00720        2.43080
H          5.40010       -0.45420        4.19830
H          2.98450       -0.44740        3.64620
H         -5.06450        1.29970        1.05220
H         -5.99900        1.24290       -1.25530
H         -4.93230       -0.17570       -2.99130
H         -2.94350       -1.55140       -2.42630
H         -2.01080       -1.50590       -0.13170
