33
rmsd47.gzmat
O          0.00000        0.00000        0.00000
N          1.39420        0.00000        0.00000
C          1.89430        0.00000        1.23220
C          3.31300       -0.00130        1.54410
C          4.26350        0.08820        0.51990
C          5.62050        0.08470        0.83000
C          6.03410       -0.00840        2.15790
C          5.08930       -0.09760        3.17950
C          3.73080       -0.09380        2.87730
C          0.78510        0.00270        2.16860
N          0.39960        0.00620        3.46990
N         -0.93860        0.01170        3.44890
H         -1.46160        0.00940        4.31110
C         -1.48610        0.01400        2.15300
C         -2.93390       -0.00500        1.94420
O         -3.67600       -0.08510        2.89860
C         -3.42430        0.03930        0.55210
C         -2.83950        0.87920       -0.39670
C         -3.31560        0.87780       -1.70520
C         -4.37650        0.04470       -2.06050
C         -4.97280       -0.77840       -1.10620
C         -4.50180       -0.77810        0.20500
C         -0.38630        0.00500        1.30820
H          3.93850        0.15980       -0.52060
H          6.35860        0.15340        0.03300
H          7.09570       -0.01250        2.39930
H          5.41390       -0.17060        4.21600
H          2.99340       -0.16410        3.67970
H         -2.01790        1.54040       -0.11850
H         -2.85470        1.52410       -2.45070
H         -4.74160        0.03920       -3.08650
H         -5.80650       -1.42070       -1.38320
H         -4.97020       -1.41010        0.96230
