rmsd5.gzmat
 OpenBabel08211713413D

 33 36  0  0  0  0  0  0  0  0999 V2000
    0.0000    0.0000    0.0000 O   0  0  0  0  0  0  0  0  0  0  0  0
    1.3951    0.0000    0.0000 N   0  0  0  0  0  0  0  0  0  0  0  0
    1.8938    0.0000    1.2323 C   0  0  0  0  0  0  0  0  0  0  0  0
    3.3087   -0.0168    1.5591 C   0  0  0  0  0  0  0  0  0  0  0  0
    3.7111    0.1229    2.8926 C   0  0  0  0  0  0  0  0  0  0  0  0
    5.0636    0.0842    3.2169 C   0  0  0  0  0  0  0  0  0  0  0  0
    6.0182   -0.0921    2.2159 C   0  0  0  0  0  0  0  0  0  0  0  0
    5.6207   -0.2218    0.8862 C   0  0  0  0  0  0  0  0  0  0  0  0
    4.2691   -0.1841    0.5542 C   0  0  0  0  0  0  0  0  0  0  0  0
    0.7843    0.0072    2.1673 C   0  0  0  0  0  0  0  0  0  0  0  0
    0.4037    0.0120    3.4695 N   0  0  0  0  0  0  0  0  0  0  0  0
   -0.9336    0.0119    3.4518 N   0  0  0  0  0  0  0  0  0  0  0  0
   -1.4547    0.0103    4.3151 H   0  0  0  0  0  0  0  0  0  0  0  0
   -1.4860    0.0090    2.1567 C   0  0  0  0  0  0  0  0  0  0  0  0
   -2.9379   -0.0255    1.9790 C   0  0  0  0  0  0  0  0  0  0  0  0
   -3.6476   -0.1471    2.9555 O   0  0  0  0  0  0  0  0  0  0  0  0
   -3.4889    0.0644    0.6131 C   0  0  0  0  0  0  0  0  0  0  0  0
   -2.8996    0.8653   -0.3661 C   0  0  0  0  0  0  0  0  0  0  0  0
   -3.4607    0.9242   -1.6393 C   0  0  0  0  0  0  0  0  0  0  0  0
   -4.6116    0.1914   -1.9296 C   0  0  0  0  0  0  0  0  0  0  0  0
   -5.2076   -0.5974   -0.9465 C   0  0  0  0  0  0  0  0  0  0  0  0
   -4.6494   -0.6597    0.3279 C   0  0  0  0  0  0  0  0  0  0  0  0
   -0.3885    0.0057    1.3083 C   0  0  0  0  0  0  0  0  0  0  0  0
    2.9661    0.2587    3.6798 H   0  0  0  0  0  0  0  0  0  0  0  0
    5.3751    0.1888    4.2547 H   0  0  0  0  0  0  0  0  0  0  0  0
    7.0745   -0.1316    2.4758 H   0  0  0  0  0  0  0  0  0  0  0  0
    6.3667   -0.3567    0.1055 H   0  0  0  0  0  0  0  0  0  0  0  0
    3.9553   -0.2888   -0.4867 H   0  0  0  0  0  0  0  0  0  0  0  0
   -2.0100    1.4542   -0.1397 H   0  0  0  0  0  0  0  0  0  0  0  0
   -2.9979    1.5417   -2.4076 H   0  0  0  0  0  0  0  0  0  0  0  0
   -5.0488    0.2377   -2.9260 H   0  0  0  0  0  0  0  0  0  0  0  0
   -6.1097   -1.1625   -1.1726 H   0  0  0  0  0  0  0  0  0  0  0  0
   -5.1152   -1.2663    1.1077 H   0  0  0  0  0  0  0  0  0  0  0  0
  1 23  1  0  0  0  0
  2  1  1  0  0  0  0
  2  3  2  0  0  0  0
  3  4  1  0  0  0  0
  3 10  1  0  0  0  0
  4  5  2  0  0  0  0
  5  6  1  0  0  0  0
  5 24  1  0  0  0  0
  6 25  1  0  0  0  0
  7 26  1  0  0  0  0
  7  6  2  0  0  0  0
  8  7  1  0  0  0  0
  9  8  2  0  0  0  0
  9  4  1  0  0  0  0
 10 11  2  0  0  0  0
 12 11  1  0  0  0  0
 12 13  1  0  0  0  0
 14 12  1  0  0  0  0
 15 14  1  0  0  0  0
 15 16  2  0  0  0  0
 17 15  1  0  0  0  0
 18 29  1  0  0  0  0
 18 17  2  0  0  0  0
 19 18  1  0  0  0  0
 20 19  2  0  0  0  0
 20 21  1  0  0  0  0
 21 22  2  0  0  0  0
 22 17  1  0  0  0  0
 22 33  1  0  0  0  0
 23 14  2  0  0  0  0
 23 10  1  0  0  0  0
 27  8  1  0  0  0  0
 28  9  1  0  0  0  0
 30 19  1  0  0  0  0
 31 20  1  0  0  0  0
 32 21  1  0  0  0  0
M  END
$$$$
