rmsd240.gzmat
 OpenBabel08211713373D

 40 42  0  0  0  0  0  0  0  0999 V2000
    0.0000    0.0000    0.0000 C   0  0  0  0  0  0  0  0  0  0  0  0
    1.3922    0.0000    0.0000 C   0  0  0  0  0  0  0  0  0  0  0  0
    2.0855    0.0000    1.2141 C   0  0  0  0  0  0  0  0  0  0  0  0
    3.5394    0.0220    1.2223 C   0  0  0  0  0  0  0  0  0  0  0  0
    4.3926    0.7555    2.1464 C   0  0  0  0  0  0  0  0  0  0  0  0
    3.9814    1.6157    3.2337 C   0  0  0  0  0  0  0  0  0  0  0  0
    4.3345    1.2884    4.5458 C   0  0  0  0  0  0  0  0  0  0  0  0
    3.9548    2.1240    5.5922 C   0  0  0  0  0  0  0  0  0  0  0  0
    3.2233    3.2820    5.3316 C   0  0  0  0  0  0  0  0  0  0  0  0
    2.8682    3.6054    4.0226 C   0  0  0  0  0  0  0  0  0  0  0  0
    3.2453    2.7746    2.9710 C   0  0  0  0  0  0  0  0  0  0  0  0
    5.6701    0.4523    1.7384 C   0  0  0  0  0  0  0  0  0  0  0  0
    6.9567    0.8211    2.1453 N   0  0  0  0  0  0  0  0  0  0  0  0
    7.5170    0.0834    3.2442 C   0  0  0  0  0  0  0  0  0  0  0  0
    6.8109   -0.7434    3.7629 O   0  0  0  0  0  0  0  0  0  0  0  0
    8.9128    0.3840    3.6531 C   0  0  0  0  0  0  0  0  0  0  0  0
    7.5541    1.9567    1.5250 C   0  0  0  0  0  0  0  0  0  0  0  0
    8.6571    2.2976    1.8677 O   0  0  0  0  0  0  0  0  0  0  0  0
    6.7420    2.6498    0.4800 C   0  0  0  0  0  0  0  0  0  0  0  0
    5.6246   -0.4040    0.6412 O   0  0  0  0  0  0  0  0  0  0  0  0
    4.3073   -0.6367    0.3527 N   0  0  0  0  0  0  0  0  0  0  0  0
    1.3842   -0.0148    2.4240 C   0  0  0  0  0  0  0  0  0  0  0  0
   -0.0076   -0.0128    2.4169 C   0  0  0  0  0  0  0  0  0  0  0  0
   -0.6994   -0.0042    1.2060 C   0  0  0  0  0  0  0  0  0  0  0  0
   -0.5419    0.0005   -0.9432 H   0  0  0  0  0  0  0  0  0  0  0  0
    1.9445   -0.0049   -0.9403 H   0  0  0  0  0  0  0  0  0  0  0  0
    4.9028    0.3759    4.7427 H   0  0  0  0  0  0  0  0  0  0  0  0
    4.2310    1.8703    6.6140 H   0  0  0  0  0  0  0  0  0  0  0  0
    2.9282    3.9339    6.1506 H   0  0  0  0  0  0  0  0  0  0  0  0
    2.2944    4.5077    3.8212 H   0  0  0  0  0  0  0  0  0  0  0  0
    2.9636    3.0209    1.9494 H   0  0  0  0  0  0  0  0  0  0  0  0
    9.0283    1.4255    4.0050 H   0  0  0  0  0  0  0  0  0  0  0  0
    9.6271    0.2709    2.8190 H   0  0  0  0  0  0  0  0  0  0  0  0
    9.2330   -0.2848    4.4688 H   0  0  0  0  0  0  0  0  0  0  0  0
    6.5120    1.9930   -0.3745 H   0  0  0  0  0  0  0  0  0  0  0  0
    7.2884    3.5216    0.0813 H   0  0  0  0  0  0  0  0  0  0  0  0
    5.7837    3.0225    0.8791 H   0  0  0  0  0  0  0  0  0  0  0  0
    1.9288   -0.0291    3.3698 H   0  0  0  0  0  0  0  0  0  0  0  0
   -0.5536   -0.0197    3.3582 H   0  0  0  0  0  0  0  0  0  0  0  0
   -1.7879   -0.0058    1.2014 H   0  0  0  0  0  0  0  0  0  0  0  0
  1 24  1  0  0  0  0
  2  1  2  0  0  0  0
  2  3  1  0  0  0  0
  3  4  1  0  0  0  0
  3 22  2  0  0  0  0
  4  5  1  0  0  0  0
  5  6  1  0  0  0  0
  6  7  1  0  0  0  0
  7 27  1  0  0  0  0
  7  8  2  0  0  0  0
  8 28  1  0  0  0  0
  9  8  1  0  0  0  0
  9 29  1  0  0  0  0
 10  9  2  0  0  0  0
 11  6  2  0  0  0  0
 11 10  1  0  0  0  0
 12 13  1  0  0  0  0
 12  5  2  0  0  0  0
 13 14  1  0  0  0  0
 14 16  1  0  0  0  0
 14 15  2  0  0  0  0
 16 32  1  0  0  0  0
 16 34  1  0  0  0  0
 17 18  2  0  0  0  0
 17 13  1  0  0  0  0
 19 37  1  0  0  0  0
 19 17  1  0  0  0  0
 20 12  1  0  0  0  0
 21 20  1  0  0  0  0
 21  4  2  0  0  0  0
 22 38  1  0  0  0  0
 23 22  1  0  0  0  0
 23 39  1  0  0  0  0
 24 23  2  0  0  0  0
 25  1  1  0  0  0  0
 26  2  1  0  0  0  0
 30 10  1  0  0  0  0
 31 11  1  0  0  0  0
 33 16  1  0  0  0  0
 35 19  1  0  0  0  0
 36 19  1  0  0  0  0
 40 24  1  0  0  0  0
M  END
$$$$
