rmsd236.gzmat
 OpenBabel08211713373D

 40 42  0  0  0  0  0  0  0  0999 V2000
    0.0000    0.0000    0.0000 C   0  0  0  0  0  0  0  0  0  0  0  0
    1.3925    0.0000    0.0000 C   0  0  0  0  0  0  0  0  0  0  0  0
    2.0855    0.0000    1.2144 C   0  0  0  0  0  0  0  0  0  0  0  0
    3.5394    0.0305    1.2265 C   0  0  0  0  0  0  0  0  0  0  0  0
    4.3839    0.7756    2.1512 C   0  0  0  0  0  0  0  0  0  0  0  0
    3.9515    1.6482    3.2208 C   0  0  0  0  0  0  0  0  0  0  0  0
    4.2529    1.3263    4.5468 C   0  0  0  0  0  0  0  0  0  0  0  0
    3.8552    2.1794    5.5725 C   0  0  0  0  0  0  0  0  0  0  0  0
    3.1536    3.3476    5.2778 C   0  0  0  0  0  0  0  0  0  0  0  0
    2.8444    3.6629    3.9552 C   0  0  0  0  0  0  0  0  0  0  0  0
    3.2409    2.8153    2.9244 C   0  0  0  0  0  0  0  0  0  0  0  0
    5.6653    0.4742    1.7556 C   0  0  0  0  0  0  0  0  0  0  0  0
    6.9479    0.8435    2.1740 N   0  0  0  0  0  0  0  0  0  0  0  0
    7.4479    0.1981    3.3570 C   0  0  0  0  0  0  0  0  0  0  0  0
    6.7263   -0.6091    3.8853 O   0  0  0  0  0  0  0  0  0  0  0  0
    8.8036    0.5643    3.8424 C   0  0  0  0  0  0  0  0  0  0  0  0
    7.6263    1.8619    1.4438 C   0  0  0  0  0  0  0  0  0  0  0  0
    8.7260    2.2012    1.7991 O   0  0  0  0  0  0  0  0  0  0  0  0
    6.9022    2.4435    0.2739 C   0  0  0  0  0  0  0  0  0  0  0  0
    5.6298   -0.3912    0.6638 O   0  0  0  0  0  0  0  0  0  0  0  0
    4.3151   -0.6288    0.3653 N   0  0  0  0  0  0  0  0  0  0  0  0
    1.3841   -0.0221    2.4241 C   0  0  0  0  0  0  0  0  0  0  0  0
   -0.0075   -0.0234    2.4167 C   0  0  0  0  0  0  0  0  0  0  0  0
   -0.6989   -0.0072    1.2062 C   0  0  0  0  0  0  0  0  0  0  0  0
   -0.5425    0.0040   -0.9431 H   0  0  0  0  0  0  0  0  0  0  0  0
    1.9439   -0.0053   -0.9406 H   0  0  0  0  0  0  0  0  0  0  0  0
    4.7958    0.4049    4.7719 H   0  0  0  0  0  0  0  0  0  0  0  0
    4.0949    1.9315    6.6050 H   0  0  0  0  0  0  0  0  0  0  0  0
    2.8479    4.0146    6.0810 H   0  0  0  0  0  0  0  0  0  0  0  0
    2.2943    4.5736    3.7271 H   0  0  0  0  0  0  0  0  0  0  0  0
    2.9972    3.0549    1.8913 H   0  0  0  0  0  0  0  0  0  0  0  0
    8.8756    1.6337    4.1104 H   0  0  0  0  0  0  0  0  0  0  0  0
    9.5837    0.3960    3.0789 H   0  0  0  0  0  0  0  0  0  0  0  0
    9.0709   -0.0276    4.7332 H   0  0  0  0  0  0  0  0  0  0  0  0
    6.6797    1.6893   -0.4988 H   0  0  0  0  0  0  0  0  0  0  0  0
    7.5136    3.2264   -0.2074 H   0  0  0  0  0  0  0  0  0  0  0  0
    5.9479    2.9105    0.5653 H   0  0  0  0  0  0  0  0  0  0  0  0
    1.9278   -0.0376    3.3704 H   0  0  0  0  0  0  0  0  0  0  0  0
   -0.5542   -0.0357    3.3578 H   0  0  0  0  0  0  0  0  0  0  0  0
   -1.7871   -0.0035    1.2034 H   0  0  0  0  0  0  0  0  0  0  0  0
  1 24  1  0  0  0  0
  2  1  2  0  0  0  0
  2  3  1  0  0  0  0
  3  4  1  0  0  0  0
  3 22  2  0  0  0  0
  4  5  1  0  0  0  0
  5  6  1  0  0  0  0
  6  7  1  0  0  0  0
  7 27  1  0  0  0  0
  7  8  2  0  0  0  0
  8 28  1  0  0  0  0
  9  8  1  0  0  0  0
  9 29  1  0  0  0  0
 10  9  2  0  0  0  0
 11  6  2  0  0  0  0
 11 10  1  0  0  0  0
 12  5  2  0  0  0  0
 12 13  1  0  0  0  0
 13 14  1  0  0  0  0
 14 16  1  0  0  0  0
 14 15  2  0  0  0  0
 16 32  1  0  0  0  0
 16 34  1  0  0  0  0
 17 18  2  0  0  0  0
 17 13  1  0  0  0  0
 19 37  1  0  0  0  0
 19 17  1  0  0  0  0
 20 12  1  0  0  0  0
 21 20  1  0  0  0  0
 21  4  2  0  0  0  0
 22 38  1  0  0  0  0
 23 22  1  0  0  0  0
 23 39  1  0  0  0  0
 24 23  2  0  0  0  0
 25  1  1  0  0  0  0
 26  2  1  0  0  0  0
 30 10  1  0  0  0  0
 31 11  1  0  0  0  0
 33 16  1  0  0  0  0
 35 19  1  0  0  0  0
 36 19  1  0  0  0  0
 40 24  1  0  0  0  0
M  END
$$$$
