40
rmsd165.gzmat
C          0.00000        0.00000        0.00000
C          1.39260        0.00000        0.00000
C          2.08450        0.00000        1.21400
C          3.53890       -0.03360        1.22690
C          4.37150       -0.88250        2.07170
C          3.89480       -1.85650        3.02870
C          3.11760       -2.93320        2.58920
C          2.64070       -3.86260        3.50880
C          2.93630       -3.71990        4.86430
C          3.71120       -2.64690        5.30100
C          4.19270       -1.71390        4.38640
C          5.65730       -0.55070        1.71870
N          6.94000       -0.96750        2.08790
C          7.64500       -1.83430        1.20260
O          8.76940       -2.16500        1.48030
C          6.91390       -2.28140       -0.02070
C          7.43670       -0.48440        3.34690
O          6.71150        0.24190        3.97800
C          8.79040       -0.91330        3.78340
O          5.63370        0.43010        0.72690
N          4.32290        0.70890        0.44690
C          1.38400        0.01600        2.42390
C         -0.00770        0.01580        2.41640
C         -0.69920        0.00340        1.20610
H         -0.54200       -0.00070       -0.94330
H          1.94640        0.00210       -0.93870
H          2.88230       -3.03640        1.53180
H          2.03420       -4.69930        3.16890
H          2.55910       -4.44600        5.58090
H          3.93850       -2.53250        6.35910
H          4.79270       -0.86640        4.72570
H          6.66030       -1.44160       -0.68850
H          5.97470       -2.80400        0.22240
H          7.53530       -2.98090       -0.60600
H          8.87190       -2.01070        3.87600
H          9.04200       -0.47160        4.76150
H          9.57650       -0.61610        3.06600
H          1.92960        0.02580        3.36860
H         -0.55400        0.02440        3.35780
H         -1.78740       -0.00110        1.20310
