rmsd165.gzmat
 OpenBabel08211713373D

 40 42  0  0  0  0  0  0  0  0999 V2000
    0.0000    0.0000    0.0000 C   0  0  0  0  0  0  0  0  0  0  0  0
    1.3926    0.0000    0.0000 C   0  0  0  0  0  0  0  0  0  0  0  0
    2.0845    0.0000    1.2140 C   0  0  0  0  0  0  0  0  0  0  0  0
    3.5389   -0.0336    1.2269 C   0  0  0  0  0  0  0  0  0  0  0  0
    4.3715   -0.8825    2.0717 C   0  0  0  0  0  0  0  0  0  0  0  0
    3.8948   -1.8565    3.0287 C   0  0  0  0  0  0  0  0  0  0  0  0
    3.1176   -2.9332    2.5892 C   0  0  0  0  0  0  0  0  0  0  0  0
    2.6407   -3.8626    3.5088 C   0  0  0  0  0  0  0  0  0  0  0  0
    2.9363   -3.7199    4.8643 C   0  0  0  0  0  0  0  0  0  0  0  0
    3.7112   -2.6469    5.3010 C   0  0  0  0  0  0  0  0  0  0  0  0
    4.1927   -1.7139    4.3864 C   0  0  0  0  0  0  0  0  0  0  0  0
    5.6573   -0.5507    1.7187 C   0  0  0  0  0  0  0  0  0  0  0  0
    6.9400   -0.9675    2.0879 N   0  0  0  0  0  0  0  0  0  0  0  0
    7.6450   -1.8343    1.2026 C   0  0  0  0  0  0  0  0  0  0  0  0
    8.7694   -2.1650    1.4803 O   0  0  0  0  0  0  0  0  0  0  0  0
    6.9139   -2.2814   -0.0207 C   0  0  0  0  0  0  0  0  0  0  0  0
    7.4367   -0.4844    3.3469 C   0  0  0  0  0  0  0  0  0  0  0  0
    6.7115    0.2419    3.9780 O   0  0  0  0  0  0  0  0  0  0  0  0
    8.7904   -0.9133    3.7834 C   0  0  0  0  0  0  0  0  0  0  0  0
    5.6337    0.4301    0.7269 O   0  0  0  0  0  0  0  0  0  0  0  0
    4.3229    0.7089    0.4469 N   0  0  0  0  0  0  0  0  0  0  0  0
    1.3840    0.0160    2.4239 C   0  0  0  0  0  0  0  0  0  0  0  0
   -0.0077    0.0158    2.4164 C   0  0  0  0  0  0  0  0  0  0  0  0
   -0.6992    0.0034    1.2061 C   0  0  0  0  0  0  0  0  0  0  0  0
   -0.5420   -0.0007   -0.9433 H   0  0  0  0  0  0  0  0  0  0  0  0
    1.9464    0.0021   -0.9387 H   0  0  0  0  0  0  0  0  0  0  0  0
    2.8823   -3.0364    1.5318 H   0  0  0  0  0  0  0  0  0  0  0  0
    2.0342   -4.6993    3.1689 H   0  0  0  0  0  0  0  0  0  0  0  0
    2.5591   -4.4460    5.5809 H   0  0  0  0  0  0  0  0  0  0  0  0
    3.9385   -2.5325    6.3591 H   0  0  0  0  0  0  0  0  0  0  0  0
    4.7927   -0.8664    4.7257 H   0  0  0  0  0  0  0  0  0  0  0  0
    6.6603   -1.4416   -0.6885 H   0  0  0  0  0  0  0  0  0  0  0  0
    5.9747   -2.8040    0.2224 H   0  0  0  0  0  0  0  0  0  0  0  0
    7.5353   -2.9809   -0.6060 H   0  0  0  0  0  0  0  0  0  0  0  0
    8.8719   -2.0107    3.8760 H   0  0  0  0  0  0  0  0  0  0  0  0
    9.0420   -0.4716    4.7615 H   0  0  0  0  0  0  0  0  0  0  0  0
    9.5765   -0.6161    3.0660 H   0  0  0  0  0  0  0  0  0  0  0  0
    1.9296    0.0258    3.3686 H   0  0  0  0  0  0  0  0  0  0  0  0
   -0.5540    0.0244    3.3578 H   0  0  0  0  0  0  0  0  0  0  0  0
   -1.7874   -0.0011    1.2031 H   0  0  0  0  0  0  0  0  0  0  0  0
  1 24  1  0  0  0  0
  2  1  2  0  0  0  0
  2  3  1  0  0  0  0
  3  4  1  0  0  0  0
  3 22  2  0  0  0  0
  4  5  1  0  0  0  0
  5  6  1  0  0  0  0
  6 11  1  0  0  0  0
  7  6  2  0  0  0  0
  7  8  1  0  0  0  0
  8  9  2  0  0  0  0
  9 10  1  0  0  0  0
  9 29  1  0  0  0  0
 10 30  1  0  0  0  0
 11 31  1  0  0  0  0
 11 10  2  0  0  0  0
 12  5  2  0  0  0  0
 12 13  1  0  0  0  0
 13 17  1  0  0  0  0
 14 15  2  0  0  0  0
 14 13  1  0  0  0  0
 16 33  1  0  0  0  0
 16 14  1  0  0  0  0
 17 19  1  0  0  0  0
 17 18  2  0  0  0  0
 19 35  1  0  0  0  0
 19 36  1  0  0  0  0
 20 12  1  0  0  0  0
 21 20  1  0  0  0  0
 21  4  2  0  0  0  0
 22 38  1  0  0  0  0
 23 22  1  0  0  0  0
 23 39  1  0  0  0  0
 24 23  2  0  0  0  0
 25  1  1  0  0  0  0
 26  2  1  0  0  0  0
 27  7  1  0  0  0  0
 28  8  1  0  0  0  0
 32 16  1  0  0  0  0
 34 16  1  0  0  0  0
 37 19  1  0  0  0  0
 40 24  1  0  0  0  0
M  END
$$$$
