40
rmsd152.gzmat
C          0.00000        0.00000        0.00000
C          1.39250        0.00000        0.00000
C          2.08680        0.00000        1.21390
C          3.54120        0.02900        1.22470
C          4.39020        0.74380        2.16790
C          3.97210        1.57500        3.27480
C          4.32720        1.22140        4.57960
C          3.93830        2.02950        5.64410
C          3.19910        3.18760        5.40820
C          2.84290        3.53780        4.10630
C          3.22420        2.73220        3.03710
C          5.67000        0.45860        1.75370
N          6.95250        0.82770        2.17350
C          7.56720        1.94780        1.54280
O          8.67200        2.27970        1.88910
C          6.77080        2.63890        0.48480
C          7.49980        0.09340        3.28070
O          6.81120       -0.77650        3.75090
C          8.85620        0.45480        3.76750
O          5.63000       -0.37080        0.63610
N          4.31420       -0.60280        0.33990
C          1.38430       -0.02030        2.42290
C         -0.00730       -0.01500        2.41590
C         -0.69940       -0.00080        1.20610
H         -0.54270       -0.00200       -0.94340
H          1.94440       -0.00570       -0.94060
H          4.90260        0.30990        4.75780
H          4.21270        1.75300        6.66040
H          2.89810        3.81900        6.24080
H          2.26580        4.44200        3.92460
H          2.93830        2.99620        2.02080
H          5.82030        3.03760        0.87640
H          6.52560        1.97390       -0.35920
H          7.33690        3.49180        0.07230
H          9.62230        0.38030        2.97530
H          9.16130       -0.20680        4.59490
H          8.90530        1.49720        4.13040
H          1.92830       -0.04070        3.36880
H         -0.55340       -0.02250        3.35750
H         -1.78780        0.00460        1.20320
