40
rmsd240.gzmat
C          0.00000        0.00000        0.00000
C          1.39220        0.00000        0.00000
C          2.08550        0.00000        1.21410
C          3.53940        0.02200        1.22230
C          4.39260        0.75550        2.14640
C          3.98140        1.61570        3.23370
C          4.33450        1.28840        4.54580
C          3.95480        2.12400        5.59220
C          3.22330        3.28200        5.33160
C          2.86820        3.60540        4.02260
C          3.24530        2.77460        2.97100
C          5.67010        0.45230        1.73840
N          6.95670        0.82110        2.14530
C          7.51700        0.08340        3.24420
O          6.81090       -0.74340        3.76290
C          8.91280        0.38400        3.65310
C          7.55410        1.95670        1.52500
O          8.65710        2.29760        1.86770
C          6.74200        2.64980        0.48000
O          5.62460       -0.40400        0.64120
N          4.30730       -0.63670        0.35270
C          1.38420       -0.01480        2.42400
C         -0.00760       -0.01280        2.41690
C         -0.69940       -0.00420        1.20600
H         -0.54190        0.00050       -0.94320
H          1.94450       -0.00490       -0.94030
H          4.90280        0.37590        4.74270
H          4.23100        1.87030        6.61400
H          2.92820        3.93390        6.15060
H          2.29440        4.50770        3.82120
H          2.96360        3.02090        1.94940
H          9.02830        1.42550        4.00500
H          9.62710        0.27090        2.81900
H          9.23300       -0.28480        4.46880
H          6.51200        1.99300       -0.37450
H          7.28840        3.52160        0.08130
H          5.78370        3.02250        0.87910
H          1.92880       -0.02910        3.36980
H         -0.55360       -0.01970        3.35820
H         -1.78790       -0.00580        1.20140
