40
rmsd248.gzmat
C          0.00000        0.00000        0.00000
C          1.39250        0.00000        0.00000
C          2.08760        0.00000        1.21320
C          3.54220        0.02040        1.21940
C          4.39860        0.77320        2.12640
C          3.97910        1.65910        3.18970
C          4.31480        1.36710        4.51440
C          3.90860        2.22350        5.53420
C          3.16800        3.36600        5.23450
C          2.83540        3.65710        3.91190
C          3.23850        2.80550        2.88720
C          5.67500        0.46070        1.72260
N          6.96250        0.83350        2.12180
C          7.49330        0.16150        3.27560
O          6.78570       -0.65790        3.80390
C          8.85920        0.52270        3.73400
C          7.60550        1.89070        1.41520
O          8.72010        2.21490        1.73610
C          6.82430        2.53410        0.31630
O          5.62600       -0.42030        0.64470
N          4.30780       -0.65650        0.36240
C          1.38630       -0.01370        2.42310
C         -0.00570       -0.01200        2.41610
C         -0.69890       -0.00230        1.20610
H         -0.54190       -0.00110       -0.94350
H          1.94340       -0.00530       -0.94080
H          4.88580        0.46400        4.74230
H          4.16860        1.99660        6.56640
H          2.84710        4.03120        6.03320
H          2.25840        4.54960        3.67920
H          2.97370        3.02350        1.85460
H          8.93620        1.58900        4.01290
H          9.61980        0.36470        2.94890
H          9.14770       -0.07850        4.61140
H          6.52500        1.81910       -0.46730
H          7.42620        3.31990       -0.17250
H          5.90580        3.01480        0.69140
H          1.93030       -0.02560        3.36890
H         -0.55230       -0.01910        3.35730
H         -1.78730        0.00020        1.20390
