46

S         -0.60650        0.62830        0.28080
O          0.80090        1.01210        0.16820
O         -1.51340        0.62010       -0.87110
N         -1.26850        1.63310        1.46710
C         -0.68600       -0.99110        1.02710
C         -1.64160       -1.90210        0.58410
C         -1.68740       -3.17080        1.15930
C         -0.78740       -3.52330        2.17700
O         -0.80270       -4.75360        2.75310
C         -1.69300       -5.75330        2.29660
C          0.18670       -2.59380        2.62770
C          0.22380       -1.33480        2.02440
C          1.24130       -2.82310        3.69580
O          2.12480       -1.99280        3.86710
N          1.13130       -3.95230        4.44040
C          2.14090       -4.36270        5.38920
C          3.01410       -5.49700        4.83860
H          3.57800       -5.09310        3.97850
N          2.18850       -6.64280        4.40400
C          2.58880       -7.82900        5.16780
C          4.02970       -7.55950        5.61870
C          3.99330       -6.05280        5.89640
C          2.04570       -6.82090        2.96370
C          3.30000       -7.25790        2.19540
H         -2.19130        1.95940        1.18140
H         -0.62770        2.40680        1.64430
H         -2.33110       -1.61850       -0.21200
H         -2.42870       -3.88550        0.80550
H         -1.47580       -6.64810        2.89340
H         -1.52920       -5.97880        1.22970
H         -2.74450       -5.45820        2.45040
H          0.99760       -0.64180        2.35710
H          0.43130       -4.63610        4.17670
H          1.64520       -4.71300        6.31070
H          2.75450       -3.48470        5.63350
H          1.93680       -7.95840        6.05310
H          2.48500       -8.74190        4.56110
H          4.33570       -8.15650        6.49160
H          4.72920       -7.78010        4.79610
H          3.59250       -5.86830        6.90810
H          4.98020       -5.57070        5.84420
H          1.67340       -5.87310        2.54610
H          1.24110       -7.55760        2.79010
H          4.12110       -6.53350        2.31470
H          3.08340       -7.33850        1.11790
H          3.66470       -8.24050        2.53470
