46

S          0.48230       -0.66860       -0.43800
O          1.92760       -0.76540       -0.21260
O         -0.14750       -1.08570       -1.69090
N          0.02070        0.93760       -0.19330
C         -0.31990       -1.53370        0.90190
C          0.43680       -1.96810        1.98690
C         -0.19520       -2.65130        3.02420
C         -1.57600       -2.90080        2.97670
O         -2.21760       -3.56290        3.97630
C         -1.49880       -4.01680        5.10780
C         -2.34560       -2.46210        1.86720
C         -1.68860       -1.78230        0.83850
C         -3.83840       -2.64110        1.65650
O         -4.37830       -2.13130        0.68100
N         -4.51470       -3.38230        2.56880
C         -5.94190       -3.62110        2.47960
C         -6.78000       -2.67030        3.35530
H         -6.31950       -2.65780        4.36430
N         -8.16960       -3.13040        3.39740
C         -9.08200       -2.06920        3.00130
C         -8.22100       -1.19880        2.08810
C         -6.86100       -1.23240        2.79860
C         -8.56810       -4.01820        4.46760
C         -8.66730       -3.38560        5.86410
H         -0.39270        1.30310       -1.05110
H          0.81840        1.49290        0.11450
H          1.51080       -1.77880        2.00870
H          0.39950       -2.99260        3.86970
H         -2.23160       -4.50680        5.76120
H         -1.03280       -3.17790        5.65130
H         -0.72060       -4.74540        4.82540
H         -2.29030       -1.45990       -0.01210
H         -3.99530       -3.73010        3.36600
H         -6.14690       -4.66010        2.78440
H         -6.24420       -3.51360        1.42960
H         -9.97200       -2.48440        2.49620
H         -9.45010       -1.46540        3.86100
H         -8.14250       -1.66010        1.09070
H         -8.61880       -0.18140        1.95970
H         -6.02310       -0.98950        2.13210
H         -6.86050       -0.51210        3.63280
H         -7.85610       -4.86170        4.50130
H         -9.54300       -4.46370        4.20040
H         -7.70450       -2.95150        6.17910
H         -8.95520       -4.14030        6.61370
H         -9.42130       -2.58340        5.89310
