
     RDKit          3D

 46 47  0  0  0  0  0  0  0  0999 V2000
   -1.1695    0.4618    0.5206 S   0  0  0  0  0  0  0  0  0  0  0  0
    0.2372    0.7329    0.2118 O   0  0  0  0  0  0  0  0  0  0  0  0
   -2.1984    0.4412   -0.5240 O   0  0  0  0  0  0  0  0  0  0  0  0
   -1.7407    1.5877    1.6522 N   0  0  0  0  0  0  0  0  0  0  0  0
   -1.2393   -1.0650    1.4281 C   0  0  0  0  0  0  0  0  0  0  0  0
   -0.0744   -1.6684    1.8922 C   0  0  0  0  0  0  0  0  0  0  0  0
   -0.1621   -2.8764    2.5870 C   0  0  0  0  0  0  0  0  0  0  0  0
   -1.4095   -3.4884    2.8053 C   0  0  0  0  0  0  0  0  0  0  0  0
   -1.5656   -4.6312    3.4883 O   0  0  0  0  0  0  0  0  0  0  0  0
   -0.4348   -5.3252    3.9687 C   0  0  0  0  0  0  0  0  0  0  0  0
   -2.5898   -2.8767    2.3074 C   0  0  0  0  0  0  0  0  0  0  0  0
   -2.4838   -1.6648    1.6318 C   0  0  0  0  0  0  0  0  0  0  0  0
   -3.9386   -3.5540    2.3789 C   0  0  0  0  0  0  0  0  0  0  0  0
   -4.0931   -4.7376    2.1354 O   0  0  0  0  0  0  0  0  0  0  0  0
   -4.9626   -2.6978    2.6782 N   0  0  0  0  0  0  0  0  0  0  0  0
   -6.3325   -2.9722    2.3099 C   0  0  0  0  0  0  0  0  0  0  0  0
   -6.7115   -2.1772    1.0438 C   0  0  2  0  0  0  0  0  0  0  0  0
   -6.1386   -2.6002    0.2042 H   0  0  0  0  0  0  0  0  0  0  0  0
   -6.3345   -0.7662    1.2153 N   0  0  0  0  0  0  0  0  0  0  0  0
   -7.5072   -0.1058    1.7901 C   0  0  0  0  0  0  0  0  0  0  0  0
   -8.7518   -0.8079    1.1968 C   0  0  0  0  0  0  0  0  0  0  0  0
   -8.2413   -2.2099    0.7811 C   0  0  0  0  0  0  0  0  0  0  0  0
   -5.7175   -0.1090    0.0638 C   0  0  0  0  0  0  0  0  0  0  0  0
   -6.5800    0.0851   -1.1885 C   0  0  0  0  0  0  0  0  0  0  0  0
   -2.2716    2.2974    1.1444 H   0  0  0  0  0  0  0  0  0  0  0  0
   -0.9620    2.0102    2.1595 H   0  0  0  0  0  0  0  0  0  0  0  0
    0.8913   -1.1974    1.7029 H   0  0  0  0  0  0  0  0  0  0  0  0
    0.7512   -3.3403    2.9565 H   0  0  0  0  0  0  0  0  0  0  0  0
   -0.8150   -6.2319    4.4557 H   0  0  0  0  0  0  0  0  0  0  0  0
    0.1287   -4.7267    4.7061 H   0  0  0  0  0  0  0  0  0  0  0  0
    0.2423   -5.6141    3.1462 H   0  0  0  0  0  0  0  0  0  0  0  0
   -3.3754   -1.1846    1.2299 H   0  0  0  0  0  0  0  0  0  0  0  0
   -4.7563   -1.7047    2.7216 H   0  0  0  0  0  0  0  0  0  0  0  0
   -7.0060   -2.7010    3.1414 H   0  0  0  0  0  0  0  0  0  0  0  0
   -6.4320   -4.0522    2.1357 H   0  0  0  0  0  0  0  0  0  0  0  0
   -7.4979   -0.2268    2.8880 H   0  0  0  0  0  0  0  0  0  0  0  0
   -7.4789    0.9758    1.5908 H   0  0  0  0  0  0  0  0  0  0  0  0
   -9.5785   -0.8562    1.9214 H   0  0  0  0  0  0  0  0  0  0  0  0
   -9.1235   -0.2589    0.3193 H   0  0  0  0  0  0  0  0  0  0  0  0
   -8.7230   -3.0150    1.3580 H   0  0  0  0  0  0  0  0  0  0  0  0
   -8.4522   -2.4093   -0.2791 H   0  0  0  0  0  0  0  0  0  0  0  0
   -4.8184   -0.6816   -0.2122 H   0  0  0  0  0  0  0  0  0  0  0  0
   -5.3405    0.8704    0.4030 H   0  0  0  0  0  0  0  0  0  0  0  0
   -6.9509   -0.8757   -1.5795 H   0  0  0  0  0  0  0  0  0  0  0  0
   -5.9838    0.5596   -1.9840 H   0  0  0  0  0  0  0  0  0  0  0  0
   -7.4501    0.7317   -0.9942 H   0  0  0  0  0  0  0  0  0  0  0  0
  1  2  2  0
  1  3  2  0
  1  4  1  0
  1  5  1  0
  4 25  1  0
  4 26  1  0
  5  6  2  0
  5 12  1  0
  6  7  1  0
  6 27  1  0
  7  8  2  0
  7 28  1  0
  8  9  1  0
  8 11  1  0
  9 10  1  0
 10 29  1  0
 10 30  1  0
 10 31  1  0
 11 12  2  0
 11 13  1  0
 12 32  1  0
 13 14  2  0
 13 15  1  0
 15 16  1  0
 15 33  1  0
 16 17  1  0
 16 34  1  0
 16 35  1  0
 17 18  1  6
 17 19  1  0
 17 22  1  0
 19 20  1  0
 19 23  1  0
 20 21  1  0
 20 36  1  0
 20 37  1  0
 21 22  1  0
 21 38  1  0
 21 39  1  0
 22 40  1  0
 22 41  1  0
 23 24  1  0
 23 42  1  0
 23 43  1  0
 24 44  1  0
 24 45  1  0
 24 46  1  0
M  END

