46
rmsd118.gzmat
S          0.00000        0.00000        0.00000
O          1.44610        0.00000        0.00000
O         -0.77050        0.00000       -1.21880
N         -0.46110        1.44870        0.84590
C         -0.54640       -1.28790        1.04890
C          0.35250       -1.87030        1.94460
C         -0.06190       -2.88820        2.79500
C         -1.39440       -3.31230        2.75000
O         -1.90650       -4.28660        3.53610
C         -1.04110       -4.93550        4.45960
C         -2.31420       -2.73670        1.85620
C         -1.86570       -1.73320        0.99410
C         -3.74570       -3.11810        1.72140
O         -4.34900       -2.92790        0.67880
N         -4.38920       -3.63200        2.82210
C         -5.81580       -3.95660        2.76350
C         -6.64990       -2.83670        3.45350
H         -6.12740       -2.50620        4.37820
N         -7.96750       -3.44740        3.76410
C         -8.88130       -3.08320        2.65210
C         -8.29080       -1.86690        1.90060
C         -6.89130       -1.64550        2.49620
C         -8.48500       -3.09730        5.09950
C         -8.69660       -1.60260        5.37690
H         -1.15360        2.02980        0.40330
H          0.28730        2.01130        1.21260
H          1.39970       -1.53880        1.98460
H          0.64770       -3.33990        3.47900
H         -1.71320       -5.67520        4.91970
H         -0.67060       -4.22830        5.20810
H         -0.22130       -5.44000        3.93760
H         -2.58270       -1.31410        0.26440
H         -3.90220       -3.82750        3.67780
H         -5.99720       -4.93030        3.27080
H         -6.14610       -4.07980        1.70530
H         -8.92910       -3.97020        1.98260
H         -9.90920       -2.89040        3.00580
H         -8.23280       -2.06530        0.81730
H         -8.92330       -0.97470        2.01930
H         -6.11880       -1.60140        1.70660
H         -6.83390       -0.68970        3.03870
H         -7.78050       -3.52630        5.84760
H         -9.44570       -3.64560        5.23280
H         -7.75180       -1.04990        5.35460
H         -9.15170       -1.44560        6.35940
H         -9.35470       -1.14700        4.62860
