46

S          0.31490       -1.08400       -0.30630
O          1.68020       -1.60060       -0.20730
O         -0.50080       -1.24620       -1.51390
N          0.41640        0.56520        0.04630
C         -0.63010       -1.73560        1.06050
C         -1.95690       -2.10730        0.85910
C         -2.68410       -2.63150        1.92630
C         -2.08950       -2.77570        3.18950
O         -2.76970       -3.28910        4.24760
C         -4.09400       -3.76140        4.09380
C         -0.73660       -2.39650        3.39370
C         -0.02360       -1.88960        2.30510
C          0.05760       -2.50820        4.68310
O          1.26420       -2.29980        4.67490
N         -0.63350       -2.81600        5.80970
C          0.01440       -3.09480        7.07080
C          0.06030       -4.59870        7.36810
H          0.70830       -5.06710        6.60560
N         -1.29080       -5.19450        7.31300
C         -1.59560       -5.79280        8.61680
C         -0.23540       -6.09350        9.25820
C          0.60460       -4.90360        8.78150
C         -1.58250       -6.01470        6.14290
C         -0.83720       -7.35160        6.03540
H         -0.17390        1.10150       -0.58890
H          1.39270        0.85680       -0.00160
H         -2.40570       -1.99630       -0.12880
H         -3.71850       -2.93070        1.76540
H         -4.39150       -4.15400        5.07420
H         -4.14640       -4.57060        3.34650
H         -4.78090       -2.94940        3.80190
H          1.02390       -1.63250        2.46760
H         -1.61080       -3.06890        5.72020
H         -0.54310       -2.59080        7.87880
H          1.02940       -2.67610        7.03150
H         -2.15850       -5.07910        9.24870
H         -2.23080       -6.68470        8.50240
H         -0.27760       -6.18600       10.35450
H          0.17150       -7.03500        8.85490
H          0.43340       -4.03590        9.44170
H          1.68640       -5.10100        8.77720
H         -1.37340       -5.40690        5.24950
H         -2.67050       -6.20520        6.12370
H          0.25450       -7.20660        6.01990
H         -1.11520       -7.87420        5.10580
H         -1.07690       -8.02120        6.87660
