rmsd232.gzmat
 OpenBabel08211713403D

 46 47  0  0  1  0  0  0  0  0999 V2000
    0.0000    0.0000    0.0000 S   0  0  0  0  0  0  0  0  0  0  0  0
    1.4421    0.0000    0.0000 O   0  0  0  0  0  0  0  0  0  0  0  0
   -0.7714    0.0000   -1.2236 O   0  0  0  0  0  0  0  0  0  0  0  0
   -0.4634    1.4546    0.8365 N   0  0  0  0  0  0  0  0  0  0  0  0
   -0.6007   -1.2851    1.0212 C   0  0  0  0  0  0  0  0  0  0  0  0
   -1.8145   -1.8987    0.7056 C   0  0  0  0  0  0  0  0  0  0  0  0
   -2.3279   -2.9078    1.5127 C   0  0  0  0  0  0  0  0  0  0  0  0
   -1.6182   -3.2861    2.6569 C   0  0  0  0  0  0  0  0  0  0  0  0
   -2.0160   -4.2380    3.5315 O   0  0  0  0  0  0  0  0  0  0  0  0
   -3.2452   -4.9064    3.2734 C   0  0  0  0  0  0  0  0  0  0  0  0
   -0.3940   -2.6789    2.9858 C   0  0  0  0  0  0  0  0  0  0  0  0
    0.1191   -1.6946    2.1437 C   0  0  0  0  0  0  0  0  0  0  0  0
    0.4159   -3.0436    4.1789 C   0  0  0  0  0  0  0  0  0  0  0  0
    1.6308   -3.1124    4.1301 O   0  0  0  0  0  0  0  0  0  0  0  0
   -0.2618   -3.1750    5.3693 N   0  0  0  0  0  0  0  0  0  0  0  0
    0.4514   -3.5865    6.5811 C   0  0  0  0  0  0  0  0  0  0  0  0
    0.0198   -5.0198    7.0012 C   0  0  2  0  0  0  0  0  0  0  0  0
    0.2489   -5.7221    6.1668 H   0  0  0  0  0  0  0  0  0  0  0  0
   -1.4383   -4.9838    7.2859 N   0  0  0  0  0  0  0  0  0  0  0  0
   -1.5845   -4.8005    8.7506 C   0  0  0  0  0  0  0  0  0  0  0  0
   -0.2666   -5.2316    9.4369 C   0  0  0  0  0  0  0  0  0  0  0  0
    0.7499   -5.4373    8.3018 C   0  0  0  0  0  0  0  0  0  0  0  0
   -2.1737   -6.1438    6.7496 C   0  0  0  0  0  0  0  0  0  0  0  0
   -1.7450   -7.5225    7.2675 C   0  0  0  0  0  0  0  0  0  0  0  0
   -1.1860    2.0064    0.4056 H   0  0  0  0  0  0  0  0  0  0  0  0
    0.2845    2.0479    1.1569 H   0  0  0  0  0  0  0  0  0  0  0  0
   -2.3777   -1.5977   -0.1892 H   0  0  0  0  0  0  0  0  0  0  0  0
   -3.2641   -3.3859    1.2483 H   0  0  0  0  0  0  0  0  0  0  0  0
   -3.3155   -5.5942    4.1298 H   0  0  0  0  0  0  0  0  0  0  0  0
   -3.1932   -5.4674    2.3346 H   0  0  0  0  0  0  0  0  0  0  0  0
   -4.0829   -4.2022    3.2812 H   0  0  0  0  0  0  0  0  0  0  0  0
    1.1041   -1.2605    2.3849 H   0  0  0  0  0  0  0  0  0  0  0  0
   -1.2661   -3.2955    5.3997 H   0  0  0  0  0  0  0  0  0  0  0  0
    0.2111   -2.8599    7.3900 H   0  0  0  0  0  0  0  0  0  0  0  0
    1.5533   -3.5521    6.4133 H   0  0  0  0  0  0  0  0  0  0  0  0
   -1.7761   -3.7176    8.9157 H   0  0  0  0  0  0  0  0  0  0  0  0
   -2.4567   -5.3443    9.1524 H   0  0  0  0  0  0  0  0  0  0  0  0
    0.0740   -4.4649   10.1500 H   0  0  0  0  0  0  0  0  0  0  0  0
   -0.4056   -6.1549   10.0197 H   0  0  0  0  0  0  0  0  0  0  0  0
    1.6671   -4.8507    8.4643 H   0  0  0  0  0  0  0  0  0  0  0  0
    1.0695   -6.4908    8.2432 H   0  0  0  0  0  0  0  0  0  0  0  0
   -2.0655   -6.1103    5.6402 H   0  0  0  0  0  0  0  0  0  0  0  0
   -3.2534   -5.9781    6.9661 H   0  0  0  0  0  0  0  0  0  0  0  0
   -0.7078   -7.7481    6.9960 H   0  0  0  0  0  0  0  0  0  0  0  0
   -2.3757   -8.3139    6.8507 H   0  0  0  0  0  0  0  0  0  0  0  0
   -1.8158   -7.5797    8.3590 H   0  0  0  0  0  0  0  0  0  0  0  0
  1  4  1  0  0  0  0
  1  5  1  0  0  0  0
  2  1  2  0  0  0  0
  3  1  2  0  0  0  0
  4 26  1  0  0  0  0
  5 12  1  0  0  0  0
  6  5  2  0  0  0  0
  6  7  1  0  0  0  0
  7  8  2  0  0  0  0
  8 11  1  0  0  0  0
  8  9  1  0  0  0  0
 10 31  1  0  0  0  0
 10  9  1  0  0  0  0
 10 29  1  0  0  0  0
 11 13  1  0  0  0  0
 12 32  1  0  0  0  0
 12 11  2  0  0  0  0
 13 15  1  0  0  0  0
 14 13  2  0  0  0  0
 15 33  1  0  0  0  0
 15 16  1  0  0  0  0
 16 17  1  0  0  0  0
 16 34  1  0  0  0  0
 17 18  1  6  0  0  0
 17 19  1  0  0  0  0
 17 22  1  0  0  0  0
 19 20  1  0  0  0  0
 20 36  1  0  0  0  0
 20 37  1  0  0  0  0
 20 21  1  0  0  0  0
 21 39  1  0  0  0  0
 21 38  1  0  0  0  0
 22 40  1  0  0  0  0
 22 21  1  0  0  0  0
 23 43  1  0  0  0  0
 23 24  1  0  0  0  0
 23 19  1  0  0  0  0
 24 46  1  0  0  0  0
 25  4  1  0  0  0  0
 27  6  1  0  0  0  0
 28  7  1  0  0  0  0
 30 10  1  0  0  0  0
 35 16  1  0  0  0  0
 41 22  1  0  0  0  0
 42 23  1  0  0  0  0
 44 24  1  0  0  0  0
 45 24  1  0  0  0  0
M  END
$$$$
