
     RDKit          3D

 46 47  0  0  0  0  0  0  0  0999 V2000
    0.3725   -0.0696    0.2468 S   0  0  0  0  0  0  0  0  0  0  0  0
    1.7187   -0.0033    0.8158 O   0  0  0  0  0  0  0  0  0  0  0  0
    0.1319   -0.2803   -1.1840 O   0  0  0  0  0  0  0  0  0  0  0  0
   -0.4005    1.3615    0.7019 N   0  0  0  0  0  0  0  0  0  0  0  0
   -0.5407   -1.3264    1.1264 C   0  0  0  0  0  0  0  0  0  0  0  0
   -1.4346   -2.1364    0.4310 C   0  0  0  0  0  0  0  0  0  0  0  0
   -2.1336   -3.1238    1.1225 C   0  0  0  0  0  0  0  0  0  0  0  0
   -1.9415   -3.3004    2.5021 C   0  0  0  0  0  0  0  0  0  0  0  0
   -2.6103   -4.2570    3.1998 O   0  0  0  0  0  0  0  0  0  0  0  0
   -3.5276   -5.1102    2.5415 C   0  0  0  0  0  0  0  0  0  0  0  0
   -1.0273   -2.4759    3.2096 C   0  0  0  0  0  0  0  0  0  0  0  0
   -0.3326   -1.4986    2.4924 C   0  0  0  0  0  0  0  0  0  0  0  0
   -0.6937   -2.5312    4.6901 C   0  0  0  0  0  0  0  0  0  0  0  0
    0.1194   -1.7439    5.1580 O   0  0  0  0  0  0  0  0  0  0  0  0
   -1.3324   -3.4643    5.4406 N   0  0  0  0  0  0  0  0  0  0  0  0
   -1.0618   -3.6353    6.8545 C   0  0  0  0  0  0  0  0  0  0  0  0
   -0.0330   -4.7383    7.1435 C   0  0  2  0  0  0  0  0  0  0  0  0
   -0.3977   -5.6734    6.6586 H   0  0  0  0  0  0  0  0  0  0  0  0
    0.1622   -4.9132    8.5804 N   0  0  0  0  0  0  0  0  0  0  0  0
    1.5789   -5.1226    8.8961 C   0  0  0  0  0  0  0  0  0  0  0  0
    2.2718   -5.2616    7.5345 C   0  0  0  0  0  0  0  0  0  0  0  0
    1.3757   -4.4287    6.6150 C   0  0  0  0  0  0  0  0  0  0  0  0
   -0.8134   -5.6931    9.3140 C   0  0  0  0  0  0  0  0  0  0  0  0
   -0.8115   -7.2038    9.0337 C   0  0  0  0  0  0  0  0  0  0  0  0
   -0.9168    1.7516   -0.0858 H   0  0  0  0  0  0  0  0  0  0  0  0
    0.2908    2.0154    1.0691 H   0  0  0  0  0  0  0  0  0  0  0  0
   -1.5689   -1.9975   -0.6425 H   0  0  0  0  0  0  0  0  0  0  0  0
   -2.8277   -3.7593    0.5754 H   0  0  0  0  0  0  0  0  0  0  0  0
   -3.9276   -5.7834    3.3104 H   0  0  0  0  0  0  0  0  0  0  0  0
   -3.0313   -5.7082    1.7589 H   0  0  0  0  0  0  0  0  0  0  0  0
   -4.3576   -4.5395    2.0925 H   0  0  0  0  0  0  0  0  0  0  0  0
    0.3798   -0.8850    3.0452 H   0  0  0  0  0  0  0  0  0  0  0  0
   -1.9689   -4.0935    4.9664 H   0  0  0  0  0  0  0  0  0  0  0  0
   -2.0103   -3.8688    7.3645 H   0  0  0  0  0  0  0  0  0  0  0  0
   -0.6871   -2.6844    7.2554 H   0  0  0  0  0  0  0  0  0  0  0  0
    1.9880   -4.2631    9.4622 H   0  0  0  0  0  0  0  0  0  0  0  0
    1.7293   -6.0164    9.5261 H   0  0  0  0  0  0  0  0  0  0  0  0
    3.3198   -4.9268    7.5449 H   0  0  0  0  0  0  0  0  0  0  0  0
    2.2598   -6.3175    7.2155 H   0  0  0  0  0  0  0  0  0  0  0  0
    1.5832   -3.3535    6.7256 H   0  0  0  0  0  0  0  0  0  0  0  0
    1.4869   -4.6734    5.5491 H   0  0  0  0  0  0  0  0  0  0  0  0
   -1.8176   -5.2877    9.1003 H   0  0  0  0  0  0  0  0  0  0  0  0
   -0.6544   -5.5214   10.3928 H   0  0  0  0  0  0  0  0  0  0  0  0
   -1.0237   -7.4191    7.9743 H   0  0  0  0  0  0  0  0  0  0  0  0
   -1.5782   -7.7147    9.6385 H   0  0  0  0  0  0  0  0  0  0  0  0
    0.1622   -7.6579    9.2780 H   0  0  0  0  0  0  0  0  0  0  0  0
  1  2  2  0
  1  3  2  0
  1  4  1  0
  1  5  1  0
  4 25  1  0
  4 26  1  0
  5  6  2  0
  5 12  1  0
  6  7  1  0
  6 27  1  0
  7  8  2  0
  7 28  1  0
  8  9  1  0
  8 11  1  0
  9 10  1  0
 10 29  1  0
 10 30  1  0
 10 31  1  0
 11 12  2  0
 11 13  1  0
 12 32  1  0
 13 14  2  0
 13 15  1  0
 15 16  1  0
 15 33  1  0
 16 17  1  0
 16 34  1  0
 16 35  1  0
 17 18  1  6
 17 19  1  0
 17 22  1  0
 19 20  1  0
 19 23  1  0
 20 21  1  0
 20 36  1  0
 20 37  1  0
 21 22  1  0
 21 38  1  0
 21 39  1  0
 22 40  1  0
 22 41  1  0
 23 24  1  0
 23 42  1  0
 23 43  1  0
 24 44  1  0
 24 45  1  0
 24 46  1  0
M  END

