rmsd41.gzmat
 OpenBabel08211713403D

 46 47  0  0  1  0  0  0  0  0999 V2000
    0.0000    0.0000    0.0000 S   0  0  0  0  0  0  0  0  0  0  0  0
    1.4436    0.0000    0.0000 O   0  0  0  0  0  0  0  0  0  0  0  0
   -0.7676    0.0000   -1.2260 O   0  0  0  0  0  0  0  0  0  0  0  0
   -0.4667    1.4466    0.8419 N   0  0  0  0  0  0  0  0  0  0  0  0
   -0.5712   -1.3061    1.0106 C   0  0  0  0  0  0  0  0  0  0  0  0
   -1.7747   -1.9450    0.7064 C   0  0  0  0  0  0  0  0  0  0  0  0
   -2.2344   -2.9952    1.4929 C   0  0  0  0  0  0  0  0  0  0  0  0
   -1.4701   -3.4080    2.5899 C   0  0  0  0  0  0  0  0  0  0  0  0
   -1.8048   -4.4139    3.4270 O   0  0  0  0  0  0  0  0  0  0  0  0
   -3.0121   -5.1237    3.1792 C   0  0  0  0  0  0  0  0  0  0  0  0
   -0.2525   -2.7787    2.9053 C   0  0  0  0  0  0  0  0  0  0  0  0
    0.1815   -1.7190    2.1098 C   0  0  0  0  0  0  0  0  0  0  0  0
    0.6143   -3.1414    4.0580 C   0  0  0  0  0  0  0  0  0  0  0  0
    1.2877   -2.3014    4.6312 O   0  0  0  0  0  0  0  0  0  0  0  0
    0.6443   -4.4591    4.4455 N   0  0  0  0  0  0  0  0  0  0  0  0
    1.6402   -4.9164    5.4153 C   0  0  0  0  0  0  0  0  0  0  0  0
    2.8911   -5.4718    4.6749 C   0  0  2  0  0  0  0  0  0  0  0  0
    3.3278   -4.6517    4.0573 H   0  0  0  0  0  0  0  0  0  0  0  0
    2.4417   -6.6037    3.8241 N   0  0  0  0  0  0  0  0  0  0  0  0
    2.7972   -7.8515    4.5405 C   0  0  0  0  0  0  0  0  0  0  0  0
    3.9394   -7.5343    5.5322 C   0  0  0  0  0  0  0  0  0  0  0  0
    3.9274   -6.0058    5.6956 C   0  0  0  0  0  0  0  0  0  0  0  0
    2.9499   -6.5384    2.4406 C   0  0  0  0  0  0  0  0  0  0  0  0
    4.4747   -6.5797    2.2760 C   0  0  0  0  0  0  0  0  0  0  0  0
   -1.1445    2.0341    0.3880 H   0  0  0  0  0  0  0  0  0  0  0  0
    0.2773    2.0017    1.2320 H   0  0  0  0  0  0  0  0  0  0  0  0
   -2.3710   -1.6331   -0.1623 H   0  0  0  0  0  0  0  0  0  0  0  0
   -3.1738   -3.4786    1.2502 H   0  0  0  0  0  0  0  0  0  0  0  0
   -3.0145   -5.8551    4.0022 H   0  0  0  0  0  0  0  0  0  0  0  0
   -2.9748   -5.6327    2.2112 H   0  0  0  0  0  0  0  0  0  0  0  0
   -3.8793   -4.4606    3.2567 H   0  0  0  0  0  0  0  0  0  0  0  0
    1.1332   -1.2246    2.3720 H   0  0  0  0  0  0  0  0  0  0  0  0
    0.1843   -5.1825    3.9114 H   0  0  0  0  0  0  0  0  0  0  0  0
    1.1814   -5.7087    6.0463 H   0  0  0  0  0  0  0  0  0  0  0  0
    1.9389   -4.0743    6.0823 H   0  0  0  0  0  0  0  0  0  0  0  0
    1.8844   -8.1738    5.0868 H   0  0  0  0  0  0  0  0  0  0  0  0
    3.0624   -8.6684    3.8474 H   0  0  0  0  0  0  0  0  0  0  0  0
    3.7866   -8.0492    6.4928 H   0  0  0  0  0  0  0  0  0  0  0  0
    4.9091   -7.8830    5.1427 H   0  0  0  0  0  0  0  0  0  0  0  0
    3.6704   -5.7157    6.7263 H   0  0  0  0  0  0  0  0  0  0  0  0
    4.9227   -5.5756    5.5004 H   0  0  0  0  0  0  0  0  0  0  0  0
    2.5461   -5.6038    1.9871 H   0  0  0  0  0  0  0  0  0  0  0  0
    2.4856   -7.3792    1.8775 H   0  0  0  0  0  0  0  0  0  0  0  0
    4.9612   -5.7712    2.8325 H   0  0  0  0  0  0  0  0  0  0  0  0
    4.7594   -6.4755    1.2237 H   0  0  0  0  0  0  0  0  0  0  0  0
    4.8929   -7.5225    2.6428 H   0  0  0  0  0  0  0  0  0  0  0  0
  1  4  1  0  0  0  0
  1  5  1  0  0  0  0
  2  1  2  0  0  0  0
  3  1  2  0  0  0  0
  4 26  1  0  0  0  0
  5 12  1  0  0  0  0
  6  5  2  0  0  0  0
  6  7  1  0  0  0  0
  7  8  2  0  0  0  0
  8 11  1  0  0  0  0
  8  9  1  0  0  0  0
 10 31  1  0  0  0  0
 10  9  1  0  0  0  0
 10 29  1  0  0  0  0
 11 13  1  0  0  0  0
 12 32  1  0  0  0  0
 12 11  2  0  0  0  0
 13 15  1  0  0  0  0
 13 14  2  0  0  0  0
 15 16  1  0  0  0  0
 16 34  1  0  0  0  0
 16 35  1  0  0  0  0
 17 18  1  6  0  0  0
 17 16  1  0  0  0  0
 17 22  1  0  0  0  0
 19 20  1  0  0  0  0
 19 17  1  0  0  0  0
 20 36  1  0  0  0  0
 20 21  1  0  0  0  0
 21 22  1  0  0  0  0
 21 38  1  0  0  0  0
 22 40  1  0  0  0  0
 23 19  1  0  0  0  0
 24 23  1  0  0  0  0
 24 46  1  0  0  0  0
 24 44  1  0  0  0  0
 25  4  1  0  0  0  0
 27  6  1  0  0  0  0
 28  7  1  0  0  0  0
 30 10  1  0  0  0  0
 33 15  1  0  0  0  0
 37 20  1  0  0  0  0
 39 21  1  0  0  0  0
 41 22  1  0  0  0  0
 42 23  1  0  0  0  0
 43 23  1  0  0  0  0
 45 24  1  0  0  0  0
M  END
$$$$
