46
rmsd231.gzmat
S          0.00000        0.00000        0.00000
O          1.44610        0.00000        0.00000
O         -0.76900        0.00000       -1.22110
N         -0.45990        1.44770        0.84330
C         -0.55110       -1.30260        1.02690
C          0.34140       -1.90990        1.91130
C         -0.07640       -2.94930        2.73570
C         -1.40420       -3.38050        2.65920
O         -1.94020       -4.37510        3.40320
C         -1.12690       -4.95420        4.41720
C         -2.30850       -2.78960        1.76000
C         -1.87370       -1.74100        0.95430
C         -3.73590       -3.19660        1.65840
O         -4.63540       -2.37650        1.62260
N         -3.97890       -4.54010        1.49740
C         -5.35410       -5.04380        1.45030
C         -5.64390       -5.93230        2.69290
H         -5.47760       -5.32580        3.61270
N         -4.71590       -7.09130        2.63990
C         -5.46450       -8.21570        2.02770
C         -6.97870       -7.93670        2.17250
C         -7.09310       -6.47570        2.63800
C         -4.09960       -7.41730        3.93840
C         -5.06040       -7.74920        5.08780
H         -1.16050        2.02250        0.40530
H          0.28780        2.01500        1.20420
H          1.38840       -1.58060        1.96480
H          0.62720       -3.41120        3.41880
H         -1.83150       -5.63810        4.91440
H         -0.77510       -4.19540        5.12330
H         -0.29660       -5.51190        3.97290
H         -2.59530       -1.27530        0.26300
H         -3.27030       -5.23790        1.68310
H         -5.47660       -5.63810        0.51650
H         -6.07670       -4.19580        1.40980
H         -5.17040       -8.24350        0.95530
H         -5.17980       -9.18980        2.46160
H         -7.50170       -8.09800        1.21700
H         -7.44200       -8.62410        2.89710
H         -7.72700       -5.88240        1.96090
H         -7.56670       -6.41230        3.63130
H         -3.46380       -6.54510        4.21860
H         -3.40350       -8.26980        3.76940
H         -5.61780       -6.86550        5.41580
H         -4.51840       -8.13960        5.95470
H         -5.79680       -8.50330        4.78850
