rmsd195.gzmat
 OpenBabel08211713403D

 46 47  0  0  1  0  0  0  0  0999 V2000
    0.0000    0.0000    0.0000 S   0  0  0  0  0  0  0  0  0  0  0  0
    1.4448    0.0000    0.0000 O   0  0  0  0  0  0  0  0  0  0  0  0
   -0.7778    0.0000   -1.2171 O   0  0  0  0  0  0  0  0  0  0  0  0
   -0.4532    1.4614    0.8329 N   0  0  0  0  0  0  0  0  0  0  0  0
   -0.5676   -1.2770    1.0441 C   0  0  0  0  0  0  0  0  0  0  0  0
    0.2453   -1.7434    2.0785 C   0  0  0  0  0  0  0  0  0  0  0  0
   -0.2084   -2.7310    2.9460 C   0  0  0  0  0  0  0  0  0  0  0  0
   -1.4944   -3.2511    2.7642 C   0  0  0  0  0  0  0  0  0  0  0  0
   -2.0867   -4.1738    3.5482 O   0  0  0  0  0  0  0  0  0  0  0  0
   -1.3434   -4.6853    4.6484 C   0  0  0  0  0  0  0  0  0  0  0  0
   -2.3074   -2.8089    1.7039 C   0  0  0  0  0  0  0  0  0  0  0  0
   -1.8349   -1.8294    0.8425 C   0  0  0  0  0  0  0  0  0  0  0  0
   -3.6465   -3.4192    1.4765 C   0  0  0  0  0  0  0  0  0  0  0  0
   -3.8194   -4.4388    0.8414 O   0  0  0  0  0  0  0  0  0  0  0  0
   -4.6896   -2.7373    2.0609 N   0  0  0  0  0  0  0  0  0  0  0  0
   -6.0747   -3.1269    1.7965 C   0  0  0  0  0  0  0  0  0  0  0  0
   -6.7512   -2.0798    0.8648 C   0  0  2  0  0  0  0  0  0  0  0  0
   -6.1892   -2.0380   -0.0964 H   0  0  0  0  0  0  0  0  0  0  0  0
   -6.7123   -0.7703    1.5654 N   0  0  0  0  0  0  0  0  0  0  0  0
   -8.0280   -0.5972    2.2282 C   0  0  0  0  0  0  0  0  0  0  0  0
   -9.0525   -1.5371    1.5501 C   0  0  0  0  0  0  0  0  0  0  0  0
   -8.2338   -2.4572    0.6301 C   0  0  0  0  0  0  0  0  0  0  0  0
   -6.3253    0.3570    0.6968 C   0  0  0  0  0  0  0  0  0  0  0  0
   -7.2134    0.6069   -0.5286 C   0  0  0  0  0  0  0  0  0  0  0  0
   -1.1452    2.0372    0.3837 H   0  0  0  0  0  0  0  0  0  0  0  0
    0.2999    2.0295    1.1811 H   0  0  0  0  0  0  0  0  0  0  0  0
    1.2573   -1.3411    2.2193 H   0  0  0  0  0  0  0  0  0  0  0  0
    0.4325   -3.0876    3.7440 H   0  0  0  0  0  0  0  0  0  0  0  0
   -2.0638   -5.3851    5.0990 H   0  0  0  0  0  0  0  0  0  0  0  0
   -1.0884   -3.8893    5.3541 H   0  0  0  0  0  0  0  0  0  0  0  0
   -0.4546   -5.2231    4.3037 H   0  0  0  0  0  0  0  0  0  0  0  0
   -2.4662   -1.5042    0.0019 H   0  0  0  0  0  0  0  0  0  0  0  0
   -4.5680   -1.8266    2.4821 H   0  0  0  0  0  0  0  0  0  0  0  0
   -6.6188   -3.1868    2.7651 H   0  0  0  0  0  0  0  0  0  0  0  0
   -6.1089   -4.1368    1.3261 H   0  0  0  0  0  0  0  0  0  0  0  0
   -7.8849   -0.8789    3.2943 H   0  0  0  0  0  0  0  0  0  0  0  0
   -8.3640    0.4544    2.2170 H   0  0  0  0  0  0  0  0  0  0  0  0
   -9.6140   -2.1150    2.3010 H   0  0  0  0  0  0  0  0  0  0  0  0
   -9.7993   -0.9644    0.9788 H   0  0  0  0  0  0  0  0  0  0  0  0
   -8.4248   -3.5201    0.8444 H   0  0  0  0  0  0  0  0  0  0  0  0
   -8.5090   -2.3062   -0.4265 H   0  0  0  0  0  0  0  0  0  0  0  0
   -5.2745    0.1759    0.3717 H   0  0  0  0  0  0  0  0  0  0  0  0
   -6.2946    1.2696    1.3341 H   0  0  0  0  0  0  0  0  0  0  0  0
   -7.1143   -0.1931   -1.2704 H   0  0  0  0  0  0  0  0  0  0  0  0
   -6.9478    1.5483   -1.0204 H   0  0  0  0  0  0  0  0  0  0  0  0
   -8.2716    0.6635   -0.2516 H   0  0  0  0  0  0  0  0  0  0  0  0
  1  2  2  0  0  0  0
  1  4  1  0  0  0  0
  1  5  1  0  0  0  0
  3  1  2  0  0  0  0
  4 26  1  0  0  0  0
  5  6  1  0  0  0  0
  6 27  1  0  0  0  0
  6  7  2  0  0  0  0
  7 28  1  0  0  0  0
  8  7  1  0  0  0  0
  8  9  1  0  0  0  0
  9 10  1  0  0  0  0
 10 29  1  0  0  0  0
 10 30  1  0  0  0  0
 11  8  2  0  0  0  0
 12  5  2  0  0  0  0
 12 11  1  0  0  0  0
 13 11  1  0  0  0  0
 13 15  1  0  0  0  0
 14 13  2  0  0  0  0
 15 33  1  0  0  0  0
 16 15  1  0  0  0  0
 16 34  1  0  0  0  0
 17 18  1  6  0  0  0
 17 19  1  0  0  0  0
 17 16  1  0  0  0  0
 19 20  1  0  0  0  0
 20 36  1  0  0  0  0
 21 20  1  0  0  0  0
 21 38  1  0  0  0  0
 22 40  1  0  0  0  0
 22 17  1  0  0  0  0
 22 21  1  0  0  0  0
 23 43  1  0  0  0  0
 23 19  1  0  0  0  0
 24 46  1  0  0  0  0
 24 23  1  0  0  0  0
 25  4  1  0  0  0  0
 31 10  1  0  0  0  0
 32 12  1  0  0  0  0
 35 16  1  0  0  0  0
 37 20  1  0  0  0  0
 39 21  1  0  0  0  0
 41 22  1  0  0  0  0
 42 23  1  0  0  0  0
 44 24  1  0  0  0  0
 45 24  1  0  0  0  0
M  END
$$$$
