rmsd189.gzmat
 OpenBabel08211713403D

 46 47  0  0  1  0  0  0  0  0999 V2000
    0.0000    0.0000    0.0000 S   0  0  0  0  0  0  0  0  0  0  0  0
    1.4462    0.0000    0.0000 O   0  0  0  0  0  0  0  0  0  0  0  0
   -0.7679    0.0000   -1.2236 O   0  0  0  0  0  0  0  0  0  0  0  0
   -0.4689    1.4496    0.8366 N   0  0  0  0  0  0  0  0  0  0  0  0
   -0.5530   -1.3026    1.0221 C   0  0  0  0  0  0  0  0  0  0  0  0
    0.3605   -2.0005    1.8139 C   0  0  0  0  0  0  0  0  0  0  0  0
   -0.0568   -3.0613    2.6107 C   0  0  0  0  0  0  0  0  0  0  0  0
   -1.4095   -3.4177    2.6070 C   0  0  0  0  0  0  0  0  0  0  0  0
   -1.9560   -4.4421    3.2914 O   0  0  0  0  0  0  0  0  0  0  0  0
   -1.1065   -5.1993    4.1458 C   0  0  0  0  0  0  0  0  0  0  0  0
   -2.3387   -2.7132    1.8173 C   0  0  0  0  0  0  0  0  0  0  0  0
   -1.9034   -1.6578    1.0291 C   0  0  0  0  0  0  0  0  0  0  0  0
   -3.7765   -3.0943    1.8659 C   0  0  0  0  0  0  0  0  0  0  0  0
   -4.4736   -2.9613    2.8499 O   0  0  0  0  0  0  0  0  0  0  0  0
   -4.2825   -3.5585    0.6691 N   0  0  0  0  0  0  0  0  0  0  0  0
   -5.6172   -4.1571    0.6145 C   0  0  0  0  0  0  0  0  0  0  0  0
   -5.4976   -5.7028    0.4731 C   0  0  2  0  0  0  0  0  0  0  0  0
   -4.9716   -6.1042    1.3695 H   0  0  0  0  0  0  0  0  0  0  0  0
   -4.7267   -5.9748   -0.7675 N   0  0  0  0  0  0  0  0  0  0  0  0
   -5.7146   -6.2553   -1.8378 C   0  0  0  0  0  0  0  0  0  0  0  0
   -7.0627   -6.6354   -1.1809 C   0  0  0  0  0  0  0  0  0  0  0  0
   -6.9001   -6.3378    0.3185 C   0  0  0  0  0  0  0  0  0  0  0  0
   -3.6966   -7.0184   -0.6115 C   0  0  0  0  0  0  0  0  0  0  0  0
   -4.1954   -8.4077   -0.1937 C   0  0  0  0  0  0  0  0  0  0  0  0
   -1.1475    2.0350    0.3788 H   0  0  0  0  0  0  0  0  0  0  0  0
    0.2736    2.0069    1.2232 H   0  0  0  0  0  0  0  0  0  0  0  0
    1.4254   -1.7275    1.8100 H   0  0  0  0  0  0  0  0  0  0  0  0
    0.6619   -3.5971    3.2203 H   0  0  0  0  0  0  0  0  0  0  0  0
   -1.8170   -5.9130    4.5906 H   0  0  0  0  0  0  0  0  0  0  0  0
   -0.6667   -4.5685    4.9242 H   0  0  0  0  0  0  0  0  0  0  0  0
   -0.3403   -5.7247    3.5685 H   0  0  0  0  0  0  0  0  0  0  0  0
   -2.6350   -1.1196    0.4096 H   0  0  0  0  0  0  0  0  0  0  0  0
   -3.6741   -3.8104   -0.1019 H   0  0  0  0  0  0  0  0  0  0  0  0
   -6.1570   -3.7317   -0.2611 H   0  0  0  0  0  0  0  0  0  0  0  0
   -6.1973   -3.9003    1.5299 H   0  0  0  0  0  0  0  0  0  0  0  0
   -5.8161   -5.3176   -2.4271 H   0  0  0  0  0  0  0  0  0  0  0  0
   -5.3620   -7.0353   -2.5354 H   0  0  0  0  0  0  0  0  0  0  0  0
   -7.8908   -6.0564   -1.6184 H   0  0  0  0  0  0  0  0  0  0  0  0
   -7.3036   -7.6958   -1.3522 H   0  0  0  0  0  0  0  0  0  0  0  0
   -7.6947   -5.6729    0.6910 H   0  0  0  0  0  0  0  0  0  0  0  0
   -6.9738   -7.2617    0.9151 H   0  0  0  0  0  0  0  0  0  0  0  0
   -2.9587   -6.6428    0.1342 H   0  0  0  0  0  0  0  0  0  0  0  0
   -3.1485   -7.0870   -1.5790 H   0  0  0  0  0  0  0  0  0  0  0  0
   -4.6261   -8.3949    0.8131 H   0  0  0  0  0  0  0  0  0  0  0  0
   -3.3782   -9.1360   -0.1961 H   0  0  0  0  0  0  0  0  0  0  0  0
   -4.9712   -8.7759   -0.8738 H   0  0  0  0  0  0  0  0  0  0  0  0
  1  4  1  0  0  0  0
  1  5  1  0  0  0  0
  2  1  2  0  0  0  0
  3  1  2  0  0  0  0
  4 26  1  0  0  0  0
  5 12  2  0  0  0  0
  5  6  1  0  0  0  0
  6  7  2  0  0  0  0
  7 28  1  0  0  0  0
  8  7  1  0  0  0  0
  8  9  1  0  0  0  0
  9 10  1  0  0  0  0
 10 29  1  0  0  0  0
 10 30  1  0  0  0  0
 11 13  1  0  0  0  0
 11  8  2  0  0  0  0
 12 11  1  0  0  0  0
 13 14  2  0  0  0  0
 15 13  1  0  0  0  0
 16 15  1  0  0  0  0
 16 35  1  0  0  0  0
 17 16  1  0  0  0  0
 17 18  1  1  0  0  0
 19 23  1  0  0  0  0
 19 17  1  0  0  0  0
 20 21  1  0  0  0  0
 20 19  1  0  0  0  0
 21 22  1  0  0  0  0
 22 17  1  0  0  0  0
 22 40  1  0  0  0  0
 22 41  1  0  0  0  0
 23 24  1  0  0  0  0
 23 42  1  0  0  0  0
 24 44  1  0  0  0  0
 25  4  1  0  0  0  0
 27  6  1  0  0  0  0
 31 10  1  0  0  0  0
 32 12  1  0  0  0  0
 33 15  1  0  0  0  0
 34 16  1  0  0  0  0
 36 20  1  0  0  0  0
 37 20  1  0  0  0  0
 38 21  1  0  0  0  0
 39 21  1  0  0  0  0
 43 23  1  0  0  0  0
 45 24  1  0  0  0  0
 46 24  1  0  0  0  0
M  END
$$$$
