rmsd112.gzmat
 OpenBabel08211713403D

 31 32  0  0  0  0  0  0  0  0999 V2000
    0.0000    0.0000    0.0000 N   0  0  0  0  0  0  0  0  0  0  0  0
    1.3773    0.0000    0.0000 C   0  0  0  0  0  0  0  0  0  0  0  0
    2.0842    0.0000    1.2219 C   0  0  0  0  0  0  0  0  0  0  0  0
    3.4690    0.0217    1.2072 C   0  0  0  0  0  0  0  0  0  0  0  0
    4.1706    0.0433   -0.0057 C   0  0  0  0  0  0  0  0  0  0  0  0
    3.4659    0.0417   -1.2147 C   0  0  0  0  0  0  0  0  0  0  0  0
    2.0818    0.0209   -1.2262 C   0  0  0  0  0  0  0  0  0  0  0  0
    5.8945    0.0858   -0.0103 S   0  0  0  0  0  0  0  0  0  0  0  0
    6.3777    0.5245   -1.3036 O   0  0  0  0  0  0  0  0  0  0  0  0
    6.4065    0.6667    1.2003 O   0  0  0  0  0  0  0  0  0  0  0  0
    6.4432   -1.6037   -0.0597 N   0  0  0  0  0  0  0  0  0  0  0  0
    6.1864   -2.5444    0.9175 C   0  0  0  0  0  0  0  0  0  0  0  0
    5.2157   -2.2416    1.8355 N   0  0  0  0  0  0  0  0  0  0  0  0
    4.8718   -3.0918    2.7483 N   0  0  0  0  0  0  0  0  0  0  0  0
    5.4721   -4.3026    2.8186 C   0  0  0  0  0  0  0  0  0  0  0  0
    6.4935   -4.7043    1.9252 C   0  0  0  0  0  0  0  0  0  0  0  0
    6.8579   -3.8025    0.9508 C   0  0  0  0  0  0  0  0  0  0  0  0
    5.1198   -5.1997    3.7665 O   0  0  0  0  0  0  0  0  0  0  0  0
    4.0674   -4.7971    4.6458 C   0  0  0  0  0  0  0  0  0  0  0  0
   -0.5149   -0.0757    0.8479 H   0  0  0  0  0  0  0  0  0  0  0  0
   -0.5153   -0.0529   -0.8495 H   0  0  0  0  0  0  0  0  0  0  0  0
    1.5498   -0.0272    2.1644 H   0  0  0  0  0  0  0  0  0  0  0  0
    4.0112    0.0112    2.1667 H   0  0  0  0  0  0  0  0  0  0  0  0
    4.0024    0.0627   -2.1730 H   0  0  0  0  0  0  0  0  0  0  0  0
    1.5395    0.0212   -2.1642 H   0  0  0  0  0  0  0  0  0  0  0  0
    7.1782   -1.8254   -0.7286 H   0  0  0  0  0  0  0  0  0  0  0  0
    6.9542   -5.6845    2.0256 H   0  0  0  0  0  0  0  0  0  0  0  0
    7.6356   -4.0310    0.2275 H   0  0  0  0  0  0  0  0  0  0  0  0
    3.9802   -5.6674    5.3069 H   0  0  0  0  0  0  0  0  0  0  0  0
    3.1431   -4.6227    4.0849 H   0  0  0  0  0  0  0  0  0  0  0  0
    4.3503   -3.8970    5.2030 H   0  0  0  0  0  0  0  0  0  0  0  0
  1  2  1  0  0  0  0
  1 20  1  0  0  0  0
  2  3  2  0  0  0  0
  3 22  1  0  0  0  0
  4  3  1  0  0  0  0
  4 23  1  0  0  0  0
  5  4  2  0  0  0  0
  6  5  1  0  0  0  0
  7  6  2  0  0  0  0
  7  2  1  0  0  0  0
  8  5  1  0  0  0  0
  8 10  2  0  0  0  0
  9  8  2  0  0  0  0
 11  8  1  0  0  0  0
 11 12  1  0  0  0  0
 12 17  1  0  0  0  0
 12 13  2  0  0  0  0
 13 14  1  0  0  0  0
 14 15  2  0  0  0  0
 15 18  1  0  0  0  0
 16 27  1  0  0  0  0
 16 15  1  0  0  0  0
 17 16  2  0  0  0  0
 18 19  1  0  0  0  0
 19 31  1  0  0  0  0
 19 29  1  0  0  0  0
 21  1  1  0  0  0  0
 24  6  1  0  0  0  0
 25  7  1  0  0  0  0
 26 11  1  0  0  0  0
 28 17  1  0  0  0  0
 30 19  1  0  0  0  0
M  END
$$$$
