rmsd190.gzmat
 OpenBabel08211713403D

 31 32  0  0  0  0  0  0  0  0999 V2000
    0.0000    0.0000    0.0000 N   0  0  0  0  0  0  0  0  0  0  0  0
    1.3773    0.0000    0.0000 C   0  0  0  0  0  0  0  0  0  0  0  0
    2.0826    0.0000    1.2255 C   0  0  0  0  0  0  0  0  0  0  0  0
    3.4668    0.0069    1.2127 C   0  0  0  0  0  0  0  0  0  0  0  0
    4.1713    0.0152    0.0033 C   0  0  0  0  0  0  0  0  0  0  0  0
    3.4691    0.0262   -1.2090 C   0  0  0  0  0  0  0  0  0  0  0  0
    2.0841    0.0168   -1.2221 C   0  0  0  0  0  0  0  0  0  0  0  0
    5.8966    0.0141    0.0156 S   0  0  0  0  0  0  0  0  0  0  0  0
    6.4366    0.6188   -1.1702 O   0  0  0  0  0  0  0  0  0  0  0  0
    6.3819    0.3973    1.3258 O   0  0  0  0  0  0  0  0  0  0  0  0
    6.3827   -1.6955    0.0217 N   0  0  0  0  0  0  0  0  0  0  0  0
    6.0996   -2.6004   -0.9812 C   0  0  0  0  0  0  0  0  0  0  0  0
    5.2060   -2.2075   -1.9420 N   0  0  0  0  0  0  0  0  0  0  0  0
    4.8486   -3.0119   -2.8906 N   0  0  0  0  0  0  0  0  0  0  0  0
    5.3552   -4.2650   -2.9541 C   0  0  0  0  0  0  0  0  0  0  0  0
    6.2838   -4.7644   -2.0099 C   0  0  0  0  0  0  0  0  0  0  0  0
    6.6663   -3.9095   -1.0009 C   0  0  0  0  0  0  0  0  0  0  0  0
    4.9890   -5.1142   -3.9399 O   0  0  0  0  0  0  0  0  0  0  0  0
    4.0787   -4.5899   -4.9092 C   0  0  0  0  0  0  0  0  0  0  0  0
   -0.5162   -0.0526    0.8480 H   0  0  0  0  0  0  0  0  0  0  0  0
   -0.5153   -0.0479   -0.8496 H   0  0  0  0  0  0  0  0  0  0  0  0
    1.5418   -0.0057    2.1641 H   0  0  0  0  0  0  0  0  0  0  0  0
    4.0054    0.0114    2.1702 H   0  0  0  0  0  0  0  0  0  0  0  0
    4.0113    0.0303   -2.1686 H   0  0  0  0  0  0  0  0  0  0  0  0
    1.5482    0.0115   -2.1645 H   0  0  0  0  0  0  0  0  0  0  0  0
    7.0813   -1.9717    0.7084 H   0  0  0  0  0  0  0  0  0  0  0  0
    6.6631   -5.7799   -2.0996 H   0  0  0  0  0  0  0  0  0  0  0  0
    7.3764   -4.2137   -0.2374 H   0  0  0  0  0  0  0  0  0  0  0  0
    3.9642   -5.4384   -5.5940 H   0  0  0  0  0  0  0  0  0  0  0  0
    4.5113   -3.7210   -5.4170 H   0  0  0  0  0  0  0  0  0  0  0  0
    3.1273   -4.3212   -4.4379 H   0  0  0  0  0  0  0  0  0  0  0  0
  1 20  1  0  0  0  0
  2  1  1  0  0  0  0
  2  3  2  0  0  0  0
  3 22  1  0  0  0  0
  4  3  1  0  0  0  0
  4 23  1  0  0  0  0
  5  8  1  0  0  0  0
  5  4  2  0  0  0  0
  6  5  1  0  0  0  0
  7  6  2  0  0  0  0
  7  2  1  0  0  0  0
  8 11  1  0  0  0  0
  8 10  2  0  0  0  0
  9  8  2  0  0  0  0
 11 26  1  0  0  0  0
 12 11  1  0  0  0  0
 13 12  2  0  0  0  0
 14 13  1  0  0  0  0
 15 14  2  0  0  0  0
 15 16  1  0  0  0  0
 16 17  2  0  0  0  0
 17 12  1  0  0  0  0
 17 28  1  0  0  0  0
 18 15  1  0  0  0  0
 19 31  1  0  0  0  0
 19 18  1  0  0  0  0
 21  1  1  0  0  0  0
 24  6  1  0  0  0  0
 25  7  1  0  0  0  0
 27 16  1  0  0  0  0
 29 19  1  0  0  0  0
 30 19  1  0  0  0  0
M  END
$$$$
