31
rmsd163.gzmat
N          0.00000        0.00000        0.00000
C          1.37690        0.00000        0.00000
C          2.08430        0.00000        1.22190
C          3.46980       -0.00720        1.20840
C          4.17150       -0.00360       -0.00410
C          3.46620       -0.01510       -1.21320
C          2.08210       -0.01650       -1.22560
S          5.89660        0.01650       -0.02000
O          6.44680       -0.59260        1.15830
O          6.38220       -0.34860       -1.33540
N          6.35830        1.73300       -0.01620
C          6.07610        2.62560        0.99720
N          5.21100        2.20670        1.97350
N          4.85370        2.99730        2.93340
C          5.33230        4.26150        2.99500
C          6.23380        4.78560        2.03820
C          6.61410        3.94610        1.01520
O          4.95650        5.09910        3.98750
C          4.10070        4.53770        4.98560
H         -0.51580        0.05510        0.84890
H         -0.51690        0.04200       -0.84880
H          1.55020        0.01680        2.16500
H          4.01120       -0.00350        2.16880
H          4.00420       -0.02820       -2.17120
H          1.54130       -0.02950       -2.16440
H          7.03210        2.02930       -0.71920
H          6.59410        5.80780        2.12840
H          7.30210        4.27120        0.24010
H          3.90520        5.40290        5.63000
H          4.62240        3.74120        5.52760
H          3.17620        4.15300        4.54120
