rmsd191.gzmat
 OpenBabel08211713403D

 31 32  0  0  0  0  0  0  0  0999 V2000
    0.0000    0.0000    0.0000 N   0  0  0  0  0  0  0  0  0  0  0  0
    1.3767    0.0000    0.0000 C   0  0  0  0  0  0  0  0  0  0  0  0
    2.0823    0.0000    1.2255 C   0  0  0  0  0  0  0  0  0  0  0  0
    3.4663   -0.0059    1.2125 C   0  0  0  0  0  0  0  0  0  0  0  0
    4.1708   -0.0112    0.0030 C   0  0  0  0  0  0  0  0  0  0  0  0
    3.4689    0.0062   -1.2091 C   0  0  0  0  0  0  0  0  0  0  0  0
    2.0839    0.0108   -1.2221 C   0  0  0  0  0  0  0  0  0  0  0  0
    5.8955   -0.0433    0.0183 S   0  0  0  0  0  0  0  0  0  0  0  0
    6.4508    0.5685   -1.1563 O   0  0  0  0  0  0  0  0  0  0  0  0
    6.3834    0.3099    1.3359 O   0  0  0  0  0  0  0  0  0  0  0  0
    6.3459   -1.7626   -0.0013 N   0  0  0  0  0  0  0  0  0  0  0  0
    6.0905   -2.6307   -1.0437 C   0  0  0  0  0  0  0  0  0  0  0  0
    5.2151   -2.2065   -2.0086 N   0  0  0  0  0  0  0  0  0  0  0  0
    4.8940   -2.9709   -3.0020 N   0  0  0  0  0  0  0  0  0  0  0  0
    5.4240   -4.2110   -3.1118 C   0  0  0  0  0  0  0  0  0  0  0  0
    6.3290   -4.7435   -2.1625 C   0  0  0  0  0  0  0  0  0  0  0  0
    6.6681   -3.9332   -1.1023 C   0  0  0  0  0  0  0  0  0  0  0  0
    5.1141   -5.0103   -4.1568 O   0  0  0  0  0  0  0  0  0  0  0  0
    4.1722   -4.4810   -5.0922 C   0  0  0  0  0  0  0  0  0  0  0  0
   -0.5172   -0.0293    0.8485 H   0  0  0  0  0  0  0  0  0  0  0  0
   -0.5160   -0.0334   -0.8497 H   0  0  0  0  0  0  0  0  0  0  0  0
    1.5420    0.0031    2.1643 H   0  0  0  0  0  0  0  0  0  0  0  0
    4.0048   -0.0010    2.1700 H   0  0  0  0  0  0  0  0  0  0  0  0
    4.0103    0.0043   -2.1696 H   0  0  0  0  0  0  0  0  0  0  0  0
    1.5486    0.0106   -2.1647 H   0  0  0  0  0  0  0  0  0  0  0  0
    7.0201   -2.0676    0.6979 H   0  0  0  0  0  0  0  0  0  0  0  0
    6.7247   -5.7488   -2.2880 H   0  0  0  0  0  0  0  0  0  0  0  0
    7.3549   -4.2667   -0.3296 H   0  0  0  0  0  0  0  0  0  0  0  0
    4.1463   -5.2661   -5.8568 H   0  0  0  0  0  0  0  0  0  0  0  0
    4.5216   -3.5299   -5.5080 H   0  0  0  0  0  0  0  0  0  0  0  0
    3.1961   -4.3524   -4.6141 H   0  0  0  0  0  0  0  0  0  0  0  0
  1 20  1  0  0  0  0
  2  1  1  0  0  0  0
  2  3  2  0  0  0  0
  3 22  1  0  0  0  0
  4  3  1  0  0  0  0
  4 23  1  0  0  0  0
  5  8  1  0  0  0  0
  5  4  2  0  0  0  0
  6  5  1  0  0  0  0
  7  6  2  0  0  0  0
  7  2  1  0  0  0  0
  8 10  2  0  0  0  0
  9  8  2  0  0  0  0
 11  8  1  0  0  0  0
 11 26  1  0  0  0  0
 12 11  1  0  0  0  0
 13 12  2  0  0  0  0
 14 13  1  0  0  0  0
 15 14  2  0  0  0  0
 15 16  1  0  0  0  0
 16 17  2  0  0  0  0
 17 12  1  0  0  0  0
 17 28  1  0  0  0  0
 18 15  1  0  0  0  0
 19 31  1  0  0  0  0
 19 18  1  0  0  0  0
 21  1  1  0  0  0  0
 24  6  1  0  0  0  0
 25  7  1  0  0  0  0
 27 16  1  0  0  0  0
 29 19  1  0  0  0  0
 30 19  1  0  0  0  0
M  END
$$$$
