31
rmsd112.gzmat
N          0.00000        0.00000        0.00000
C          1.37730        0.00000        0.00000
C          2.08420        0.00000        1.22190
C          3.46900        0.02170        1.20720
C          4.17060        0.04330       -0.00570
C          3.46590        0.04170       -1.21470
C          2.08180        0.02090       -1.22620
S          5.89450        0.08580       -0.01030
O          6.37770        0.52450       -1.30360
O          6.40650        0.66670        1.20030
N          6.44320       -1.60370       -0.05970
C          6.18640       -2.54440        0.91750
N          5.21570       -2.24160        1.83550
N          4.87180       -3.09180        2.74830
C          5.47210       -4.30260        2.81860
C          6.49350       -4.70430        1.92520
C          6.85790       -3.80250        0.95080
O          5.11980       -5.19970        3.76650
C          4.06740       -4.79710        4.64580
H         -0.51490       -0.07570        0.84790
H         -0.51530       -0.05290       -0.84950
H          1.54980       -0.02720        2.16440
H          4.01120        0.01120        2.16670
H          4.00240        0.06270       -2.17300
H          1.53950        0.02120       -2.16420
H          7.17820       -1.82540       -0.72860
H          6.95420       -5.68450        2.02560
H          7.63560       -4.03100        0.22750
H          3.98020       -5.66740        5.30690
H          3.14310       -4.62270        4.08490
H          4.35030       -3.89700        5.20300
