31
rmsd111.gzmat
N          0.00000        0.00000        0.00000
C          1.37710        0.00000        0.00000
C          2.08300        0.00000        1.22270
C          3.46800        0.01850        1.21040
C          4.17110        0.03150       -0.00160
C          3.46720        0.02760       -1.21150
C          2.08320        0.01380       -1.22560
S          5.89540        0.06620       -0.01050
O          6.37350        0.48010       -1.31370
O          6.41650        0.66730        1.18600
N          6.43420       -1.62710       -0.03400
C          6.17400       -2.54970        0.95880
N          5.22510       -2.21400        1.88800
N          4.87460       -3.04600        2.81490
C          5.44730       -4.26960        2.88970
C          6.44940       -4.70260        1.98890
C          6.81930       -3.82050        0.99890
O          5.07940       -5.15150        3.84590
C          4.05710       -4.70960        4.74170
H         -0.51560       -0.04930        0.84970
H         -0.51770       -0.03300       -0.84850
H          1.54620       -0.02680        2.16410
H          4.00840        0.01110        2.17070
H          4.00720        0.04100       -2.16840
H          1.54200        0.01340       -2.16410
H          7.15680       -1.86870       -0.70950
H          6.89160       -5.69080        2.09430
H          7.57980       -4.07530        0.26630
H          3.93060       -5.58380        5.39100
H          3.13650       -4.48050        4.19520
H          4.39230       -3.83300        5.30710
