rmsd124.gzmat
 OpenBabel08211713403D

 31 32  0  0  0  0  0  0  0  0999 V2000
    0.0000    0.0000    0.0000 N   0  0  0  0  0  0  0  0  0  0  0  0
    1.3775    0.0000    0.0000 C   0  0  0  0  0  0  0  0  0  0  0  0
    2.0851    0.0000    1.2217 C   0  0  0  0  0  0  0  0  0  0  0  0
    3.4703    0.0074    1.2079 C   0  0  0  0  0  0  0  0  0  0  0  0
    4.1717    0.0135   -0.0050 C   0  0  0  0  0  0  0  0  0  0  0  0
    3.4665    0.0288   -1.2137 C   0  0  0  0  0  0  0  0  0  0  0  0
    2.0823    0.0225   -1.2259 C   0  0  0  0  0  0  0  0  0  0  0  0
    5.8965   -0.0033   -0.0169 S   0  0  0  0  0  0  0  0  0  0  0  0
    6.3873    0.4188   -1.3127 O   0  0  0  0  0  0  0  0  0  0  0  0
    6.4420    0.5550    1.1888 O   0  0  0  0  0  0  0  0  0  0  0  0
    6.3592   -1.7183   -0.0813 N   0  0  0  0  0  0  0  0  0  0  0  0
    6.0391   -2.6605    0.8744 C   0  0  0  0  0  0  0  0  0  0  0  0
    5.1528   -2.2856    1.8495 N   0  0  0  0  0  0  0  0  0  0  0  0
    4.7613   -3.1240    2.7544 N   0  0  0  0  0  0  0  0  0  0  0  0
    5.2278   -4.3942    2.7597 C   0  0  0  0  0  0  0  0  0  0  0  0
    6.1484   -4.8757    1.7987 C   0  0  0  0  0  0  0  0  0  0  0  0
    6.5634   -3.9861    0.8336 C   0  0  0  0  0  0  0  0  0  0  0  0
    4.8280   -5.2779    3.7012 O   0  0  0  0  0  0  0  0  0  0  0  0
    3.9083   -4.7793    4.6750 C   0  0  0  0  0  0  0  0  0  0  0  0
   -0.5151   -0.0774    0.8477 H   0  0  0  0  0  0  0  0  0  0  0  0
   -0.5150   -0.0571   -0.8492 H   0  0  0  0  0  0  0  0  0  0  0  0
    1.5505   -0.0191    2.1645 H   0  0  0  0  0  0  0  0  0  0  0  0
    4.0126   -0.0069    2.1673 H   0  0  0  0  0  0  0  0  0  0  0  0
    4.0040    0.0509   -2.1715 H   0  0  0  0  0  0  0  0  0  0  0  0
    1.5423    0.0372   -2.1646 H   0  0  0  0  0  0  0  0  0  0  0  0
    7.0570   -1.9814   -0.7739 H   0  0  0  0  0  0  0  0  0  0  0  0
    6.4966   -5.9051    1.8431 H   0  0  0  0  0  0  0  0  0  0  0  0
    7.2683   -4.2756    0.0595 H   0  0  0  0  0  0  0  0  0  0  0  0
    3.7543   -5.6580    5.3125 H   0  0  0  0  0  0  0  0  0  0  0  0
    2.9754   -4.4618    4.1975 H   0  0  0  0  0  0  0  0  0  0  0  0
    4.3505   -3.9486    5.2359 H   0  0  0  0  0  0  0  0  0  0  0  0
  1 20  1  0  0  0  0
  2  1  1  0  0  0  0
  2  3  2  0  0  0  0
  3 22  1  0  0  0  0
  4  3  1  0  0  0  0
  4 23  1  0  0  0  0
  5  4  2  0  0  0  0
  6  5  1  0  0  0  0
  7  6  2  0  0  0  0
  7  2  1  0  0  0  0
  8  5  1  0  0  0  0
  8 10  2  0  0  0  0
  9  8  2  0  0  0  0
 11  8  1  0  0  0  0
 11 12  1  0  0  0  0
 12 13  2  0  0  0  0
 13 14  1  0  0  0  0
 14 15  2  0  0  0  0
 15 18  1  0  0  0  0
 16 27  1  0  0  0  0
 16 15  1  0  0  0  0
 17 12  1  0  0  0  0
 17 16  2  0  0  0  0
 18 19  1  0  0  0  0
 19 31  1  0  0  0  0
 19 29  1  0  0  0  0
 21  1  1  0  0  0  0
 24  6  1  0  0  0  0
 25  7  1  0  0  0  0
 26 11  1  0  0  0  0
 28 17  1  0  0  0  0
 30 19  1  0  0  0  0
M  END
$$$$
