rmsd111.gzmat
 OpenBabel08211713403D

 31 32  0  0  0  0  0  0  0  0999 V2000
    0.0000    0.0000    0.0000 N   0  0  0  0  0  0  0  0  0  0  0  0
    1.3771    0.0000    0.0000 C   0  0  0  0  0  0  0  0  0  0  0  0
    2.0830    0.0000    1.2227 C   0  0  0  0  0  0  0  0  0  0  0  0
    3.4680    0.0185    1.2104 C   0  0  0  0  0  0  0  0  0  0  0  0
    4.1711    0.0315   -0.0016 C   0  0  0  0  0  0  0  0  0  0  0  0
    3.4672    0.0276   -1.2115 C   0  0  0  0  0  0  0  0  0  0  0  0
    2.0832    0.0138   -1.2256 C   0  0  0  0  0  0  0  0  0  0  0  0
    5.8954    0.0662   -0.0105 S   0  0  0  0  0  0  0  0  0  0  0  0
    6.3735    0.4801   -1.3137 O   0  0  0  0  0  0  0  0  0  0  0  0
    6.4165    0.6673    1.1860 O   0  0  0  0  0  0  0  0  0  0  0  0
    6.4342   -1.6271   -0.0340 N   0  0  0  0  0  0  0  0  0  0  0  0
    6.1740   -2.5497    0.9588 C   0  0  0  0  0  0  0  0  0  0  0  0
    5.2251   -2.2140    1.8880 N   0  0  0  0  0  0  0  0  0  0  0  0
    4.8746   -3.0460    2.8149 N   0  0  0  0  0  0  0  0  0  0  0  0
    5.4473   -4.2696    2.8897 C   0  0  0  0  0  0  0  0  0  0  0  0
    6.4494   -4.7026    1.9889 C   0  0  0  0  0  0  0  0  0  0  0  0
    6.8193   -3.8205    0.9989 C   0  0  0  0  0  0  0  0  0  0  0  0
    5.0794   -5.1515    3.8459 O   0  0  0  0  0  0  0  0  0  0  0  0
    4.0571   -4.7096    4.7417 C   0  0  0  0  0  0  0  0  0  0  0  0
   -0.5156   -0.0493    0.8497 H   0  0  0  0  0  0  0  0  0  0  0  0
   -0.5177   -0.0330   -0.8485 H   0  0  0  0  0  0  0  0  0  0  0  0
    1.5462   -0.0268    2.1641 H   0  0  0  0  0  0  0  0  0  0  0  0
    4.0084    0.0111    2.1707 H   0  0  0  0  0  0  0  0  0  0  0  0
    4.0072    0.0410   -2.1684 H   0  0  0  0  0  0  0  0  0  0  0  0
    1.5420    0.0134   -2.1641 H   0  0  0  0  0  0  0  0  0  0  0  0
    7.1568   -1.8687   -0.7095 H   0  0  0  0  0  0  0  0  0  0  0  0
    6.8916   -5.6908    2.0943 H   0  0  0  0  0  0  0  0  0  0  0  0
    7.5798   -4.0753    0.2663 H   0  0  0  0  0  0  0  0  0  0  0  0
    3.9306   -5.5838    5.3910 H   0  0  0  0  0  0  0  0  0  0  0  0
    3.1365   -4.4805    4.1952 H   0  0  0  0  0  0  0  0  0  0  0  0
    4.3923   -3.8330    5.3071 H   0  0  0  0  0  0  0  0  0  0  0  0
  1  2  1  0  0  0  0
  1 20  1  0  0  0  0
  2  3  2  0  0  0  0
  3 22  1  0  0  0  0
  4  3  1  0  0  0  0
  4 23  1  0  0  0  0
  5  4  2  0  0  0  0
  6  5  1  0  0  0  0
  7  6  2  0  0  0  0
  7  2  1  0  0  0  0
  8  5  1  0  0  0  0
  8 10  2  0  0  0  0
  9  8  2  0  0  0  0
 11  8  1  0  0  0  0
 11 12  1  0  0  0  0
 12 17  1  0  0  0  0
 12 13  2  0  0  0  0
 13 14  1  0  0  0  0
 14 15  2  0  0  0  0
 15 18  1  0  0  0  0
 16 27  1  0  0  0  0
 16 15  1  0  0  0  0
 17 16  2  0  0  0  0
 18 19  1  0  0  0  0
 19 31  1  0  0  0  0
 19 29  1  0  0  0  0
 21  1  1  0  0  0  0
 24  6  1  0  0  0  0
 25  7  1  0  0  0  0
 26 11  1  0  0  0  0
 28 17  1  0  0  0  0
 30 19  1  0  0  0  0
M  END
$$$$
