rmsd163.gzmat
 OpenBabel08211713403D

 31 32  0  0  0  0  0  0  0  0999 V2000
    0.0000    0.0000    0.0000 N   0  0  0  0  0  0  0  0  0  0  0  0
    1.3769    0.0000    0.0000 C   0  0  0  0  0  0  0  0  0  0  0  0
    2.0843    0.0000    1.2219 C   0  0  0  0  0  0  0  0  0  0  0  0
    3.4698   -0.0072    1.2084 C   0  0  0  0  0  0  0  0  0  0  0  0
    4.1715   -0.0036   -0.0041 C   0  0  0  0  0  0  0  0  0  0  0  0
    3.4662   -0.0151   -1.2132 C   0  0  0  0  0  0  0  0  0  0  0  0
    2.0821   -0.0165   -1.2256 C   0  0  0  0  0  0  0  0  0  0  0  0
    5.8966    0.0165   -0.0200 S   0  0  0  0  0  0  0  0  0  0  0  0
    6.4468   -0.5926    1.1583 O   0  0  0  0  0  0  0  0  0  0  0  0
    6.3822   -0.3486   -1.3354 O   0  0  0  0  0  0  0  0  0  0  0  0
    6.3583    1.7330   -0.0162 N   0  0  0  0  0  0  0  0  0  0  0  0
    6.0761    2.6256    0.9972 C   0  0  0  0  0  0  0  0  0  0  0  0
    5.2110    2.2067    1.9735 N   0  0  0  0  0  0  0  0  0  0  0  0
    4.8537    2.9973    2.9334 N   0  0  0  0  0  0  0  0  0  0  0  0
    5.3323    4.2615    2.9950 C   0  0  0  0  0  0  0  0  0  0  0  0
    6.2338    4.7856    2.0382 C   0  0  0  0  0  0  0  0  0  0  0  0
    6.6141    3.9461    1.0152 C   0  0  0  0  0  0  0  0  0  0  0  0
    4.9565    5.0991    3.9875 O   0  0  0  0  0  0  0  0  0  0  0  0
    4.1007    4.5377    4.9856 C   0  0  0  0  0  0  0  0  0  0  0  0
   -0.5158    0.0551    0.8489 H   0  0  0  0  0  0  0  0  0  0  0  0
   -0.5169    0.0420   -0.8488 H   0  0  0  0  0  0  0  0  0  0  0  0
    1.5502    0.0168    2.1650 H   0  0  0  0  0  0  0  0  0  0  0  0
    4.0112   -0.0035    2.1688 H   0  0  0  0  0  0  0  0  0  0  0  0
    4.0042   -0.0282   -2.1712 H   0  0  0  0  0  0  0  0  0  0  0  0
    1.5413   -0.0295   -2.1644 H   0  0  0  0  0  0  0  0  0  0  0  0
    7.0321    2.0293   -0.7192 H   0  0  0  0  0  0  0  0  0  0  0  0
    6.5941    5.8078    2.1284 H   0  0  0  0  0  0  0  0  0  0  0  0
    7.3021    4.2712    0.2401 H   0  0  0  0  0  0  0  0  0  0  0  0
    3.9052    5.4029    5.6300 H   0  0  0  0  0  0  0  0  0  0  0  0
    4.6224    3.7412    5.5276 H   0  0  0  0  0  0  0  0  0  0  0  0
    3.1762    4.1530    4.5412 H   0  0  0  0  0  0  0  0  0  0  0  0
  1  2  1  0  0  0  0
  1 20  1  0  0  0  0
  2  3  2  0  0  0  0
  3 22  1  0  0  0  0
  4  3  1  0  0  0  0
  4 23  1  0  0  0  0
  5  4  2  0  0  0  0
  6  5  1  0  0  0  0
  7  6  2  0  0  0  0
  7  2  1  0  0  0  0
  8 11  1  0  0  0  0
  8  5  1  0  0  0  0
  8  9  2  0  0  0  0
 10  8  2  0  0  0  0
 11 12  1  0  0  0  0
 12 17  1  0  0  0  0
 12 13  2  0  0  0  0
 13 14  1  0  0  0  0
 14 15  2  0  0  0  0
 15 18  1  0  0  0  0
 16 27  1  0  0  0  0
 16 15  1  0  0  0  0
 17 16  2  0  0  0  0
 18 19  1  0  0  0  0
 19 30  1  0  0  0  0
 19 29  1  0  0  0  0
 21  1  1  0  0  0  0
 24  6  1  0  0  0  0
 25  7  1  0  0  0  0
 26 11  1  0  0  0  0
 28 17  1  0  0  0  0
 31 19  1  0  0  0  0
M  END
$$$$
