rmsd121.gzmat
 OpenBabel08211713403D

 31 32  0  0  0  0  0  0  0  0999 V2000
    0.0000    0.0000    0.0000 N   0  0  0  0  0  0  0  0  0  0  0  0
    1.3775    0.0000    0.0000 C   0  0  0  0  0  0  0  0  0  0  0  0
    2.0850    0.0000    1.2215 C   0  0  0  0  0  0  0  0  0  0  0  0
    3.4701    0.0103    1.2070 C   0  0  0  0  0  0  0  0  0  0  0  0
    4.1717    0.0184   -0.0058 C   0  0  0  0  0  0  0  0  0  0  0  0
    3.4666    0.0285   -1.2143 C   0  0  0  0  0  0  0  0  0  0  0  0
    2.0825    0.0205   -1.2260 C   0  0  0  0  0  0  0  0  0  0  0  0
    5.8962    0.0169   -0.0155 S   0  0  0  0  0  0  0  0  0  0  0  0
    6.3861    0.4377   -1.3121 O   0  0  0  0  0  0  0  0  0  0  0  0
    6.4306    0.5871    1.1904 O   0  0  0  0  0  0  0  0  0  0  0  0
    6.3945   -1.6885   -0.0621 N   0  0  0  0  0  0  0  0  0  0  0  0
    6.1033   -2.6191    0.9149 C   0  0  0  0  0  0  0  0  0  0  0  0
    5.1507   -2.2754    1.8375 N   0  0  0  0  0  0  0  0  0  0  0  0
    4.7835   -3.1054    2.7596 N   0  0  0  0  0  0  0  0  0  0  0  0
    5.3405   -4.3361    2.8351 C   0  0  0  0  0  0  0  0  0  0  0  0
    6.3340   -4.7833    1.9319 C   0  0  0  0  0  0  0  0  0  0  0  0
    6.7233   -3.9026    0.9481 C   0  0  0  0  0  0  0  0  0  0  0  0
    4.9649   -5.2103    3.7953 O   0  0  0  0  0  0  0  0  0  0  0  0
    3.9687   -4.7431    4.7077 C   0  0  0  0  0  0  0  0  0  0  0  0
   -0.5153   -0.0712    0.8479 H   0  0  0  0  0  0  0  0  0  0  0  0
   -0.5158   -0.0513   -0.8491 H   0  0  0  0  0  0  0  0  0  0  0  0
    1.5507   -0.0202    2.1646 H   0  0  0  0  0  0  0  0  0  0  0  0
    4.0131   -0.0001    2.1658 H   0  0  0  0  0  0  0  0  0  0  0  0
    4.0041    0.0477   -2.1721 H   0  0  0  0  0  0  0  0  0  0  0  0
    1.5417    0.0301   -2.1641 H   0  0  0  0  0  0  0  0  0  0  0  0
    7.1163   -1.9372   -0.7354 H   0  0  0  0  0  0  0  0  0  0  0  0
    6.7567   -5.7803    2.0331 H   0  0  0  0  0  0  0  0  0  0  0  0
    7.4813   -4.1667    0.2163 H   0  0  0  0  0  0  0  0  0  0  0  0
    3.8389   -5.6101    5.3659 H   0  0  0  0  0  0  0  0  0  0  0  0
    3.0423   -4.4992    4.1772 H   0  0  0  0  0  0  0  0  0  0  0  0
    4.3308   -3.8694    5.2605 H   0  0  0  0  0  0  0  0  0  0  0  0
  1  2  1  0  0  0  0
  1 20  1  0  0  0  0
  2  3  2  0  0  0  0
  3 22  1  0  0  0  0
  4  3  1  0  0  0  0
  4 23  1  0  0  0  0
  5  4  2  0  0  0  0
  6  5  1  0  0  0  0
  7  6  2  0  0  0  0
  7  2  1  0  0  0  0
  8  5  1  0  0  0  0
  8 10  2  0  0  0  0
  9  8  2  0  0  0  0
 11  8  1  0  0  0  0
 11 12  1  0  0  0  0
 12 17  1  0  0  0  0
 12 13  2  0  0  0  0
 13 14  1  0  0  0  0
 14 15  2  0  0  0  0
 15 18  1  0  0  0  0
 16 27  1  0  0  0  0
 16 15  1  0  0  0  0
 17 16  2  0  0  0  0
 18 19  1  0  0  0  0
 19 31  1  0  0  0  0
 19 29  1  0  0  0  0
 21  1  1  0  0  0  0
 24  6  1  0  0  0  0
 25  7  1  0  0  0  0
 26 11  1  0  0  0  0
 28 17  1  0  0  0  0
 30 19  1  0  0  0  0
M  END
$$$$
