rmsd157.gzmat
 OpenBabel08211713413D

 35 37  0  0  0  0  0  0  0  0999 V2000
    0.0000    0.0000    0.0000 C   0  0  0  0  0  0  0  0  0  0  0  0
    1.3920    0.0000    0.0000 C   0  0  0  0  0  0  0  0  0  0  0  0
    2.0923    0.0000    1.2057 C   0  0  0  0  0  0  0  0  0  0  0  0
    1.3992   -0.0025    2.4154 C   0  0  0  0  0  0  0  0  0  0  0  0
    0.0071   -0.0025    2.4232 C   0  0  0  0  0  0  0  0  0  0  0  0
   -0.6978   -0.0004    1.2139 C   0  0  0  0  0  0  0  0  0  0  0  0
   -2.1401    0.0018    1.2244 C   0  0  0  0  0  0  0  0  0  0  0  0
   -3.1056   -0.2125    2.1756 C   0  0  0  0  0  0  0  0  0  0  0  0
   -4.3661   -0.0554    1.4714 C   0  0  0  0  0  0  0  0  0  0  0  0
   -5.6838   -0.1912    2.0541 C   0  0  0  0  0  0  0  0  0  0  0  0
   -6.8105   -0.1553    1.3277 C   0  0  0  0  0  0  0  0  0  0  0  0
   -8.1653   -0.3185    1.9364 C   0  0  0  0  0  0  0  0  0  0  0  0
   -9.1319    0.6636    1.3415 C   0  0  0  0  0  0  0  0  0  0  0  0
  -10.1518    0.2282    0.4947 C   0  0  0  0  0  0  0  0  0  0  0  0
  -11.0497    1.1480   -0.0439 C   0  0  0  0  0  0  0  0  0  0  0  0
  -10.9307    2.5027    0.2592 C   0  0  0  0  0  0  0  0  0  0  0  0
   -9.9089    2.9389    1.1019 C   0  0  0  0  0  0  0  0  0  0  0  0
   -9.0099    2.0230    1.6417 C   0  0  0  0  0  0  0  0  0  0  0  0
   -4.1108    0.2337    0.1926 N   0  0  0  0  0  0  0  0  0  0  0  0
   -2.7547    0.2778    0.0098 O   0  0  0  0  0  0  0  0  0  0  0  0
   -0.5440   -0.0003   -0.9453 H   0  0  0  0  0  0  0  0  0  0  0  0
    1.9342    0.0000   -0.9444 H   0  0  0  0  0  0  0  0  0  0  0  0
    3.1812    0.0026    1.2017 H   0  0  0  0  0  0  0  0  0  0  0  0
    1.9469   -0.0035    3.3563 H   0  0  0  0  0  0  0  0  0  0  0  0
   -0.5341   -0.0009    3.3685 H   0  0  0  0  0  0  0  0  0  0  0  0
   -2.9997   -0.4516    3.2094 H   0  0  0  0  0  0  0  0  0  0  0  0
   -5.6968   -0.3298    3.1368 H   0  0  0  0  0  0  0  0  0  0  0  0
   -6.7977   -0.0096    0.2431 H   0  0  0  0  0  0  0  0  0  0  0  0
   -8.1390   -0.1973    3.0420 H   0  0  0  0  0  0  0  0  0  0  0  0
   -8.5088   -1.3669    1.7770 H   0  0  0  0  0  0  0  0  0  0  0  0
  -10.2493   -0.8273    0.2514 H   0  0  0  0  0  0  0  0  0  0  0  0
  -11.8462    0.8061   -0.7019 H   0  0  0  0  0  0  0  0  0  0  0  0
  -11.6322    3.2190   -0.1618 H   0  0  0  0  0  0  0  0  0  0  0  0
   -9.8139    3.9971    1.3379 H   0  0  0  0  0  0  0  0  0  0  0  0
   -8.2080    2.3655    2.2933 H   0  0  0  0  0  0  0  0  0  0  0  0
  1  6  1  0  0  0  0
  2  1  2  0  0  0  0
  2  3  1  0  0  0  0
  3  4  2  0  0  0  0
  4  5  1  0  0  0  0
  4 24  1  0  0  0  0
  5 25  1  0  0  0  0
  6  7  1  0  0  0  0
  6  5  2  0  0  0  0
  7  8  2  0  0  0  0
  8 26  1  0  0  0  0
  9 10  1  0  0  0  0
  9  8  1  0  0  0  0
 10 27  1  0  0  0  0
 11 12  1  0  0  0  0
 11 10  2  0  0  0  0
 12 29  1  0  0  0  0
 13 18  1  0  0  0  0
 13 12  1  0  0  0  0
 14 13  2  0  0  0  0
 15 16  2  0  0  0  0
 15 14  1  0  0  0  0
 16 17  1  0  0  0  0
 17 34  1  0  0  0  0
 17 18  2  0  0  0  0
 18 35  1  0  0  0  0
 19  9  2  0  0  0  0
 20 19  1  0  0  0  0
 20  7  1  0  0  0  0
 21  1  1  0  0  0  0
 22  2  1  0  0  0  0
 23  3  1  0  0  0  0
 28 11  1  0  0  0  0
 30 12  1  0  0  0  0
 31 14  1  0  0  0  0
 32 15  1  0  0  0  0
 33 16  1  0  0  0  0
M  END
$$$$
