rmsd146.gzmat
 OpenBabel08211713413D

 35 37  0  0  0  0  0  0  0  0999 V2000
    0.0000    0.0000    0.0000 C   0  0  0  0  0  0  0  0  0  0  0  0
    1.3920    0.0000    0.0000 C   0  0  0  0  0  0  0  0  0  0  0  0
    2.0919    0.0000    1.2059 C   0  0  0  0  0  0  0  0  0  0  0  0
    1.3986    0.0038    2.4155 C   0  0  0  0  0  0  0  0  0  0  0  0
    0.0066    0.0065    2.4233 C   0  0  0  0  0  0  0  0  0  0  0  0
   -0.6982    0.0025    1.2138 C   0  0  0  0  0  0  0  0  0  0  0  0
   -2.1404    0.0019    1.2251 C   0  0  0  0  0  0  0  0  0  0  0  0
   -3.1060   -0.0123    2.2005 C   0  0  0  0  0  0  0  0  0  0  0  0
   -4.3662   -0.0020    1.4794 C   0  0  0  0  0  0  0  0  0  0  0  0
   -5.6853   -0.0087    2.0744 C   0  0  0  0  0  0  0  0  0  0  0  0
   -6.8095   -0.0273    1.3438 C   0  0  0  0  0  0  0  0  0  0  0  0
   -8.1708   -0.0203    1.9591 C   0  0  0  0  0  0  0  0  0  0  0  0
   -9.0823   -0.9615    1.2272 C   0  0  0  0  0  0  0  0  0  0  0  0
   -8.8396   -2.3366    1.2751 C   0  0  0  0  0  0  0  0  0  0  0  0
   -9.6718   -3.2155    0.5874 C   0  0  0  0  0  0  0  0  0  0  0  0
  -10.7547   -2.7269   -0.1426 C   0  0  0  0  0  0  0  0  0  0  0  0
  -11.0046   -1.3567   -0.1808 C   0  0  0  0  0  0  0  0  0  0  0  0
  -10.1672   -0.4731    0.4980 C   0  0  0  0  0  0  0  0  0  0  0  0
   -4.1114    0.0157    0.1682 N   0  0  0  0  0  0  0  0  0  0  0  0
   -2.7558    0.0179   -0.0202 O   0  0  0  0  0  0  0  0  0  0  0  0
   -0.5429   -0.0025   -0.9461 H   0  0  0  0  0  0  0  0  0  0  0  0
    1.9345    0.0008   -0.9445 H   0  0  0  0  0  0  0  0  0  0  0  0
    3.1805   -0.0023    1.2038 H   0  0  0  0  0  0  0  0  0  0  0  0
    1.9466    0.0059    3.3563 H   0  0  0  0  0  0  0  0  0  0  0  0
   -0.5338    0.0131    3.3692 H   0  0  0  0  0  0  0  0  0  0  0  0
   -3.0012   -0.0297    3.2615 H   0  0  0  0  0  0  0  0  0  0  0  0
   -5.7028    0.0013    3.1658 H   0  0  0  0  0  0  0  0  0  0  0  0
   -6.7896   -0.0430    0.2494 H   0  0  0  0  0  0  0  0  0  0  0  0
   -8.5678    1.0211    1.9416 H   0  0  0  0  0  0  0  0  0  0  0  0
   -8.1390   -0.2910    3.0378 H   0  0  0  0  0  0  0  0  0  0  0  0
   -7.9949   -2.7190    1.8452 H   0  0  0  0  0  0  0  0  0  0  0  0
   -9.4759   -4.2858    0.6175 H   0  0  0  0  0  0  0  0  0  0  0  0
  -11.4017   -3.4144   -0.6822 H   0  0  0  0  0  0  0  0  0  0  0  0
  -11.8554   -0.9738   -0.7410 H   0  0  0  0  0  0  0  0  0  0  0  0
  -10.3625    0.5958    0.4540 H   0  0  0  0  0  0  0  0  0  0  0  0
  1  6  1  0  0  0  0
  2  1  2  0  0  0  0
  2  3  1  0  0  0  0
  3  4  2  0  0  0  0
  4  5  1  0  0  0  0
  4 24  1  0  0  0  0
  5 25  1  0  0  0  0
  6  7  1  0  0  0  0
  6  5  2  0  0  0  0
  7  8  2  0  0  0  0
  8 26  1  0  0  0  0
  9 10  1  0  0  0  0
  9  8  1  0  0  0  0
 10 27  1  0  0  0  0
 11 12  1  0  0  0  0
 11 10  2  0  0  0  0
 12 30  1  0  0  0  0
 13 14  1  0  0  0  0
 13 12  1  0  0  0  0
 14 31  1  0  0  0  0
 15 32  1  0  0  0  0
 15 14  2  0  0  0  0
 16 15  1  0  0  0  0
 17 16  2  0  0  0  0
 17 18  1  0  0  0  0
 18 13  2  0  0  0  0
 19  9  2  0  0  0  0
 20 19  1  0  0  0  0
 20  7  1  0  0  0  0
 21  1  1  0  0  0  0
 22  2  1  0  0  0  0
 23  3  1  0  0  0  0
 28 11  1  0  0  0  0
 29 12  1  0  0  0  0
 33 16  1  0  0  0  0
 34 17  1  0  0  0  0
 35 18  1  0  0  0  0
M  END
$$$$
