rmsd155.gzmat
 OpenBabel08211713413D

 35 37  0  0  0  0  0  0  0  0999 V2000
    0.0000    0.0000    0.0000 C   0  0  0  0  0  0  0  0  0  0  0  0
    1.3917    0.0000    0.0000 C   0  0  0  0  0  0  0  0  0  0  0  0
    2.0918    0.0000    1.2058 C   0  0  0  0  0  0  0  0  0  0  0  0
    1.3983    0.0036    2.4152 C   0  0  0  0  0  0  0  0  0  0  0  0
    0.0064    0.0084    2.4227 C   0  0  0  0  0  0  0  0  0  0  0  0
   -0.6986    0.0053    1.2134 C   0  0  0  0  0  0  0  0  0  0  0  0
   -2.1407    0.0061    1.2245 C   0  0  0  0  0  0  0  0  0  0  0  0
   -3.1057   -0.0289    2.2000 C   0  0  0  0  0  0  0  0  0  0  0  0
   -4.3666    0.0002    1.4807 C   0  0  0  0  0  0  0  0  0  0  0  0
   -5.6870   -0.0199    2.0732 C   0  0  0  0  0  0  0  0  0  0  0  0
   -6.8088    0.0386    1.3406 C   0  0  0  0  0  0  0  0  0  0  0  0
   -8.1722    0.0303    1.9503 C   0  0  0  0  0  0  0  0  0  0  0  0
   -9.1357   -0.7223    1.0801 C   0  0  0  0  0  0  0  0  0  0  0  0
   -8.9795   -2.1001    0.9074 C   0  0  0  0  0  0  0  0  0  0  0  0
   -9.8697   -2.8068    0.1038 C   0  0  0  0  0  0  0  0  0  0  0  0
  -10.9190   -2.1420   -0.5298 C   0  0  0  0  0  0  0  0  0  0  0  0
  -11.0727   -0.7677   -0.3612 C   0  0  0  0  0  0  0  0  0  0  0  0
  -10.1827   -0.0566    0.4419 C   0  0  0  0  0  0  0  0  0  0  0  0
   -4.1122    0.0479    0.1700 N   0  0  0  0  0  0  0  0  0  0  0  0
   -2.7567    0.0532   -0.0194 O   0  0  0  0  0  0  0  0  0  0  0  0
   -0.5427   -0.0048   -0.9461 H   0  0  0  0  0  0  0  0  0  0  0  0
    1.9337   -0.0005   -0.9445 H   0  0  0  0  0  0  0  0  0  0  0  0
    3.1803   -0.0031    1.2026 H   0  0  0  0  0  0  0  0  0  0  0  0
    1.9454    0.0019    3.3563 H   0  0  0  0  0  0  0  0  0  0  0  0
   -0.5343    0.0142    3.3682 H   0  0  0  0  0  0  0  0  0  0  0  0
   -2.9976   -0.0694    3.2597 H   0  0  0  0  0  0  0  0  0  0  0  0
   -5.7075   -0.0853    3.1625 H   0  0  0  0  0  0  0  0  0  0  0  0
   -6.7842    0.1028    0.2481 H   0  0  0  0  0  0  0  0  0  0  0  0
   -8.5053    1.0829    2.1033 H   0  0  0  0  0  0  0  0  0  0  0  0
   -8.1645   -0.4128    2.9711 H   0  0  0  0  0  0  0  0  0  0  0  0
   -8.1565   -2.6188    1.3962 H   0  0  0  0  0  0  0  0  0  0  0  0
   -9.7454   -3.8795   -0.0311 H   0  0  0  0  0  0  0  0  0  0  0  0
  -11.6149   -2.6950   -1.1561 H   0  0  0  0  0  0  0  0  0  0  0  0
  -11.8892   -0.2475   -0.8578 H   0  0  0  0  0  0  0  0  0  0  0  0
  -10.3067    1.0166    0.5659 H   0  0  0  0  0  0  0  0  0  0  0  0
  1  6  1  0  0  0  0
  2  1  2  0  0  0  0
  2  3  1  0  0  0  0
  3  4  2  0  0  0  0
  4  5  1  0  0  0  0
  4 24  1  0  0  0  0
  5 25  1  0  0  0  0
  6  7  1  0  0  0  0
  6  5  2  0  0  0  0
  7  8  2  0  0  0  0
  8 26  1  0  0  0  0
  9 10  1  0  0  0  0
  9  8  1  0  0  0  0
 10 27  1  0  0  0  0
 11 12  1  0  0  0  0
 11 10  2  0  0  0  0
 12 29  1  0  0  0  0
 12 30  1  0  0  0  0
 13 12  1  0  0  0  0
 14 13  1  0  0  0  0
 14 31  1  0  0  0  0
 15 14  2  0  0  0  0
 16 17  2  0  0  0  0
 16 15  1  0  0  0  0
 17 18  1  0  0  0  0
 18 35  1  0  0  0  0
 18 13  2  0  0  0  0
 19  9  2  0  0  0  0
 20 19  1  0  0  0  0
 20  7  1  0  0  0  0
 21  1  1  0  0  0  0
 22  2  1  0  0  0  0
 23  3  1  0  0  0  0
 28 11  1  0  0  0  0
 32 15  1  0  0  0  0
 33 16  1  0  0  0  0
 34 17  1  0  0  0  0
M  END
$$$$
