
     RDKit          3D

 35 37  0  0  0  0  0  0  0  0999 V2000
    0.0301   -0.0860   -0.0541 C   0  0  0  0  0  0  0  0  0  0  0  0
    1.4230   -0.1512   -0.0740 C   0  0  0  0  0  0  0  0  0  0  0  0
    2.1492   -0.1023    1.1194 C   0  0  0  0  0  0  0  0  0  0  0  0
    1.4729    0.0127    2.3385 C   0  0  0  0  0  0  0  0  0  0  0  0
    0.0812    0.0784    2.3646 C   0  0  0  0  0  0  0  0  0  0  0  0
   -0.6563    0.0296    1.1680 C   0  0  0  0  0  0  0  0  0  0  0  0
   -2.1155    0.0982    1.1955 C   0  0  0  0  0  0  0  0  0  0  0  0
   -3.0385    0.2043    2.2027 C   0  0  0  0  0  0  0  0  0  0  0  0
   -4.2981    0.2194    1.5236 C   0  0  0  0  0  0  0  0  0  0  0  0
   -5.6491    0.3189    2.0664 C   0  0  0  0  0  0  0  0  0  0  0  0
   -5.9493    0.4014    3.3713 C   0  0  0  0  0  0  0  0  0  0  0  0
   -7.3410    0.5242    3.9207 C   0  0  0  0  0  0  0  0  0  0  0  0
   -7.5427    1.8030    4.7149 C   0  0  0  0  0  0  0  0  0  0  0  0
   -7.2932    3.0499    4.1207 C   0  0  0  0  0  0  0  0  0  0  0  0
   -7.4804    4.2325    4.8378 C   0  0  0  0  0  0  0  0  0  0  0  0
   -7.9156    4.1876    6.1664 C   0  0  0  0  0  0  0  0  0  0  0  0
   -8.1616    2.9523    6.7695 C   0  0  0  0  0  0  0  0  0  0  0  0
   -7.9744    1.7698    6.0471 C   0  0  0  0  0  0  0  0  0  0  0  0
   -4.1278    0.1294    0.2160 N   0  0  0  0  0  0  0  0  0  0  0  0
   -2.7676    0.0535    0.0122 O   0  0  0  0  0  0  0  0  0  0  0  0
   -0.5398   -0.1239   -0.9832 H   0  0  0  0  0  0  0  0  0  0  0  0
    1.9457   -0.2410   -1.0291 H   0  0  0  0  0  0  0  0  0  0  0  0
    3.2403   -0.1536    1.1008 H   0  0  0  0  0  0  0  0  0  0  0  0
    2.0343    0.0518    3.2749 H   0  0  0  0  0  0  0  0  0  0  0  0
   -0.4389    0.1686    3.3202 H   0  0  0  0  0  0  0  0  0  0  0  0
   -2.8559    0.2649    3.2706 H   0  0  0  0  0  0  0  0  0  0  0  0
   -6.4456    0.3214    1.3158 H   0  0  0  0  0  0  0  0  0  0  0  0
   -5.1424    0.4071    4.1133 H   0  0  0  0  0  0  0  0  0  0  0  0
   -7.5560   -0.3364    4.5774 H   0  0  0  0  0  0  0  0  0  0  0  0
   -8.0664    0.4786    3.0907 H   0  0  0  0  0  0  0  0  0  0  0  0
   -6.9442    3.0888    3.0855 H   0  0  0  0  0  0  0  0  0  0  0  0
   -7.2841    5.1949    4.3586 H   0  0  0  0  0  0  0  0  0  0  0  0
   -8.0607    5.1130    6.7289 H   0  0  0  0  0  0  0  0  0  0  0  0
   -8.5001    2.9066    7.8076 H   0  0  0  0  0  0  0  0  0  0  0  0
   -8.1695    0.8054    6.5245 H   0  0  0  0  0  0  0  0  0  0  0  0
  1  2  2  0
  1  6  1  0
  1 21  1  0
  2  3  1  0
  2 22  1  0
  3  4  2  0
  3 23  1  0
  4  5  1  0
  4 24  1  0
  5  6  2  0
  5 25  1  0
  6  7  1  0
  7  8  2  0
  7 20  1  0
  8  9  1  0
  8 26  1  0
  9 10  1  0
  9 19  2  0
 10 11  2  0
 10 27  1  0
 11 12  1  0
 11 28  1  0
 12 13  1  0
 12 29  1  0
 12 30  1  0
 13 14  2  0
 13 18  1  0
 14 15  1  0
 14 31  1  0
 15 16  2  0
 15 32  1  0
 16 17  1  0
 16 33  1  0
 17 18  2  0
 17 34  1  0
 18 35  1  0
 19 20  1  0
M  END

