35
rmsd168.gzmat
C          0.00000        0.00000        0.00000
C          1.39210        0.00000        0.00000
C          2.09200        0.00000        1.20590
C          1.39910       -0.00250        2.41580
C          0.00710       -0.00170        2.42350
C         -0.69710        0.00060        1.21380
C         -2.13920        0.00800        1.22610
C         -3.10300       -0.25610        2.16600
C         -4.36400       -0.03820        1.47910
C         -5.67900       -0.19060        2.06210
C         -6.80090        0.22160        1.45360
C         -8.14930        0.03900        2.06980
C         -9.14140        1.01420        1.50800
C         -9.75730        0.75680        0.28110
C        -10.67820        1.66240       -0.23980
C        -10.98920        2.82610        0.46210
C        -10.37400        3.08390        1.68560
C         -9.44890        2.18220        2.20760
N         -4.11070        0.32510        0.21900
O         -2.75460        0.36360        0.03300
H         -0.54460       -0.00210       -0.94490
H          1.93460       -0.00020       -0.94420
H          3.18090        0.00260        1.20250
H          1.94700       -0.00400        3.35640
H         -0.53490        0.00140        3.36840
H         -2.99630       -0.55940        3.18270
H         -5.69460       -0.66740        3.04410
H         -6.78480        0.70250        0.47100
H         -8.09640        0.12880        3.17740
H         -8.49120       -1.00820        1.89210
H         -9.51570       -0.14950       -0.27030
H        -11.15590        1.46150       -1.19680
H        -11.70930        3.53220        0.05530
H        -10.61680        3.99160        2.23480
H         -8.96450        2.39290        3.15850
