
     RDKit          3D

 35 37  0  0  0  0  0  0  0  0999 V2000
    0.0253    0.0120    0.0332 C   0  0  0  0  0  0  0  0  0  0  0  0
    1.4139    0.1290    0.0857 C   0  0  0  0  0  0  0  0  0  0  0  0
    2.0668    0.2451    1.3164 C   0  0  0  0  0  0  0  0  0  0  0  0
    1.3209    0.2436    2.4998 C   0  0  0  0  0  0  0  0  0  0  0  0
   -0.0670    0.1269    2.4535 C   0  0  0  0  0  0  0  0  0  0  0  0
   -0.7310    0.0098    1.2191 C   0  0  0  0  0  0  0  0  0  0  0  0
   -2.1858   -0.1122    1.1713 C   0  0  0  0  0  0  0  0  0  0  0  0
   -3.1678   -0.1423    2.1290 C   0  0  0  0  0  0  0  0  0  0  0  0
   -4.3813   -0.2802    1.3864 C   0  0  0  0  0  0  0  0  0  0  0  0
   -5.7385   -0.3597    1.9306 C   0  0  0  0  0  0  0  0  0  0  0  0
   -6.8530   -0.4778    1.1926 C   0  0  0  0  0  0  0  0  0  0  0  0
   -8.2414   -0.5483    1.7555 C   0  0  0  0  0  0  0  0  0  0  0  0
   -9.1288    0.5900    1.2812 C   0  0  0  0  0  0  0  0  0  0  0  0
  -10.3736    0.3398    0.6892 C   0  0  0  0  0  0  0  0  0  0  0  0
  -11.1911    1.3926    0.2674 C   0  0  0  0  0  0  0  0  0  0  0  0
  -10.7707    2.7144    0.4300 C   0  0  0  0  0  0  0  0  0  0  0  0
   -9.5276    2.9757    1.0153 C   0  0  0  0  0  0  0  0  0  0  0  0
   -8.7141    1.9218    1.4343 C   0  0  0  0  0  0  0  0  0  0  0  0
   -4.1344   -0.3289    0.0890 N   0  0  0  0  0  0  0  0  0  0  0  0
   -2.7671   -0.2237   -0.0420 O   0  0  0  0  0  0  0  0  0  0  0  0
   -0.4873   -0.0787   -0.9252 H   0  0  0  0  0  0  0  0  0  0  0  0
    1.9911    0.1295   -0.8418 H   0  0  0  0  0  0  0  0  0  0  0  0
    3.1547    0.3366    1.3544 H   0  0  0  0  0  0  0  0  0  0  0  0
    1.8245    0.3339    3.4650 H   0  0  0  0  0  0  0  0  0  0  0  0
   -0.6418    0.1264    3.3817 H   0  0  0  0  0  0  0  0  0  0  0  0
   -3.0579   -0.0765    3.2072 H   0  0  0  0  0  0  0  0  0  0  0  0
   -5.8104   -0.3185    3.0224 H   0  0  0  0  0  0  0  0  0  0  0  0
   -6.7591   -0.5057    0.1016 H   0  0  0  0  0  0  0  0  0  0  0  0
   -8.1921   -0.5489    2.8583 H   0  0  0  0  0  0  0  0  0  0  0  0
   -8.7085   -1.5037    1.4600 H   0  0  0  0  0  0  0  0  0  0  0  0
  -10.7078   -0.6931    0.5576 H   0  0  0  0  0  0  0  0  0  0  0  0
  -12.1590    1.1777   -0.1925 H   0  0  0  0  0  0  0  0  0  0  0  0
  -11.4070    3.5388    0.0991 H   0  0  0  0  0  0  0  0  0  0  0  0
   -9.1889    4.0069    1.1427 H   0  0  0  0  0  0  0  0  0  0  0  0
   -7.7386    2.1302    1.8813 H   0  0  0  0  0  0  0  0  0  0  0  0
  1  2  2  0
  1  6  1  0
  1 21  1  0
  2  3  1  0
  2 22  1  0
  3  4  2  0
  3 23  1  0
  4  5  1  0
  4 24  1  0
  5  6  2  0
  5 25  1  0
  6  7  1  0
  7  8  2  0
  7 20  1  0
  8  9  1  0
  8 26  1  0
  9 10  1  0
  9 19  2  0
 10 11  2  0
 10 27  1  0
 11 12  1  0
 11 28  1  0
 12 13  1  0
 12 29  1  0
 12 30  1  0
 13 14  2  0
 13 18  1  0
 14 15  1  0
 14 31  1  0
 15 16  2  0
 15 32  1  0
 16 17  1  0
 16 33  1  0
 17 18  2  0
 17 34  1  0
 18 35  1  0
 19 20  1  0
M  END

