rmsd160.gzmat
 OpenBabel08211713413D

 35 37  0  0  0  0  0  0  0  0999 V2000
    0.0000    0.0000    0.0000 C   0  0  0  0  0  0  0  0  0  0  0  0
    1.3919    0.0000    0.0000 C   0  0  0  0  0  0  0  0  0  0  0  0
    2.0916    0.0000    1.2060 C   0  0  0  0  0  0  0  0  0  0  0  0
    1.3996   -0.0055    2.4163 C   0  0  0  0  0  0  0  0  0  0  0  0
    0.0076   -0.0049    2.4244 C   0  0  0  0  0  0  0  0  0  0  0  0
   -0.6957    0.0021    1.2142 C   0  0  0  0  0  0  0  0  0  0  0  0
   -2.1378    0.0102    1.2132 C   0  0  0  0  0  0  0  0  0  0  0  0
   -3.1112   -0.3514    0.3169 C   0  0  0  0  0  0  0  0  0  0  0  0
   -4.3643   -0.0748    0.9965 C   0  0  0  0  0  0  0  0  0  0  0  0
   -5.6890   -0.2972    0.4581 C   0  0  0  0  0  0  0  0  0  0  0  0
   -6.7943    0.2062    1.0257 C   0  0  0  0  0  0  0  0  0  0  0  0
   -8.1613   -0.0088    0.4633 C   0  0  0  0  0  0  0  0  0  0  0  0
   -9.1618   -0.1821    1.5684 C   0  0  0  0  0  0  0  0  0  0  0  0
  -10.1406    0.7862    1.7934 C   0  0  0  0  0  0  0  0  0  0  0  0
  -11.0643    0.6154    2.8230 C   0  0  0  0  0  0  0  0  0  0  0  0
  -11.0092   -0.5174    3.6323 C   0  0  0  0  0  0  0  0  0  0  0  0
  -10.0279   -1.4831    3.4106 C   0  0  0  0  0  0  0  0  0  0  0  0
   -9.1069   -1.3184    2.3798 C   0  0  0  0  0  0  0  0  0  0  0  0
   -4.0972    0.4164    2.2096 N   0  0  0  0  0  0  0  0  0  0  0  0
   -2.7393    0.4822    2.3723 O   0  0  0  0  0  0  0  0  0  0  0  0
   -0.5481    0.0015   -0.9414 H   0  0  0  0  0  0  0  0  0  0  0  0
    1.9349    0.0023   -0.9435 H   0  0  0  0  0  0  0  0  0  0  0  0
    3.1801    0.0054    1.2007 H   0  0  0  0  0  0  0  0  0  0  0  0
    1.9471   -0.0096    3.3575 H   0  0  0  0  0  0  0  0  0  0  0  0
   -0.5323   -0.0136    3.3720 H   0  0  0  0  0  0  0  0  0  0  0  0
   -3.0135   -0.7549   -0.6653 H   0  0  0  0  0  0  0  0  0  0  0  0
   -5.7247   -0.9058   -0.4469 H   0  0  0  0  0  0  0  0  0  0  0  0
   -6.7521    0.8110    1.9368 H   0  0  0  0  0  0  0  0  0  0  0  0
   -8.1971   -0.8881   -0.2174 H   0  0  0  0  0  0  0  0  0  0  0  0
   -8.4244    0.8586   -0.1856 H   0  0  0  0  0  0  0  0  0  0  0  0
  -10.1841    1.6770    1.1710 H   0  0  0  0  0  0  0  0  0  0  0  0
  -11.8291    1.3695    2.9966 H   0  0  0  0  0  0  0  0  0  0  0  0
  -11.7296   -0.6466    4.4365 H   0  0  0  0  0  0  0  0  0  0  0  0
   -9.9806   -2.3652    4.0462 H   0  0  0  0  0  0  0  0  0  0  0  0
   -8.3368   -2.0694    2.2111 H   0  0  0  0  0  0  0  0  0  0  0  0
  1  6  1  0  0  0  0
  2  1  2  0  0  0  0
  2  3  1  0  0  0  0
  3  4  2  0  0  0  0
  4  5  1  0  0  0  0
  4 24  1  0  0  0  0
  5 25  1  0  0  0  0
  6  5  2  0  0  0  0
  7  6  1  0  0  0  0
  7 20  1  0  0  0  0
  8  9  1  0  0  0  0
  8  7  2  0  0  0  0
  9 19  2  0  0  0  0
 10  9  1  0  0  0  0
 10 11  2  0  0  0  0
 11 28  1  0  0  0  0
 12 11  1  0  0  0  0
 12 13  1  0  0  0  0
 13 14  2  0  0  0  0
 13 18  1  0  0  0  0
 14 15  1  0  0  0  0
 15 32  1  0  0  0  0
 15 16  2  0  0  0  0
 16 33  1  0  0  0  0
 17 16  1  0  0  0  0
 17 34  1  0  0  0  0
 18 17  2  0  0  0  0
 19 20  1  0  0  0  0
 21  1  1  0  0  0  0
 22  2  1  0  0  0  0
 23  3  1  0  0  0  0
 26  8  1  0  0  0  0
 27 10  1  0  0  0  0
 29 12  1  0  0  0  0
 30 12  1  0  0  0  0
 31 14  1  0  0  0  0
 35 18  1  0  0  0  0
M  END
$$$$
