35
rmsd157.gzmat
C          0.00000        0.00000        0.00000
C          1.39200        0.00000        0.00000
C          2.09230        0.00000        1.20570
C          1.39920       -0.00250        2.41540
C          0.00710       -0.00250        2.42320
C         -0.69780       -0.00040        1.21390
C         -2.14010        0.00180        1.22440
C         -3.10560       -0.21250        2.17560
C         -4.36610       -0.05540        1.47140
C         -5.68380       -0.19120        2.05410
C         -6.81050       -0.15530        1.32770
C         -8.16530       -0.31850        1.93640
C         -9.13190        0.66360        1.34150
C        -10.15180        0.22820        0.49470
C        -11.04970        1.14800       -0.04390
C        -10.93070        2.50270        0.25920
C         -9.90890        2.93890        1.10190
C         -9.00990        2.02300        1.64170
N         -4.11080        0.23370        0.19260
O         -2.75470        0.27780        0.00980
H         -0.54400       -0.00030       -0.94530
H          1.93420        0.00000       -0.94440
H          3.18120        0.00260        1.20170
H          1.94690       -0.00350        3.35630
H         -0.53410       -0.00090        3.36850
H         -2.99970       -0.45160        3.20940
H         -5.69680       -0.32980        3.13680
H         -6.79770       -0.00960        0.24310
H         -8.13900       -0.19730        3.04200
H         -8.50880       -1.36690        1.77700
H        -10.24930       -0.82730        0.25140
H        -11.84620        0.80610       -0.70190
H        -11.63220        3.21900       -0.16180
H         -9.81390        3.99710        1.33790
H         -8.20800        2.36550        2.29330
