35
rmsd144.gzmat
C          0.00000        0.00000        0.00000
C          1.39200        0.00000        0.00000
C          2.09220        0.00000        1.20590
C          1.39970       -0.00100        2.41590
C          0.00780       -0.00020        2.42360
C         -0.69650        0.00080        1.21410
C         -2.13830        0.00410        1.22670
C         -3.10010       -0.25430        2.17060
C         -4.36220       -0.05300        1.48200
C         -5.67990       -0.20560        2.06070
C         -6.79930        0.14300        1.41070
C         -8.16320       -0.01990        1.99940
C         -8.91410        1.27480        1.88200
C         -9.61780        1.57350        0.71360
C        -10.29430        2.78550        0.59940
C        -10.27280        3.70120        1.65020
C         -9.57140        3.40290        2.81690
C         -8.89200        2.19250        2.93410
N         -4.11140        0.29700        0.21730
O         -2.75580        0.34250        0.02980
H         -0.54580       -0.00250       -0.94420
H          1.93390        0.00000       -0.94440
H          3.18080        0.00100        1.20280
H          1.94700       -0.00200        3.35690
H         -0.53330        0.00240        3.36880
H         -2.98850       -0.54440        3.19050
H         -5.69850       -0.62220        3.06850
H         -6.77240        0.57300        0.40480
H         -8.12110       -0.35570        3.05740
H         -8.70020       -0.83840        1.46640
H         -9.63530        0.86280       -0.10990
H        -10.83900        3.01920       -0.31320
H        -10.80050        4.64770        1.55920
H         -9.55160        4.11730        3.63750
H         -8.34000        1.96730        3.84390
