35
rmsd125.gzmat
C          0.00000        0.00000        0.00000
C          1.39210        0.00000        0.00000
C          2.09240        0.00000        1.20570
C          1.39950        0.00130        2.41550
C          0.00770        0.00550        2.42380
C         -0.69680        0.00440        1.21430
C         -2.13890        0.00750        1.22760
C         -3.10030       -0.27340        2.16530
C         -4.36290       -0.06150        1.48010
C         -5.67770       -0.23420        2.05910
C         -6.80700        0.06460        1.40130
C         -8.16290       -0.10590        2.00490
C         -9.08210       -0.78810        1.03400
C         -8.82220       -2.10500        0.64590
C         -9.66890       -2.74600       -0.25410
C        -10.77860       -2.07660       -0.76840
C        -11.03750       -0.76340       -0.38170
C        -10.19110       -0.11780        0.51780
N         -4.11250        0.31810        0.22420
O         -2.75690        0.37100        0.03860
H         -0.54540       -0.00730       -0.94470
H          1.93400       -0.00150       -0.94460
H          3.18130       -0.00100        1.20300
H          1.94680       -0.00020        3.35650
H         -0.53300        0.01340        3.36940
H         -2.99000       -0.58640        3.17840
H         -5.68550       -0.62690        3.07730
H         -6.79650        0.45430        0.37870
H         -8.55490        0.89490        2.29930
H         -8.12610       -0.68490        2.95430
H         -7.95250       -2.62630        1.04250
H         -9.46270       -3.77070       -0.55730
H        -11.44000       -2.57850       -1.47100
H        -11.90280       -0.23860       -0.78210
H        -10.39800        0.90860        0.81240
