25
rmsd121.gzmat
O          0.00000        0.00000        0.00000
C          1.35100        0.00000        0.00000
O          1.92430        0.00000        1.05770
C          2.01520       -0.00230       -1.32010
N          1.37790       -0.22040       -2.47030
O          2.28710       -0.20460       -3.48510
C          3.54310        0.04010       -2.94350
C          3.42460        0.18840       -1.57900
C          4.47200        0.46230       -0.58310
C          4.87300       -0.84130        0.14670
H          4.16700       -1.67200       -0.14690
N          4.84690       -0.73960        1.61740
C          6.27060       -1.28900       -0.28980
O          6.75520       -1.05240       -1.36460
O          6.95940       -2.04170        0.59230
C          4.65300        0.06320       -3.88800
H         -0.41460       -0.02740       -0.90310
H          4.11260        1.21820        0.15250
H          5.36080        0.93210       -1.06440
H          3.88550       -0.72770        1.94670
H          5.29980        0.10200        1.94840
H          6.48750       -2.13590        1.47160
H          4.88050        1.08520       -4.23910
H          4.47160       -0.55240       -4.78430
H          5.58720       -0.32310       -3.42040
