25
rmsd175.gzmat
O          0.00000        0.00000        0.00000
C          1.35100        0.00000        0.00000
O          1.92520        0.00000        1.05710
C          2.01480        0.00300       -1.32030
N          1.38060       -0.22210       -2.47090
O          2.28970       -0.18970       -3.48560
C          3.54160        0.07320       -2.94330
C          3.42110        0.21370       -1.57820
C          4.46460        0.49040       -0.57920
C          4.88550       -0.81940        0.12860
H          4.18590       -1.65320       -0.17240
N          4.86630       -0.74040        1.60070
C          6.28390       -1.24640       -0.32510
O          6.75890       -0.98690       -1.39910
O          6.98460       -2.01130        0.53670
C          4.65150        0.12270       -3.88660
H         -0.41510       -0.03910       -0.90290
H          4.09350        1.22780        0.16910
H          5.34530        0.98210       -1.05290
H          3.90570       -0.73000        1.93340
H          5.32400        0.09390        1.94260
H          6.51830       -2.13010        1.41560
H          4.92370        1.16030       -4.15200
H          4.44600       -0.40940       -4.82990
H          5.56880       -0.33560       -3.45170
