25
rmsd200.gzmat
O          0.00000        0.00000        0.00000
C          1.35090        0.00000        0.00000
O          1.92440        0.00000        1.05750
C          2.01410        0.00440       -1.32040
N          1.38450       -0.25780       -2.46560
O          2.28980       -0.21470       -3.48330
C          3.53430        0.09410       -2.94860
C          3.41290        0.25320       -1.58550
C          4.45140        0.58160       -0.59690
C          4.92580       -0.70000        0.12840
H          4.28050       -1.57270       -0.18320
N          4.87040       -0.61290        1.59930
C          6.35600       -1.05140       -0.29100
O          6.83250       -0.78860       -1.36360
O          7.08750       -1.74940        0.60140
C          4.64000        0.16100       -3.89580
H         -0.41620       -0.04370       -0.90220
H          4.05980        1.31750        0.14200
H          5.31060        1.09750       -1.08510
H          3.90510       -0.66680        1.91420
H          5.26170        0.25410        1.94320
H          6.61330       -1.87640        1.47570
H          4.82890        1.19310       -4.24200
H          4.47890       -0.45650       -4.79510
H          5.58910       -0.19120       -3.43160
