25
rmsd10.gzmat
O          0.00000        0.00000        0.00000
C          1.35070        0.00000        0.00000
O          1.92370        0.00000        1.05750
C          2.01420        0.00350       -1.32040
N          1.39380       -0.30530       -2.45880
O          2.29670       -0.25180       -3.47820
C          3.52940        0.11320       -2.95160
C          3.40250        0.29700       -1.59190
C          4.42850        0.68550       -0.61170
C          4.95110       -0.56080        0.14170
H          4.34740       -1.46580       -0.15990
N          4.87850       -0.44950        1.61030
C          6.39890       -0.85800       -0.25860
O          6.86940       -0.60620       -1.33640
O          7.15590       -1.49310        0.65880
C          4.63070        0.19650       -3.90250
H         -0.41650       -0.04330       -0.90170
H          4.01010        1.42270        0.11110
H          5.26790        1.22160       -1.11260
H          3.91540       -0.55330        1.91890
H          5.21610        0.44520        1.94010
H          6.68160       -1.61740        1.53370
H          4.84610        1.23950       -4.19850
H          4.44910       -0.37070       -4.83030
H          5.57360       -0.19980       -3.46170
