rmsd200.gzmat
 OpenBabel08211713423D

 25 25  0  0  1  0  0  0  0  0999 V2000
    0.0000    0.0000    0.0000 O   0  0  0  0  0  0  0  0  0  0  0  0
    1.3509    0.0000    0.0000 C   0  0  0  0  0  0  0  0  0  0  0  0
    1.9244    0.0000    1.0575 O   0  0  0  0  0  0  0  0  0  0  0  0
    2.0141    0.0044   -1.3204 C   0  0  0  0  0  0  0  0  0  0  0  0
    1.3845   -0.2578   -2.4656 N   0  0  0  0  0  0  0  0  0  0  0  0
    2.2898   -0.2147   -3.4833 O   0  0  0  0  0  0  0  0  0  0  0  0
    3.5343    0.0941   -2.9486 C   0  0  0  0  0  0  0  0  0  0  0  0
    3.4129    0.2532   -1.5855 C   0  0  0  0  0  0  0  0  0  0  0  0
    4.4514    0.5816   -0.5969 C   0  0  0  0  0  0  0  0  0  0  0  0
    4.9258   -0.7000    0.1284 C   0  0  2  0  0  0  0  0  0  0  0  0
    4.2805   -1.5727   -0.1832 H   0  0  0  0  0  0  0  0  0  0  0  0
    4.8704   -0.6129    1.5993 N   0  0  0  0  0  0  0  0  0  0  0  0
    6.3560   -1.0514   -0.2910 C   0  0  0  0  0  0  0  0  0  0  0  0
    6.8325   -0.7886   -1.3636 O   0  0  0  0  0  0  0  0  0  0  0  0
    7.0875   -1.7494    0.6014 O   0  0  0  0  0  0  0  0  0  0  0  0
    4.6400    0.1610   -3.8958 C   0  0  0  0  0  0  0  0  0  0  0  0
   -0.4162   -0.0437   -0.9022 H   0  0  0  0  0  0  0  0  0  0  0  0
    4.0598    1.3175    0.1420 H   0  0  0  0  0  0  0  0  0  0  0  0
    5.3106    1.0975   -1.0851 H   0  0  0  0  0  0  0  0  0  0  0  0
    3.9051   -0.6668    1.9142 H   0  0  0  0  0  0  0  0  0  0  0  0
    5.2617    0.2541    1.9432 H   0  0  0  0  0  0  0  0  0  0  0  0
    6.6133   -1.8764    1.4757 H   0  0  0  0  0  0  0  0  0  0  0  0
    4.8289    1.1931   -4.2420 H   0  0  0  0  0  0  0  0  0  0  0  0
    4.4789   -0.4565   -4.7951 H   0  0  0  0  0  0  0  0  0  0  0  0
    5.5891   -0.1912   -3.4316 H   0  0  0  0  0  0  0  0  0  0  0  0
  1  2  1  0  0  0  0
  2  3  2  0  0  0  0
  4  2  1  0  0  0  0
  5  4  2  0  0  0  0
  6  7  1  0  0  0  0
  6  5  1  0  0  0  0
  7  8  2  0  0  0  0
  8  4  1  0  0  0  0
  8  9  1  0  0  0  0
  9 10  1  0  0  0  0
  9 18  1  0  0  0  0
 10 11  1  6  0  0  0
 10 12  1  0  0  0  0
 12 20  1  0  0  0  0
 12 21  1  0  0  0  0
 13 10  1  0  0  0  0
 13 15  1  0  0  0  0
 14 13  2  0  0  0  0
 15 22  1  0  0  0  0
 16 25  1  0  0  0  0
 16  7  1  0  0  0  0
 17  1  1  0  0  0  0
 19  9  1  0  0  0  0
 23 16  1  0  0  0  0
 24 16  1  0  0  0  0
M  END
$$$$
