rmsd216.gzmat
 OpenBabel08211713423D

 25 25  0  0  1  0  0  0  0  0999 V2000
    0.0000    0.0000    0.0000 O   0  0  0  0  0  0  0  0  0  0  0  0
    1.3507    0.0000    0.0000 C   0  0  0  0  0  0  0  0  0  0  0  0
    1.9227    0.0000    1.0583 O   0  0  0  0  0  0  0  0  0  0  0  0
    2.0154    0.0009   -1.3199 C   0  0  0  0  0  0  0  0  0  0  0  0
    1.3818   -0.2359   -2.4685 N   0  0  0  0  0  0  0  0  0  0  0  0
    2.2885   -0.1986   -3.4855 O   0  0  0  0  0  0  0  0  0  0  0  0
    3.5380    0.0797   -2.9465 C   0  0  0  0  0  0  0  0  0  0  0  0
    3.4191    0.2231   -1.5813 C   0  0  0  0  0  0  0  0  0  0  0  0
    4.4683    0.5146   -0.5925 C   0  0  0  0  0  0  0  0  0  0  0  0
    4.9325   -0.7903    0.0979 C   0  0  2  0  0  0  0  0  0  0  0  0
    4.3053   -1.6551   -0.2668 H   0  0  0  0  0  0  0  0  0  0  0  0
    4.8307   -0.7625    1.5686 N   0  0  0  0  0  0  0  0  0  0  0  0
    6.3770   -1.1138   -0.2925 C   0  0  0  0  0  0  0  0  0  0  0  0
    6.8767   -0.8155   -1.3450 O   0  0  0  0  0  0  0  0  0  0  0  0
    7.0965   -1.8244    0.5993 O   0  0  0  0  0  0  0  0  0  0  0  0
    4.6487    0.1423   -3.8882 C   0  0  0  0  0  0  0  0  0  0  0  0
   -0.4159   -0.0314   -0.9024 H   0  0  0  0  0  0  0  0  0  0  0  0
    4.0934    1.2388    0.1666 H   0  0  0  0  0  0  0  0  0  0  0  0
    5.3304    1.0310   -1.0763 H   0  0  0  0  0  0  0  0  0  0  0  0
    3.8551   -0.8167    1.8489 H   0  0  0  0  0  0  0  0  0  0  0  0
    5.2163    0.0877    1.9598 H   0  0  0  0  0  0  0  0  0  0  0  0
    6.5977   -1.9961    1.4513 H   0  0  0  0  0  0  0  0  0  0  0  0
    5.5823   -0.2617   -3.4350 H   0  0  0  0  0  0  0  0  0  0  0  0
    4.8786    1.1806   -4.1894 H   0  0  0  0  0  0  0  0  0  0  0  0
    4.4692   -0.4296   -4.8133 H   0  0  0  0  0  0  0  0  0  0  0  0
  1  2  1  0  0  0  0
  2  3  2  0  0  0  0
  4  2  1  0  0  0  0
  5  4  2  0  0  0  0
  6  7  1  0  0  0  0
  6  5  1  0  0  0  0
  7  8  2  0  0  0  0
  8  4  1  0  0  0  0
  8  9  1  0  0  0  0
  9 10  1  0  0  0  0
  9 18  1  0  0  0  0
 10 11  1  6  0  0  0
 10 12  1  0  0  0  0
 12 20  1  0  0  0  0
 12 21  1  0  0  0  0
 13 10  1  0  0  0  0
 13 15  1  0  0  0  0
 14 13  2  0  0  0  0
 15 22  1  0  0  0  0
 16 23  1  0  0  0  0
 16  7  1  0  0  0  0
 17  1  1  0  0  0  0
 19  9  1  0  0  0  0
 24 16  1  0  0  0  0
 25 16  1  0  0  0  0
M  END
$$$$
