
     RDKit          3D

 25 25  0  0  0  0  0  0  0  0999 V2000
   -0.0031    0.2209   -0.0990 O   0  0  0  0  0  0  0  0  0  0  0  0
    1.3093   -0.0080   -0.0094 C   0  0  0  0  0  0  0  0  0  0  0  0
    1.8677   -0.1784    1.0466 O   0  0  0  0  0  0  0  0  0  0  0  0
    2.0190   -0.0244   -1.3258 C   0  0  0  0  0  0  0  0  0  0  0  0
    1.3307    0.2756   -2.4072 N   0  0  0  0  0  0  0  0  0  0  0  0
    2.2004    0.1660   -3.4490 O   0  0  0  0  0  0  0  0  0  0  0  0
    3.4243   -0.2048   -2.9993 C   0  0  0  0  0  0  0  0  0  0  0  0
    3.3787   -0.3477   -1.6300 C   0  0  0  0  0  0  0  0  0  0  0  0
    4.4593   -0.7616   -0.6774 C   0  0  0  0  0  0  0  0  0  0  0  0
    5.2112    0.4138   -0.0211 C   0  0  2  0  0  0  0  0  0  0  0  0
    5.8594   -0.0148    0.7641 H   0  0  0  0  0  0  0  0  0  0  0  0
    4.4071    1.4568    0.6107 N   0  0  0  0  0  0  0  0  0  0  0  0
    6.1917    1.0916   -1.0005 C   0  0  0  0  0  0  0  0  0  0  0  0
    6.7293    0.5160   -1.9149 O   0  0  0  0  0  0  0  0  0  0  0  0
    6.4141    2.3679   -0.7049 O   0  0  0  0  0  0  0  0  0  0  0  0
    4.4830   -0.4077   -4.0196 C   0  0  0  0  0  0  0  0  0  0  0  0
   -0.2359    0.3411   -1.0399 H   0  0  0  0  0  0  0  0  0  0  0  0
    5.2025   -1.3790   -1.2000 H   0  0  0  0  0  0  0  0  0  0  0  0
    4.0079   -1.3673    0.1201 H   0  0  0  0  0  0  0  0  0  0  0  0
    3.9462    1.1080    1.4504 H   0  0  0  0  0  0  0  0  0  0  0  0
    3.6523    1.7437   -0.0150 H   0  0  0  0  0  0  0  0  0  0  0  0
    5.7991    2.5574    0.0487 H   0  0  0  0  0  0  0  0  0  0  0  0
    5.4714   -0.3785   -3.5441 H   0  0  0  0  0  0  0  0  0  0  0  0
    4.4307    0.3833   -4.7824 H   0  0  0  0  0  0  0  0  0  0  0  0
    4.3477   -1.3753   -4.5310 H   0  0  0  0  0  0  0  0  0  0  0  0
  1  2  1  0
  1 17  1  0
  2  3  2  0
  2  4  1  0
  4  5  2  0
  4  8  1  0
  5  6  1  0
  6  7  1  0
  7  8  2  0
  7 16  1  0
  8  9  1  0
  9 10  1  0
  9 18  1  0
  9 19  1  0
 10 11  1  1
 10 12  1  0
 10 13  1  0
 12 20  1  0
 12 21  1  0
 13 14  2  0
 13 15  1  0
 15 22  1  0
 16 23  1  0
 16 24  1  0
 16 25  1  0
M  END

