25
rmsd198.gzmat
O          0.00000        0.00000        0.00000
C          1.35100        0.00000        0.00000
O          1.92630        0.00000        1.05640
C          2.01450        0.00440       -1.32040
N          1.39260       -0.28200       -2.46380
O          2.29930       -0.23060       -3.48020
C          3.53610        0.10920       -2.94630
C          3.40820        0.27920       -1.58510
C          4.43450        0.64280       -0.59610
C          4.92070       -0.61510        0.16280
H          4.26640       -1.49540       -0.10410
N          4.89750       -0.47470        1.63030
C          6.33980       -0.98270       -0.27880
O          6.77110       -0.79940       -1.38680
O          7.11950       -1.59200        0.63710
C          4.64190        0.18810       -3.89220
H         -0.41470       -0.06040       -0.90180
H          4.02510        1.38870        0.12320
H          5.29060        1.15970       -1.08810
H          3.94150       -0.54100        1.96880
H          5.27520        0.41330        1.93280
H          6.67500       -1.67300        1.53220
H          4.88880        1.23240       -4.15650
H          4.44800       -0.34750       -4.83590
H          5.57090       -0.24960       -3.45980
