25

O         -0.00310        0.22090       -0.09900
C          1.30930       -0.00800       -0.00940
O          1.86770       -0.17840        1.04660
C          2.01900       -0.02440       -1.32580
N          1.33070        0.27560       -2.40720
O          2.20040        0.16600       -3.44900
C          3.42430       -0.20480       -2.99930
C          3.37870       -0.34770       -1.63000
C          4.45930       -0.76160       -0.67740
C          5.21120        0.41380       -0.02110
H          5.85940       -0.01480        0.76410
N          4.40710        1.45680        0.61070
C          6.19170        1.09160       -1.00050
O          6.72930        0.51600       -1.91490
O          6.41410        2.36790       -0.70490
C          4.48300       -0.40770       -4.01960
H         -0.23590        0.34110       -1.03990
H          5.20250       -1.37900       -1.20000
H          4.00790       -1.36730        0.12010
H          3.94620        1.10800        1.45040
H          3.65230        1.74370       -0.01500
H          5.79910        2.55740        0.04870
H          5.47140       -0.37850       -3.54410
H          4.43070        0.38330       -4.78240
H          4.34770       -1.37530       -4.53100
