rmsd198.gzmat
 OpenBabel08211713423D

 25 25  0  0  1  0  0  0  0  0999 V2000
    0.0000    0.0000    0.0000 O   0  0  0  0  0  0  0  0  0  0  0  0
    1.3510    0.0000    0.0000 C   0  0  0  0  0  0  0  0  0  0  0  0
    1.9263    0.0000    1.0564 O   0  0  0  0  0  0  0  0  0  0  0  0
    2.0145    0.0044   -1.3204 C   0  0  0  0  0  0  0  0  0  0  0  0
    1.3926   -0.2820   -2.4638 N   0  0  0  0  0  0  0  0  0  0  0  0
    2.2993   -0.2306   -3.4802 O   0  0  0  0  0  0  0  0  0  0  0  0
    3.5361    0.1092   -2.9463 C   0  0  0  0  0  0  0  0  0  0  0  0
    3.4082    0.2792   -1.5851 C   0  0  0  0  0  0  0  0  0  0  0  0
    4.4345    0.6428   -0.5961 C   0  0  0  0  0  0  0  0  0  0  0  0
    4.9207   -0.6151    0.1628 C   0  0  2  0  0  0  0  0  0  0  0  0
    4.2664   -1.4954   -0.1041 H   0  0  0  0  0  0  0  0  0  0  0  0
    4.8975   -0.4747    1.6303 N   0  0  0  0  0  0  0  0  0  0  0  0
    6.3398   -0.9827   -0.2788 C   0  0  0  0  0  0  0  0  0  0  0  0
    6.7711   -0.7994   -1.3868 O   0  0  0  0  0  0  0  0  0  0  0  0
    7.1195   -1.5920    0.6371 O   0  0  0  0  0  0  0  0  0  0  0  0
    4.6419    0.1881   -3.8922 C   0  0  0  0  0  0  0  0  0  0  0  0
   -0.4147   -0.0604   -0.9018 H   0  0  0  0  0  0  0  0  0  0  0  0
    4.0251    1.3887    0.1232 H   0  0  0  0  0  0  0  0  0  0  0  0
    5.2906    1.1597   -1.0881 H   0  0  0  0  0  0  0  0  0  0  0  0
    3.9415   -0.5410    1.9688 H   0  0  0  0  0  0  0  0  0  0  0  0
    5.2752    0.4133    1.9328 H   0  0  0  0  0  0  0  0  0  0  0  0
    6.6750   -1.6730    1.5322 H   0  0  0  0  0  0  0  0  0  0  0  0
    4.8888    1.2324   -4.1565 H   0  0  0  0  0  0  0  0  0  0  0  0
    4.4480   -0.3475   -4.8359 H   0  0  0  0  0  0  0  0  0  0  0  0
    5.5709   -0.2496   -3.4598 H   0  0  0  0  0  0  0  0  0  0  0  0
  1  2  1  0  0  0  0
  2  3  2  0  0  0  0
  4  2  1  0  0  0  0
  5  4  2  0  0  0  0
  6  7  1  0  0  0  0
  6  5  1  0  0  0  0
  7  8  2  0  0  0  0
  8  4  1  0  0  0  0
  8  9  1  0  0  0  0
  9 18  1  0  0  0  0
  9 10  1  0  0  0  0
 10 11  1  6  0  0  0
 10 12  1  0  0  0  0
 12 21  1  0  0  0  0
 12 20  1  0  0  0  0
 13 10  1  0  0  0  0
 13 15  1  0  0  0  0
 14 13  2  0  0  0  0
 15 22  1  0  0  0  0
 16 25  1  0  0  0  0
 16  7  1  0  0  0  0
 17  1  1  0  0  0  0
 19  9  1  0  0  0  0
 23 16  1  0  0  0  0
 24 16  1  0  0  0  0
M  END
$$$$
