25
rmsd216.gzmat
O          0.00000        0.00000        0.00000
C          1.35070        0.00000        0.00000
O          1.92270        0.00000        1.05830
C          2.01540        0.00090       -1.31990
N          1.38180       -0.23590       -2.46850
O          2.28850       -0.19860       -3.48550
C          3.53800        0.07970       -2.94650
C          3.41910        0.22310       -1.58130
C          4.46830        0.51460       -0.59250
C          4.93250       -0.79030        0.09790
H          4.30530       -1.65510       -0.26680
N          4.83070       -0.76250        1.56860
C          6.37700       -1.11380       -0.29250
O          6.87670       -0.81550       -1.34500
O          7.09650       -1.82440        0.59930
C          4.64870        0.14230       -3.88820
H         -0.41590       -0.03140       -0.90240
H          4.09340        1.23880        0.16660
H          5.33040        1.03100       -1.07630
H          3.85510       -0.81670        1.84890
H          5.21630        0.08770        1.95980
H          6.59770       -1.99610        1.45130
H          5.58230       -0.26170       -3.43500
H          4.87860        1.18060       -4.18940
H          4.46920       -0.42960       -4.81330
