25

O          0.02980       -0.40460       -0.18660
C          1.32900       -0.11870       -0.07220
O          1.86760        0.04180        0.99730
C          2.06040       -0.02990       -1.36890
N          1.43230       -0.33150       -2.48600
O          2.35530       -0.19200       -3.47980
C          3.54730        0.19330       -2.96030
C          3.42100        0.32920       -1.59930
C          4.42350        0.71990       -0.56150
C          4.89440       -0.47570        0.29580
H          4.08730       -1.22550        0.30690
N          5.19460       -0.19010        1.69680
C          6.09950       -1.19220       -0.33800
O          6.31740       -1.21370       -1.52460
O          6.86200       -1.81030        0.55960
C          4.68780        0.35930       -3.89580
H         -0.18280       -0.51330       -1.13320
H          3.95040        1.44100        0.12000
H          5.28790        1.20890       -1.03380
H          4.32650       -0.09800        2.22480
H          5.70170        0.69140        1.79310
H          6.48240       -1.53950        1.43280
H          4.90870        1.42530       -4.06930
H          4.45470       -0.10670       -4.86280
H          5.57620       -0.11830       -3.45790
