rmsd5.gzmat
 OpenBabel08211713413D

 51 54  0  0  1  0  0  0  0  0999 V2000
    0.0000    0.0000    0.0000 O   0  0  0  0  0  0  0  0  0  0  0  0
    1.4428    0.0000    0.0000 C   0  0  1  0  0  0  0  0  0  0  0  0
    1.7328    0.0000    1.0724 H   0  0  0  0  0  0  0  0  0  0  0  0
    1.8453   -1.2523   -0.7333 C   0  0  0  0  0  0  0  0  0  0  0  0
    0.7545   -1.8853   -1.1787 C   0  0  0  0  0  0  0  0  0  0  0  0
   -0.4641   -1.1007   -0.7685 C   0  0  1  0  0  0  0  0  0  0  0  0
   -1.4419   -1.8435    0.0243 N   0  0  0  0  0  0  0  0  0  0  0  0
   -2.7546   -1.5826   -0.4039 C   0  0  0  0  0  0  0  0  0  0  0  0
   -3.7701   -1.9561    0.1201 O   0  0  0  0  0  0  0  0  0  0  0  0
   -2.6636   -0.7960   -1.5895 N   0  0  0  0  0  0  0  0  0  0  0  0
   -1.3324   -0.5273   -1.9394 C   0  0  0  0  0  0  0  0  0  0  0  0
   -0.9654    0.0502   -2.9204 O   0  0  0  0  0  0  0  0  0  0  0  0
   -3.8034   -0.6251   -2.4928 C   0  0  0  0  0  0  0  0  0  0  0  0
   -3.9159   -1.7911   -3.4348 C   0  0  0  0  0  0  0  0  0  0  0  0
   -4.6478   -2.9225   -3.0563 C   0  0  0  0  0  0  0  0  0  0  0  0
   -4.7548   -4.0045   -3.9149 C   0  0  0  0  0  0  0  0  0  0  0  0
   -4.1140   -3.9412   -5.1643 C   0  0  0  0  0  0  0  0  0  0  0  0
   -4.3135   -5.0576   -5.9126 O   0  0  0  0  0  0  0  0  0  0  0  0
   -3.6978   -5.1019   -7.1920 C   0  0  0  0  0  0  0  0  0  0  0  0
   -3.3636   -2.8305   -5.5487 C   0  0  0  0  0  0  0  0  0  0  0  0
   -3.2706   -1.7538   -4.6685 C   0  0  0  0  0  0  0  0  0  0  0  0
    1.8759    1.2794   -0.7309 C   0  0  0  0  0  0  0  0  0  0  0  0
    3.2567    1.5070   -0.5605 O   0  0  0  0  0  0  0  0  0  0  0  0
    3.6276    2.1439    0.6512 C   0  0  0  0  0  0  0  0  0  0  0  0
    3.7858    1.1352    1.7498 C   0  0  0  0  0  0  0  0  0  0  0  0
    4.5408   -0.0147    1.5106 C   0  0  0  0  0  0  0  0  0  0  0  0
    4.6787   -0.9758    2.5083 C   0  0  0  0  0  0  0  0  0  0  0  0
    4.0648   -0.7883    3.7463 C   0  0  0  0  0  0  0  0  0  0  0  0
    3.3169    0.3629    3.9865 C   0  0  0  0  0  0  0  0  0  0  0  0
    3.1770    1.3269    2.9897 C   0  0  0  0  0  0  0  0  0  0  0  0
    2.8820   -1.5136   -0.8461 H   0  0  0  0  0  0  0  0  0  0  0  0
    0.6668   -2.7966   -1.7399 H   0  0  0  0  0  0  0  0  0  0  0  0
   -1.2329   -2.1525    0.9564 H   0  0  0  0  0  0  0  0  0  0  0  0
   -3.6667    0.3354   -3.0484 H   0  0  0  0  0  0  0  0  0  0  0  0
   -4.7298   -0.5125   -1.8752 H   0  0  0  0  0  0  0  0  0  0  0  0
   -5.1265   -2.9552   -2.0736 H   0  0  0  0  0  0  0  0  0  0  0  0
   -5.3167   -4.8938   -3.6425 H   0  0  0  0  0  0  0  0  0  0  0  0
   -4.0279   -6.0780   -7.5736 H   0  0  0  0  0  0  0  0  0  0  0  0
   -2.6078   -5.0745   -7.1007 H   0  0  0  0  0  0  0  0  0  0  0  0
   -4.0682   -4.2964   -7.8333 H   0  0  0  0  0  0  0  0  0  0  0  0
   -2.8564   -2.7915   -6.5051 H   0  0  0  0  0  0  0  0  0  0  0  0
   -2.6784   -0.8794   -4.9477 H   0  0  0  0  0  0  0  0  0  0  0  0
    1.7867    1.1751   -1.8324 H   0  0  0  0  0  0  0  0  0  0  0  0
    1.2667    2.1421   -0.4088 H   0  0  0  0  0  0  0  0  0  0  0  0
    2.9241    2.9564    0.9037 H   0  0  0  0  0  0  0  0  0  0  0  0
    4.6052    2.5980    0.3781 H   0  0  0  0  0  0  0  0  0  0  0  0
    5.0121   -0.1556    0.5381 H   0  0  0  0  0  0  0  0  0  0  0  0
    5.2658   -1.8730    2.3227 H   0  0  0  0  0  0  0  0  0  0  0  0
    4.1719   -1.5405    4.5252 H   0  0  0  0  0  0  0  0  0  0  0  0
    2.8387    0.5089    4.9535 H   0  0  0  0  0  0  0  0  0  0  0  0
    2.5899    2.2232    3.1814 H   0  0  0  0  0  0  0  0  0  0  0  0
  1  2  1  0  0  0  0
  2  3  1  1  0  0  0
  4  2  1  0  0  0  0
  5  4  2  0  0  0  0
  6  5  1  6  0  0  0
  6 11  1  0  0  0  0
  6  1  1  0  0  0  0
  6  7  1  0  0  0  0
  7 33  1  0  0  0  0
  8  7  1  0  0  0  0
  8  9  2  0  0  0  0
 10  8  1  0  0  0  0
 11 10  1  0  0  0  0
 12 11  2  0  0  0  0
 13 35  1  0  0  0  0
 13 10  1  0  0  0  0
 14 15  1  0  0  0  0
 14 13  1  0  0  0  0
 15 36  1  0  0  0  0
 16 37  1  0  0  0  0
 16 15  2  0  0  0  0
 17 16  1  0  0  0  0
 18 17  1  0  0  0  0
 19 39  1  0  0  0  0
 19 18  1  0  0  0  0
 20 17  2  0  0  0  0
 20 21  1  0  0  0  0
 21 14  2  0  0  0  0
 22 23  1  0  0  0  0
 22 44  1  0  0  0  0
 22  2  1  0  0  0  0
 23 24  1  0  0  0  0
 24 45  1  0  0  0  0
 24 25  1  0  0  0  0
 25 30  1  0  0  0  0
 26 25  2  0  0  0  0
 26 27  1  0  0  0  0
 27 28  2  0  0  0  0
 28 29  1  0  0  0  0
 28 49  1  0  0  0  0
 29 50  1  0  0  0  0
 30 51  1  0  0  0  0
 30 29  2  0  0  0  0
 31  4  1  0  0  0  0
 32  5  1  0  0  0  0
 34 13  1  0  0  0  0
 38 19  1  0  0  0  0
 40 19  1  0  0  0  0
 41 20  1  0  0  0  0
 42 21  1  0  0  0  0
 43 22  1  0  0  0  0
 46 24  1  0  0  0  0
 47 26  1  0  0  0  0
 48 27  1  0  0  0  0
M  END
$$$$
