51
rmsd33.gzmat
O          0.00000        0.00000        0.00000
C          1.44650        0.00000        0.00000
H          1.72730        0.00000        1.07650
C          1.84270       -1.27370       -0.70170
C          0.74880       -1.98010       -1.00930
C         -0.46740       -1.22040       -0.54930
N         -1.27790       -1.90920        0.45960
C         -2.65140       -1.77310        0.19640
O         -3.55880       -2.12050        0.90350
N         -2.77350       -1.15370       -1.08340
C         -1.52330       -0.88640       -1.65440
O         -1.33770       -0.48020       -2.76540
C         -4.02550       -1.18260       -1.84340
C         -4.19780       -2.50630       -2.53430
C         -4.88340       -3.53810       -1.89710
C         -5.04600       -4.77170       -2.52400
C         -4.50170       -4.94940       -3.79580
O         -4.57850       -6.08570       -4.53590
C         -5.29380       -7.18010       -3.97910
C         -3.79250       -3.92500       -4.44610
C         -3.64480       -2.70600       -3.80390
C          1.90680        1.28080       -0.70410
O          2.51360        0.99150       -1.94410
C          1.61980        0.93560       -3.04600
C          1.05630        2.28680       -3.36580
C          1.86580        3.41790       -3.24930
C          1.34660        4.67710       -3.53890
C          0.02010        4.80670       -3.94870
C         -0.78550        3.67570       -4.06920
C         -0.27000        2.41480       -3.77720
H          2.87620       -1.49320       -0.90420
H          0.65730       -2.92870       -1.50350
H         -0.92650       -2.08230        1.38340
H         -4.00570       -0.34000       -2.57890
H         -4.86880       -0.97820       -1.13790
H         -5.28810       -3.38500       -0.89310
H         -5.58230       -5.56710       -2.01960
H         -5.22020       -7.93320       -4.77610
H         -6.34010       -6.91470       -3.79970
H         -4.80790       -7.53970       -3.06660
H         -3.37400       -4.10310       -5.43270
H         -3.08680       -1.89850       -4.28560
H          1.06530        1.99450       -0.81010
H          2.72620        1.77480       -0.14680
H          0.83550        0.17690       -2.85510
H          2.28330        0.56790       -3.85610
H          2.90080        3.30730       -2.92790
H          1.97570        5.55910       -3.44540
H         -0.38570        5.79000       -4.17400
H         -1.82070        3.77580       -4.38800
H         -0.90510        1.53130       -3.86380
