51

O          0.14520        0.23860       -0.65940
C          1.50110        0.11560       -0.20360
H          1.50340        0.16670        0.90580
C          1.91610       -1.25540       -0.66380
C          0.86800       -1.89470       -1.18170
C         -0.35620       -1.01770       -1.06700
N         -1.37010       -1.55060       -0.17760
C         -2.63160       -1.54930       -0.70970
O         -3.67250       -1.87440       -0.19180
N         -2.49200       -1.10000       -2.04450
C         -1.19130       -0.83040       -2.36640
O         -0.76570       -0.48660       -3.44660
C         -3.59910       -1.09880       -2.99630
C         -3.73910       -2.42040       -3.71380
C         -4.53120       -3.44100       -3.17960
C         -4.63380       -4.68490       -3.81030
C         -3.92680       -4.92080       -4.99880
O         -3.95820       -6.08710       -5.69010
C         -4.74860       -7.14750       -5.20540
C         -3.12070       -3.90300       -5.53780
C         -3.02900       -2.67150       -4.90020
C          2.37410        1.27340       -0.69330
O          2.94380        1.10790       -1.96500
C          2.07690        1.27750       -3.08270
C          1.47650        2.66290       -3.17730
C          2.26400        3.79830       -2.93510
C          1.71490        5.07750       -3.03590
C          0.36980        5.23780       -3.38620
C         -0.42040        4.11160       -3.62910
C          0.12830        2.83020       -3.51850
H          2.93260       -1.63650       -0.56480
H          0.82800       -2.90360       -1.59080
H         -1.21060       -1.76020        0.79940
H         -3.40500       -0.28420       -3.70710
H         -4.50550       -0.86530       -2.42290
H         -5.06820       -3.26650       -2.24410
H         -5.26340       -5.45630       -3.36780
H         -4.62680       -7.97870       -5.91250
H         -5.81780       -6.87310       -5.15530
H         -4.42190       -7.47870       -4.20310
H         -2.57690       -4.10830       -6.46160
H         -2.38820       -1.89050       -5.31640
H          1.77730        2.20150       -0.62030
H          3.22280        1.36530        0.00390
H          1.27790        0.52310       -3.09640
H          2.72120        1.09060       -3.95740
H          3.31270        3.66680       -2.65690
H          2.33790        5.95490       -2.84340
H         -0.06060        6.23910       -3.46660
H         -1.47310        4.23020       -3.89830
H         -0.48680        1.94600       -3.69890
