
     RDKit          3D

 51 54  0  0  0  0  0  0  0  0999 V2000
   -0.3293    0.9301    0.8675 O   0  0  0  0  0  0  0  0  0  0  0  0
    1.0517    0.6673    1.1542 C   0  0  1  0  0  0  0  0  0  0  0  0
    1.2557    0.9500    2.2023 H   0  0  0  0  0  0  0  0  0  0  0  0
    1.2065   -0.8093    0.9258 C   0  0  0  0  0  0  0  0  0  0  0  0
    0.1008   -1.2915    0.3635 C   0  0  0  0  0  0  0  0  0  0  0  0
   -0.9081   -0.1754    0.2108 C   0  0  1  0  0  0  0  0  0  0  0  0
   -2.2346   -0.4852    0.6922 N   0  0  0  0  0  0  0  0  0  0  0  0
   -3.1685   -0.5839   -0.3062 C   0  0  0  0  0  0  0  0  0  0  0  0
   -4.3107   -0.9714   -0.2364 O   0  0  0  0  0  0  0  0  0  0  0  0
   -2.5302   -0.1438   -1.4895 N   0  0  0  0  0  0  0  0  0  0  0  0
   -1.2104    0.1523   -1.2819 C   0  0  0  0  0  0  0  0  0  0  0  0
   -0.4243    0.5734   -2.1000 O   0  0  0  0  0  0  0  0  0  0  0  0
   -3.1634   -0.1844   -2.8035 C   0  0  0  0  0  0  0  0  0  0  0  0
   -2.7627   -1.4285   -3.5620 C   0  0  0  0  0  0  0  0  0  0  0  0
   -3.4106   -2.6443   -3.3207 C   0  0  0  0  0  0  0  0  0  0  0  0
   -3.0015   -3.8230   -3.9518 C   0  0  0  0  0  0  0  0  0  0  0  0
   -1.9181   -3.7934   -4.8434 C   0  0  0  0  0  0  0  0  0  0  0  0
   -1.4404   -4.8763   -5.5048 O   0  0  0  0  0  0  0  0  0  0  0  0
   -2.0584   -6.1265   -5.3056 C   0  0  0  0  0  0  0  0  0  0  0  0
   -1.2605   -2.5760   -5.0911 C   0  0  0  0  0  0  0  0  0  0  0  0
   -1.6784   -1.4124   -4.4546 C   0  0  0  0  0  0  0  0  0  0  0  0
    1.9212    1.5144    0.2098 C   0  0  0  0  0  0  0  0  0  0  0  0
    3.2828    1.1537    0.3221 O   0  0  0  0  0  0  0  0  0  0  0  0
    3.9173    0.7768   -0.8949 C   0  0  0  0  0  0  0  0  0  0  0  0
    3.4721   -0.5795   -1.3962 C   0  0  0  0  0  0  0  0  0  0  0  0
    3.9886   -1.7458   -0.8094 C   0  0  0  0  0  0  0  0  0  0  0  0
    3.4984   -3.0022   -1.1679 C   0  0  0  0  0  0  0  0  0  0  0  0
    2.4772   -3.1086   -2.1198 C   0  0  0  0  0  0  0  0  0  0  0  0
    1.9649   -1.9562   -2.7195 C   0  0  0  0  0  0  0  0  0  0  0  0
    2.4674   -0.7012   -2.3639 C   0  0  0  0  0  0  0  0  0  0  0  0
    2.1191   -1.3571    1.1483 H   0  0  0  0  0  0  0  0  0  0  0  0
   -0.0908   -2.3051    0.0136 H   0  0  0  0  0  0  0  0  0  0  0  0
   -2.4106   -0.8868    1.6049 H   0  0  0  0  0  0  0  0  0  0  0  0
   -2.8622    0.7220   -3.3465 H   0  0  0  0  0  0  0  0  0  0  0  0
   -4.2464   -0.1545   -2.6273 H   0  0  0  0  0  0  0  0  0  0  0  0
   -4.2451   -2.6741   -2.6151 H   0  0  0  0  0  0  0  0  0  0  0  0
   -3.5319   -4.7515   -3.7425 H   0  0  0  0  0  0  0  0  0  0  0  0
   -1.5175   -6.8475   -5.9327 H   0  0  0  0  0  0  0  0  0  0  0  0
   -3.1205   -6.1126   -5.6097 H   0  0  0  0  0  0  0  0  0  0  0  0
   -1.9972   -6.4516   -4.2512 H   0  0  0  0  0  0  0  0  0  0  0  0
   -0.4216   -2.5742   -5.7895 H   0  0  0  0  0  0  0  0  0  0  0  0
   -1.1479   -0.4751   -4.6349 H   0  0  0  0  0  0  0  0  0  0  0  0
    1.5277    1.3653   -0.8069 H   0  0  0  0  0  0  0  0  0  0  0  0
    1.7971    2.5815    0.4686 H   0  0  0  0  0  0  0  0  0  0  0  0
    4.9939    0.7643   -0.6677 H   0  0  0  0  0  0  0  0  0  0  0  0
    3.7446    1.5445   -1.6721 H   0  0  0  0  0  0  0  0  0  0  0  0
    4.7745   -1.6615   -0.0532 H   0  0  0  0  0  0  0  0  0  0  0  0
    3.9106   -3.9019   -0.7040 H   0  0  0  0  0  0  0  0  0  0  0  0
    2.0854   -4.0904   -2.3972 H   0  0  0  0  0  0  0  0  0  0  0  0
    1.1598   -2.0307   -3.4536 H   0  0  0  0  0  0  0  0  0  0  0  0
    2.0406    0.1920   -2.8223 H   0  0  0  0  0  0  0  0  0  0  0  0
  1  2  1  0
  6  1  1  1
  2  3  1  1
  2  4  1  0
  2 22  1  0
  4  5  2  0
  4 31  1  0
  5  6  1  0
  5 32  1  0
  6  7  1  0
  6 11  1  0
  7  8  1  0
  7 33  1  0
  8  9  2  0
  8 10  1  0
 10 11  1  0
 10 13  1  0
 11 12  2  0
 13 14  1  0
 13 34  1  0
 13 35  1  0
 14 15  2  0
 14 21  1  0
 15 16  1  0
 15 36  1  0
 16 17  2  0
 16 37  1  0
 17 18  1  0
 17 20  1  0
 18 19  1  0
 19 38  1  0
 19 39  1  0
 19 40  1  0
 20 21  2  0
 20 41  1  0
 21 42  1  0
 22 23  1  0
 22 43  1  0
 22 44  1  0
 23 24  1  0
 24 25  1  0
 24 45  1  0
 24 46  1  0
 25 26  2  0
 25 30  1  0
 26 27  1  0
 26 47  1  0
 27 28  2  0
 27 48  1  0
 28 29  1  0
 28 49  1  0
 29 30  2  0
 29 50  1  0
 30 51  1  0
M  END

