rmsd16.gzmat
 OpenBabel08211713413D

 51 54  0  0  1  0  0  0  0  0999 V2000
    0.0000    0.0000    0.0000 O   0  0  0  0  0  0  0  0  0  0  0  0
    1.4470    0.0000    0.0000 C   0  0  1  0  0  0  0  0  0  0  0  0
    1.7262    0.0000    1.0766 H   0  0  0  0  0  0  0  0  0  0  0  0
    1.8447   -1.2715   -0.7048 C   0  0  0  0  0  0  0  0  0  0  0  0
    0.7510   -1.9708   -1.0276 C   0  0  0  0  0  0  0  0  0  0  0  0
   -0.4660   -1.2106   -0.5686 C   0  0  1  0  0  0  0  0  0  0  0  0
   -1.2865   -1.9144    0.4210 N   0  0  0  0  0  0  0  0  0  0  0  0
   -2.6543   -1.8254    0.1174 C   0  0  0  0  0  0  0  0  0  0  0  0
   -3.5691   -2.2104    0.7946 O   0  0  0  0  0  0  0  0  0  0  0  0
   -2.7620   -1.1946   -1.1592 N   0  0  0  0  0  0  0  0  0  0  0  0
   -1.5052   -0.8693   -1.6864 C   0  0  0  0  0  0  0  0  0  0  0  0
   -1.3029   -0.4199   -2.7778 O   0  0  0  0  0  0  0  0  0  0  0  0
   -3.9755   -1.3055   -1.9735 C   0  0  0  0  0  0  0  0  0  0  0  0
   -3.9705   -2.5930   -2.7493 C   0  0  0  0  0  0  0  0  0  0  0  0
   -4.6151   -3.7179   -2.2407 C   0  0  0  0  0  0  0  0  0  0  0  0
   -4.5920   -4.9233   -2.9396 C   0  0  0  0  0  0  0  0  0  0  0  0
   -3.9031   -4.9778   -4.1508 C   0  0  0  0  0  0  0  0  0  0  0  0
   -3.7824   -6.0749   -4.9424 O   0  0  0  0  0  0  0  0  0  0  0  0
   -4.4342   -7.2629   -4.5149 C   0  0  0  0  0  0  0  0  0  0  0  0
   -3.2425   -3.8541   -4.6767 C   0  0  0  0  0  0  0  0  0  0  0  0
   -3.2817   -2.6659   -3.9660 C   0  0  0  0  0  0  0  0  0  0  0  0
    1.9085    1.2792   -0.7074 C   0  0  0  0  0  0  0  0  0  0  0  0
    2.5622    0.9761   -1.9203 O   0  0  0  0  0  0  0  0  0  0  0  0
    1.7113    0.9260   -3.0564 C   0  0  0  0  0  0  0  0  0  0  0  0
    1.2036    2.2907   -3.4105 C   0  0  0  0  0  0  0  0  0  0  0  0
    2.0725    3.3819   -3.3588 C   0  0  0  0  0  0  0  0  0  0  0  0
    1.6085    4.6554   -3.6772 C   0  0  0  0  0  0  0  0  0  0  0  0
    0.2769    4.8390   -4.0486 C   0  0  0  0  0  0  0  0  0  0  0  0
   -0.5889    3.7482   -4.1031 C   0  0  0  0  0  0  0  0  0  0  0  0
   -0.1274    2.4727   -3.7841 C   0  0  0  0  0  0  0  0  0  0  0  0
    2.8791   -1.4939   -0.8997 H   0  0  0  0  0  0  0  0  0  0  0  0
    0.6590   -2.9155   -1.5294 H   0  0  0  0  0  0  0  0  0  0  0  0
   -0.9536   -2.0869    1.3515 H   0  0  0  0  0  0  0  0  0  0  0  0
   -4.0196   -0.4199   -2.6550 H   0  0  0  0  0  0  0  0  0  0  0  0
   -4.8617   -1.2378   -1.2953 H   0  0  0  0  0  0  0  0  0  0  0  0
   -5.1353   -3.6623   -1.2814 H   0  0  0  0  0  0  0  0  0  0  0  0
   -5.0984   -5.7917   -2.5347 H   0  0  0  0  0  0  0  0  0  0  0  0
   -4.1818   -7.9665   -5.3204 H   0  0  0  0  0  0  0  0  0  0  0  0
   -5.5177   -7.1168   -4.4611 H   0  0  0  0  0  0  0  0  0  0  0  0
   -4.0275   -7.6115   -3.5606 H   0  0  0  0  0  0  0  0  0  0  0  0
   -2.7161   -3.9337   -5.6238 H   0  0  0  0  0  0  0  0  0  0  0  0
   -2.7626   -1.7827   -4.3499 H   0  0  0  0  0  0  0  0  0  0  0  0
    1.0592    1.9759   -0.8543 H   0  0  0  0  0  0  0  0  0  0  0  0
    2.6990    1.7972   -0.1310 H   0  0  0  0  0  0  0  0  0  0  0  0
    0.8981    0.1929   -2.8881 H   0  0  0  0  0  0  0  0  0  0  0  0
    2.3954    0.5284   -3.8340 H   0  0  0  0  0  0  0  0  0  0  0  0
    3.1099    3.2305   -3.0625 H   0  0  0  0  0  0  0  0  0  0  0  0
    2.2849    5.5057   -3.6371 H   0  0  0  0  0  0  0  0  0  0  0  0
   -0.0845    5.8342   -4.2961 H   0  0  0  0  0  0  0  0  0  0  0  0
   -1.6280    3.8921   -4.3912 H   0  0  0  0  0  0  0  0  0  0  0  0
   -0.8082    1.6200   -3.8197 H   0  0  0  0  0  0  0  0  0  0  0  0
  1  2  1  0  0  0  0
  2  3  1  1  0  0  0
  4  2  1  0  0  0  0
  5  4  2  0  0  0  0
  6  5  1  6  0  0  0
  6 11  1  0  0  0  0
  6  1  1  0  0  0  0
  6  7  1  0  0  0  0
  7 33  1  0  0  0  0
  8  7  1  0  0  0  0
  8  9  2  0  0  0  0
 10  8  1  0  0  0  0
 11 10  1  0  0  0  0
 12 11  2  0  0  0  0
 13 35  1  0  0  0  0
 13 10  1  0  0  0  0
 14 15  1  0  0  0  0
 14 13  1  0  0  0  0
 15 36  1  0  0  0  0
 16 37  1  0  0  0  0
 16 15  2  0  0  0  0
 17 16  1  0  0  0  0
 18 19  1  0  0  0  0
 18 17  1  0  0  0  0
 19 39  1  0  0  0  0
 19 40  1  0  0  0  0
 20 17  2  0  0  0  0
 20 21  1  0  0  0  0
 21 14  2  0  0  0  0
 22 44  1  0  0  0  0
 22  2  1  0  0  0  0
 23 22  1  0  0  0  0
 24 45  1  0  0  0  0
 24 23  1  0  0  0  0
 25 26  1  0  0  0  0
 25 24  1  0  0  0  0
 26 47  1  0  0  0  0
 27 48  1  0  0  0  0
 27 26  2  0  0  0  0
 28 27  1  0  0  0  0
 29 28  2  0  0  0  0
 29 30  1  0  0  0  0
 30 25  2  0  0  0  0
 31  4  1  0  0  0  0
 32  5  1  0  0  0  0
 34 13  1  0  0  0  0
 38 19  1  0  0  0  0
 41 20  1  0  0  0  0
 42 21  1  0  0  0  0
 43 22  1  0  0  0  0
 46 24  1  0  0  0  0
 49 28  1  0  0  0  0
 50 29  1  0  0  0  0
 51 30  1  0  0  0  0
M  END
$$$$
