51
rmsd65.gzmat
O          0.00000        0.00000        0.00000
C          1.44680        0.00000        0.00000
H          1.72440        0.00000        1.07630
C          1.84530       -1.27040       -0.70680
C          0.75120       -1.95050       -1.06610
C         -0.46750       -1.18060       -0.62800
N         -1.34240       -1.90000        0.30060
C         -2.69360       -1.78000       -0.06200
O         -3.64400       -2.17420        0.55890
N         -2.73360       -1.10710       -1.31900
C         -1.45180       -0.77330       -1.77330
O         -1.19300       -0.27240       -2.82920
C         -3.92380       -1.10960       -2.17440
C         -3.83590       -2.20860       -3.19650
C         -4.40130       -3.45430       -2.93660
C         -4.29910       -4.48610       -3.86820
C         -3.61720       -4.24250       -5.05990
O         -3.42890       -5.13950       -6.06200
C         -3.97060       -6.44090       -5.88670
C         -3.03670       -2.99300       -5.33760
C         -3.15220       -1.98240       -4.39780
C          1.90920        1.27840       -0.71150
O          2.63950        0.96600       -1.87770
C          1.86380        0.88320       -3.06430
C          1.37200        2.23370       -3.48810
C          2.20900        3.34300       -3.36000
C          1.75720        4.60270       -3.74490
C          0.47030        4.75400       -4.25940
C         -0.36260        3.64460       -4.39240
C          0.08670        2.38310       -4.00810
H          2.88140       -1.50470       -0.87650
H          0.65910       -2.88830       -1.58070
H         -1.05460       -2.10670        1.23910
H         -4.00060       -0.10690       -2.66420
H         -4.82750       -1.22340       -1.52530
H         -4.92320       -3.63230       -1.99380
H         -4.74230       -5.45190       -3.65540
H         -3.68000       -6.93880       -6.82240
H         -5.06040       -6.40250       -5.79630
H         -3.51460       -6.94310       -5.02820
H         -2.50700       -2.84090       -6.27410
H         -2.69500       -1.00680       -4.58800
H          1.05000        1.94540       -0.92240
H          2.65020        1.83390       -0.10500
H          1.04490        0.14950       -2.93070
H          2.59900        0.47230       -3.78660
H          3.21180        3.21640       -2.95400
H          2.40880        5.46770       -3.64500
H          0.11670        5.73810       -4.55750
H         -1.36650        3.76290       -4.79360
H         -0.56980        1.51680       -4.10780
