rmsd138.gzmat
 OpenBabel08211713413D

 51 54  0  0  1  0  0  0  0  0999 V2000
    0.0000    0.0000    0.0000 O   0  0  0  0  0  0  0  0  0  0  0  0
    1.4465    0.0000    0.0000 C   0  0  1  0  0  0  0  0  0  0  0  0
    1.7262    0.0000    1.0760 H   0  0  0  0  0  0  0  0  0  0  0  0
    1.8443   -1.2702   -0.7078 C   0  0  0  0  0  0  0  0  0  0  0  0
    0.7498   -1.9584   -1.0511 C   0  0  0  0  0  0  0  0  0  0  0  0
   -0.4676   -1.1959   -0.5991 C   0  0  1  0  0  0  0  0  0  0  0  0
   -1.3067   -1.9121    0.3655 N   0  0  0  0  0  0  0  0  0  0  0  0
   -2.6698   -1.7933    0.0529 C   0  0  0  0  0  0  0  0  0  0  0  0
   -3.5969   -2.1852    0.7102 O   0  0  0  0  0  0  0  0  0  0  0  0
   -2.7558   -1.1309   -1.2069 N   0  0  0  0  0  0  0  0  0  0  0  0
   -1.4913   -0.8134   -1.7196 C   0  0  0  0  0  0  0  0  0  0  0  0
   -1.2739   -0.3370   -2.7958 O   0  0  0  0  0  0  0  0  0  0  0  0
   -3.9855   -1.1322   -2.0026 C   0  0  0  0  0  0  0  0  0  0  0  0
   -4.0711   -2.3692   -2.8526 C   0  0  0  0  0  0  0  0  0  0  0  0
   -4.5085   -3.5683   -2.2930 C   0  0  0  0  0  0  0  0  0  0  0  0
   -4.5905   -4.7228   -3.0684 C   0  0  0  0  0  0  0  0  0  0  0  0
   -4.2291   -4.6483   -4.4138 C   0  0  0  0  0  0  0  0  0  0  0  0
   -4.2666   -5.6761   -5.3013 O   0  0  0  0  0  0  0  0  0  0  0  0
   -4.6918   -6.9427   -4.8169 C   0  0  0  0  0  0  0  0  0  0  0  0
   -3.7737   -3.4508   -4.9914 C   0  0  0  0  0  0  0  0  0  0  0  0
   -3.6933   -2.3168   -4.1986 C   0  0  0  0  0  0  0  0  0  0  0  0
    1.9078    1.2790   -0.7101 C   0  0  0  0  0  0  0  0  0  0  0  0
    2.6074    0.9681   -1.8954 O   0  0  0  0  0  0  0  0  0  0  0  0
    1.7975    0.8849   -3.0586 C   0  0  0  0  0  0  0  0  0  0  0  0
    1.3200    2.2396   -3.4851 C   0  0  0  0  0  0  0  0  0  0  0  0
    2.1736    3.3380   -3.3714 C   0  0  0  0  0  0  0  0  0  0  0  0
    1.7396    4.5995   -3.7712 C   0  0  0  0  0  0  0  0  0  0  0  0
    0.4548    4.7638   -4.2874 C   0  0  0  0  0  0  0  0  0  0  0  0
   -0.3959    3.6655   -4.4016 C   0  0  0  0  0  0  0  0  0  0  0  0
    0.0338    2.4026   -3.9991 C   0  0  0  0  0  0  0  0  0  0  0  0
    2.8798   -1.4985   -0.8897 H   0  0  0  0  0  0  0  0  0  0  0  0
    0.6579   -2.8984   -1.5617 H   0  0  0  0  0  0  0  0  0  0  0  0
   -0.9845   -2.1151    1.2935 H   0  0  0  0  0  0  0  0  0  0  0  0
   -3.9951   -0.2042   -2.6268 H   0  0  0  0  0  0  0  0  0  0  0  0
   -4.8579   -1.0634   -1.3050 H   0  0  0  0  0  0  0  0  0  0  0  0
   -4.7825   -3.6069   -1.2348 H   0  0  0  0  0  0  0  0  0  0  0  0
   -4.9298   -5.6505   -2.6223 H   0  0  0  0  0  0  0  0  0  0  0  0
   -4.6396   -7.5649   -5.7212 H   0  0  0  0  0  0  0  0  0  0  0  0
   -5.7198   -6.8967   -4.4447 H   0  0  0  0  0  0  0  0  0  0  0  0
   -4.0046   -7.3187   -4.0530 H   0  0  0  0  0  0  0  0  0  0  0  0
   -3.4918   -3.4323   -6.0406 H   0  0  0  0  0  0  0  0  0  0  0  0
   -3.3247   -1.3802   -4.6236 H   0  0  0  0  0  0  0  0  0  0  0  0
    1.0518    1.9577   -0.8964 H   0  0  0  0  0  0  0  0  0  0  0  0
    2.6688    1.8204   -0.1159 H   0  0  0  0  0  0  0  0  0  0  0  0
    0.9688    0.1681   -2.8951 H   0  0  0  0  0  0  0  0  0  0  0  0
    2.5047    0.4521   -3.7970 H   0  0  0  0  0  0  0  0  0  0  0  0
    3.1759    3.2015   -2.9668 H   0  0  0  0  0  0  0  0  0  0  0  0
    2.4040    5.4560   -3.6825 H   0  0  0  0  0  0  0  0  0  0  0  0
    0.1166    5.7488   -4.6004 H   0  0  0  0  0  0  0  0  0  0  0  0
   -1.3982    3.7939   -4.8042 H   0  0  0  0  0  0  0  0  0  0  0  0
   -0.6374    1.5453   -4.0788 H   0  0  0  0  0  0  0  0  0  0  0  0
  1  2  1  0  0  0  0
  2  3  1  1  0  0  0
  4  2  1  0  0  0  0
  5  4  2  0  0  0  0
  6  5  1  6  0  0  0
  6 11  1  0  0  0  0
  6  1  1  0  0  0  0
  6  7  1  0  0  0  0
  7 33  1  0  0  0  0
  8  7  1  0  0  0  0
  8  9  2  0  0  0  0
 10  8  1  0  0  0  0
 11 10  1  0  0  0  0
 12 11  2  0  0  0  0
 13 35  1  0  0  0  0
 13 10  1  0  0  0  0
 14 15  1  0  0  0  0
 14 13  1  0  0  0  0
 15 36  1  0  0  0  0
 16 37  1  0  0  0  0
 16 15  2  0  0  0  0
 17 16  1  0  0  0  0
 18 19  1  0  0  0  0
 18 17  1  0  0  0  0
 19 39  1  0  0  0  0
 19 40  1  0  0  0  0
 20 17  2  0  0  0  0
 20 21  1  0  0  0  0
 21 14  2  0  0  0  0
 22 44  1  0  0  0  0
 22  2  1  0  0  0  0
 23 22  1  0  0  0  0
 24 45  1  0  0  0  0
 24 23  1  0  0  0  0
 25 26  1  0  0  0  0
 25 24  1  0  0  0  0
 26 47  1  0  0  0  0
 27 48  1  0  0  0  0
 27 26  2  0  0  0  0
 28 27  1  0  0  0  0
 29 28  2  0  0  0  0
 29 30  1  0  0  0  0
 30 25  2  0  0  0  0
 31  4  1  0  0  0  0
 32  5  1  0  0  0  0
 34 13  1  0  0  0  0
 38 19  1  0  0  0  0
 41 20  1  0  0  0  0
 42 21  1  0  0  0  0
 43 22  1  0  0  0  0
 46 24  1  0  0  0  0
 49 28  1  0  0  0  0
 50 29  1  0  0  0  0
 51 30  1  0  0  0  0
M  END
$$$$
