51

O         -0.18140       -0.02120        0.26970
C          1.25090       -0.01350        0.23810
H          1.62330        0.05680        1.27290
C          1.61890       -1.31920       -0.40530
C          0.51820       -1.93370       -0.83670
C         -0.69170       -1.10140       -0.49450
N         -1.75910       -1.79180        0.18140
C         -2.99220       -1.60020       -0.38810
O         -4.06720       -1.99870       -0.00850
N         -2.77210       -0.83860       -1.55800
C         -1.44750       -0.53830       -1.73730
O         -0.95250        0.07410       -2.65450
C         -3.82850       -0.53370       -2.51710
C         -3.96130       -1.59850       -3.58010
C         -4.75850       -2.73460       -3.35790
C         -4.84790       -3.73930       -4.31370
C         -4.13480       -3.63390       -5.52070
O         -4.28520       -4.66010       -6.39530
C         -3.59780       -4.61600       -7.62360
C         -3.32870       -2.50930       -5.75010
C         -3.24810       -1.50630       -4.77850
C          1.70370        1.21020       -0.58290
O          3.09700        1.28290       -0.78420
C          3.84500        1.89230        0.24850
C          4.07650        0.99430        1.44560
C          4.66400       -0.26710        1.26310
C          4.84650       -1.12910        2.34430
C          4.44700       -0.73890        3.62800
C          3.86970        0.51780        3.82120
C          3.68430        1.37740        2.73330
H          2.64810       -1.65780       -0.51190
H          0.43880       -2.87620       -1.37760
H         -1.66090       -2.21240        1.09680
H         -3.57960        0.43770       -2.96540
H         -4.75800       -0.43540       -1.94080
H         -5.30210       -2.82940       -2.41480
H         -5.46660       -4.62430       -4.15420
H         -3.86330       -5.53340       -8.16560
H         -2.50230       -4.58840       -7.48090
H         -3.89640       -3.74200       -8.23050
H         -2.76130       -2.40270       -6.67410
H         -2.60440       -0.64080       -4.95290
H          1.23080        1.13060       -1.57330
H          1.32330        2.12520       -0.08980
H          3.36100        2.83270        0.57550
H          4.81220        2.15870       -0.20810
H          4.97000       -0.57050        0.25860
H          5.30350       -2.10970        2.18920
H          4.58830       -1.41420        4.47520
H          3.55550        0.82890        4.82050
H          3.21870        2.35530        2.88520
