
     RDKit          3D

 51 54  0  0  0  0  0  0  0  0999 V2000
    0.1452    0.2386   -0.6594 O   0  0  0  0  0  0  0  0  0  0  0  0
    1.5011    0.1156   -0.2036 C   0  0  1  0  0  0  0  0  0  0  0  0
    1.5034    0.1667    0.9058 H   0  0  0  0  0  0  0  0  0  0  0  0
    1.9161   -1.2554   -0.6638 C   0  0  0  0  0  0  0  0  0  0  0  0
    0.8680   -1.8947   -1.1817 C   0  0  0  0  0  0  0  0  0  0  0  0
   -0.3562   -1.0177   -1.0670 C   0  0  1  0  0  0  0  0  0  0  0  0
   -1.3701   -1.5506   -0.1776 N   0  0  0  0  0  0  0  0  0  0  0  0
   -2.6316   -1.5493   -0.7097 C   0  0  0  0  0  0  0  0  0  0  0  0
   -3.6725   -1.8744   -0.1918 O   0  0  0  0  0  0  0  0  0  0  0  0
   -2.4920   -1.1000   -2.0445 N   0  0  0  0  0  0  0  0  0  0  0  0
   -1.1913   -0.8304   -2.3664 C   0  0  0  0  0  0  0  0  0  0  0  0
   -0.7657   -0.4866   -3.4466 O   0  0  0  0  0  0  0  0  0  0  0  0
   -3.5991   -1.0988   -2.9963 C   0  0  0  0  0  0  0  0  0  0  0  0
   -3.7391   -2.4204   -3.7138 C   0  0  0  0  0  0  0  0  0  0  0  0
   -4.5312   -3.4410   -3.1796 C   0  0  0  0  0  0  0  0  0  0  0  0
   -4.6338   -4.6849   -3.8103 C   0  0  0  0  0  0  0  0  0  0  0  0
   -3.9268   -4.9208   -4.9988 C   0  0  0  0  0  0  0  0  0  0  0  0
   -3.9582   -6.0871   -5.6901 O   0  0  0  0  0  0  0  0  0  0  0  0
   -4.7486   -7.1475   -5.2054 C   0  0  0  0  0  0  0  0  0  0  0  0
   -3.1207   -3.9030   -5.5378 C   0  0  0  0  0  0  0  0  0  0  0  0
   -3.0290   -2.6715   -4.9002 C   0  0  0  0  0  0  0  0  0  0  0  0
    2.3741    1.2734   -0.6933 C   0  0  0  0  0  0  0  0  0  0  0  0
    2.9438    1.1079   -1.9650 O   0  0  0  0  0  0  0  0  0  0  0  0
    2.0769    1.2775   -3.0827 C   0  0  0  0  0  0  0  0  0  0  0  0
    1.4765    2.6629   -3.1773 C   0  0  0  0  0  0  0  0  0  0  0  0
    2.2640    3.7983   -2.9351 C   0  0  0  0  0  0  0  0  0  0  0  0
    1.7149    5.0775   -3.0359 C   0  0  0  0  0  0  0  0  0  0  0  0
    0.3698    5.2378   -3.3862 C   0  0  0  0  0  0  0  0  0  0  0  0
   -0.4204    4.1116   -3.6291 C   0  0  0  0  0  0  0  0  0  0  0  0
    0.1283    2.8302   -3.5185 C   0  0  0  0  0  0  0  0  0  0  0  0
    2.9326   -1.6365   -0.5648 H   0  0  0  0  0  0  0  0  0  0  0  0
    0.8280   -2.9036   -1.5908 H   0  0  0  0  0  0  0  0  0  0  0  0
   -1.2106   -1.7602    0.7994 H   0  0  0  0  0  0  0  0  0  0  0  0
   -3.4050   -0.2842   -3.7071 H   0  0  0  0  0  0  0  0  0  0  0  0
   -4.5055   -0.8653   -2.4229 H   0  0  0  0  0  0  0  0  0  0  0  0
   -5.0682   -3.2665   -2.2441 H   0  0  0  0  0  0  0  0  0  0  0  0
   -5.2634   -5.4563   -3.3678 H   0  0  0  0  0  0  0  0  0  0  0  0
   -4.6268   -7.9787   -5.9125 H   0  0  0  0  0  0  0  0  0  0  0  0
   -5.8178   -6.8731   -5.1553 H   0  0  0  0  0  0  0  0  0  0  0  0
   -4.4219   -7.4787   -4.2031 H   0  0  0  0  0  0  0  0  0  0  0  0
   -2.5769   -4.1083   -6.4616 H   0  0  0  0  0  0  0  0  0  0  0  0
   -2.3882   -1.8905   -5.3164 H   0  0  0  0  0  0  0  0  0  0  0  0
    1.7773    2.2015   -0.6203 H   0  0  0  0  0  0  0  0  0  0  0  0
    3.2228    1.3653    0.0039 H   0  0  0  0  0  0  0  0  0  0  0  0
    1.2779    0.5231   -3.0964 H   0  0  0  0  0  0  0  0  0  0  0  0
    2.7212    1.0906   -3.9574 H   0  0  0  0  0  0  0  0  0  0  0  0
    3.3127    3.6668   -2.6569 H   0  0  0  0  0  0  0  0  0  0  0  0
    2.3379    5.9549   -2.8434 H   0  0  0  0  0  0  0  0  0  0  0  0
   -0.0606    6.2391   -3.4666 H   0  0  0  0  0  0  0  0  0  0  0  0
   -1.4731    4.2302   -3.8983 H   0  0  0  0  0  0  0  0  0  0  0  0
   -0.4868    1.9460   -3.6989 H   0  0  0  0  0  0  0  0  0  0  0  0
  1  2  1  0
  6  1  1  1
  2  3  1  1
  2  4  1  0
  2 22  1  0
  4  5  2  0
  4 31  1  0
  5  6  1  0
  5 32  1  0
  6  7  1  0
  6 11  1  0
  7  8  1  0
  7 33  1  0
  8  9  2  0
  8 10  1  0
 10 11  1  0
 10 13  1  0
 11 12  2  0
 13 14  1  0
 13 34  1  0
 13 35  1  0
 14 15  2  0
 14 21  1  0
 15 16  1  0
 15 36  1  0
 16 17  2  0
 16 37  1  0
 17 18  1  0
 17 20  1  0
 18 19  1  0
 19 38  1  0
 19 39  1  0
 19 40  1  0
 20 21  2  0
 20 41  1  0
 21 42  1  0
 22 23  1  0
 22 43  1  0
 22 44  1  0
 23 24  1  0
 24 25  1  0
 24 45  1  0
 24 46  1  0
 25 26  2  0
 25 30  1  0
 26 27  1  0
 26 47  1  0
 27 28  2  0
 27 48  1  0
 28 29  1  0
 28 49  1  0
 29 30  2  0
 29 50  1  0
 30 51  1  0
M  END

