rmsd7.gzmat
 OpenBabel08211713413D

 51 54  0  0  1  0  0  0  0  0999 V2000
    0.0000    0.0000    0.0000 O   0  0  0  0  0  0  0  0  0  0  0  0
    1.4467    0.0000    0.0000 C   0  0  1  0  0  0  0  0  0  0  0  0
    1.7271    0.0000    1.0765 H   0  0  0  0  0  0  0  0  0  0  0  0
    1.8439   -1.2744   -0.7003 C   0  0  0  0  0  0  0  0  0  0  0  0
    0.7498   -1.9762   -1.0170 C   0  0  0  0  0  0  0  0  0  0  0  0
   -0.4674   -1.2120   -0.5659 C   0  0  1  0  0  0  0  0  0  0  0  0
   -1.2977   -1.9058    0.4217 N   0  0  0  0  0  0  0  0  0  0  0  0
   -2.6647   -1.7892    0.1215 C   0  0  0  0  0  0  0  0  0  0  0  0
   -3.5858   -2.1557    0.8003 O   0  0  0  0  0  0  0  0  0  0  0  0
   -2.7626   -1.1577   -1.1560 N   0  0  0  0  0  0  0  0  0  0  0  0
   -1.5000   -0.8678   -1.6890 C   0  0  0  0  0  0  0  0  0  0  0  0
   -1.2880   -0.4416   -2.7878 O   0  0  0  0  0  0  0  0  0  0  0  0
   -3.9791   -1.2447   -1.9693 C   0  0  0  0  0  0  0  0  0  0  0  0
   -3.9896   -2.5267   -2.7539 C   0  0  0  0  0  0  0  0  0  0  0  0
   -4.6239   -3.6589   -2.2302 C   0  0  0  0  0  0  0  0  0  0  0  0
   -4.6079   -4.8551   -2.9294 C   0  0  0  0  0  0  0  0  0  0  0  0
   -3.9383   -4.9061   -4.1642 C   0  0  0  0  0  0  0  0  0  0  0  0
   -3.9903   -6.1361   -4.7381 O   0  0  0  0  0  0  0  0  0  0  0  0
   -3.3813   -6.2867   -6.0129 C   0  0  0  0  0  0  0  0  0  0  0  0
   -3.2972   -3.7883   -4.6982 C   0  0  0  0  0  0  0  0  0  0  0  0
   -3.3290   -2.5957   -3.9787 C   0  0  0  0  0  0  0  0  0  0  0  0
    1.9054    1.2817   -0.7049 C   0  0  0  0  0  0  0  0  0  0  0  0
    2.5611    0.9887   -1.9189 O   0  0  0  0  0  0  0  0  0  0  0  0
    1.7081    0.9073   -3.0511 C   0  0  0  0  0  0  0  0  0  0  0  0
    1.1581    2.2510   -3.4218 C   0  0  0  0  0  0  0  0  0  0  0  0
    1.9748    3.3795   -3.3341 C   0  0  0  0  0  0  0  0  0  0  0  0
    1.4707    4.6305   -3.6802 C   0  0  0  0  0  0  0  0  0  0  0  0
    0.1519    4.7546   -4.1159 C   0  0  0  0  0  0  0  0  0  0  0  0
   -0.6623    3.6269   -4.2043 C   0  0  0  0  0  0  0  0  0  0  0  0
   -0.1609    2.3739   -3.8580 C   0  0  0  0  0  0  0  0  0  0  0  0
    2.8782   -1.4983   -0.8948 H   0  0  0  0  0  0  0  0  0  0  0  0
    0.6574   -2.9244   -1.5119 H   0  0  0  0  0  0  0  0  0  0  0  0
   -0.9669   -2.0850    1.3517 H   0  0  0  0  0  0  0  0  0  0  0  0
   -4.0107   -0.3533   -2.6440 H   0  0  0  0  0  0  0  0  0  0  0  0
   -4.8642   -1.1691   -1.2901 H   0  0  0  0  0  0  0  0  0  0  0  0
   -5.1255   -3.6007   -1.2607 H   0  0  0  0  0  0  0  0  0  0  0  0
   -5.0962   -5.7463   -2.5432 H   0  0  0  0  0  0  0  0  0  0  0  0
   -3.5695   -7.3464   -6.2348 H   0  0  0  0  0  0  0  0  0  0  0  0
   -2.3057   -6.0927   -5.9601 H   0  0  0  0  0  0  0  0  0  0  0  0
   -3.8685   -5.6474   -6.7560 H   0  0  0  0  0  0  0  0  0  0  0  0
   -2.7765   -3.8319   -5.6475 H   0  0  0  0  0  0  0  0  0  0  0  0
   -2.8213   -1.7119   -4.3747 H   0  0  0  0  0  0  0  0  0  0  0  0
    1.0544    1.9770   -0.8495 H   0  0  0  0  0  0  0  0  0  0  0  0
    2.6940    1.8007   -0.1264 H   0  0  0  0  0  0  0  0  0  0  0  0
    0.9166    0.1530   -2.8729 H   0  0  0  0  0  0  0  0  0  0  0  0
    2.4009    0.5234   -3.8286 H   0  0  0  0  0  0  0  0  0  0  0  0
    3.0035    3.2735   -2.9916 H   0  0  0  0  0  0  0  0  0  0  0  0
    2.1066    5.5102   -3.6131 H   0  0  0  0  0  0  0  0  0  0  0  0
   -0.2411    5.7316   -4.3871 H   0  0  0  0  0  0  0  0  0  0  0  0
   -1.6925    3.7235   -4.5408 H   0  0  0  0  0  0  0  0  0  0  0  0
   -0.8023    1.4929   -3.9228 H   0  0  0  0  0  0  0  0  0  0  0  0
  1  2  1  0  0  0  0
  2  3  1  1  0  0  0
  4  2  1  0  0  0  0
  5  4  2  0  0  0  0
  6  5  1  6  0  0  0
  6 11  1  0  0  0  0
  6  1  1  0  0  0  0
  6  7  1  0  0  0  0
  7 33  1  0  0  0  0
  8  7  1  0  0  0  0
  8  9  2  0  0  0  0
 10  8  1  0  0  0  0
 11 10  1  0  0  0  0
 12 11  2  0  0  0  0
 13 35  1  0  0  0  0
 13 10  1  0  0  0  0
 14 15  1  0  0  0  0
 14 13  1  0  0  0  0
 15 36  1  0  0  0  0
 16 37  1  0  0  0  0
 16 15  2  0  0  0  0
 17 16  1  0  0  0  0
 18 17  1  0  0  0  0
 19 39  1  0  0  0  0
 19 18  1  0  0  0  0
 20 17  2  0  0  0  0
 20 21  1  0  0  0  0
 21 14  2  0  0  0  0
 22 44  1  0  0  0  0
 22  2  1  0  0  0  0
 23 22  1  0  0  0  0
 24 45  1  0  0  0  0
 24 23  1  0  0  0  0
 25 26  1  0  0  0  0
 25 24  1  0  0  0  0
 26 47  1  0  0  0  0
 27 48  1  0  0  0  0
 27 26  2  0  0  0  0
 28 27  1  0  0  0  0
 29 28  2  0  0  0  0
 29 30  1  0  0  0  0
 30 25  2  0  0  0  0
 31  4  1  0  0  0  0
 32  5  1  0  0  0  0
 34 13  1  0  0  0  0
 38 19  1  0  0  0  0
 40 19  1  0  0  0  0
 41 20  1  0  0  0  0
 42 21  1  0  0  0  0
 43 22  1  0  0  0  0
 46 24  1  0  0  0  0
 49 28  1  0  0  0  0
 50 29  1  0  0  0  0
 51 30  1  0  0  0  0
M  END
$$$$
