rmsd6.gzmat
 OpenBabel08211713413D

 51 54  0  0  1  0  0  0  0  0999 V2000
    0.0000    0.0000    0.0000 O   0  0  0  0  0  0  0  0  0  0  0  0
    1.4422    0.0000    0.0000 C   0  0  1  0  0  0  0  0  0  0  0  0
    1.7327    0.0000    1.0721 H   0  0  0  0  0  0  0  0  0  0  0  0
    1.8438   -1.2519   -0.7354 C   0  0  0  0  0  0  0  0  0  0  0  0
    0.7532   -1.8762   -1.1935 C   0  0  0  0  0  0  0  0  0  0  0  0
   -0.4631   -1.0832   -0.7948 C   0  0  1  0  0  0  0  0  0  0  0  0
   -1.4681   -1.8205   -0.0328 N   0  0  0  0  0  0  0  0  0  0  0  0
   -2.7686   -1.5180   -0.4730 C   0  0  0  0  0  0  0  0  0  0  0  0
   -3.8003   -1.8702    0.0335 O   0  0  0  0  0  0  0  0  0  0  0  0
   -2.6396   -0.7192   -1.6464 N   0  0  0  0  0  0  0  0  0  0  0  0
   -1.2988   -0.4761   -1.9726 C   0  0  0  0  0  0  0  0  0  0  0  0
   -0.9052    0.1052   -2.9412 O   0  0  0  0  0  0  0  0  0  0  0  0
   -3.7657   -0.4672   -2.5467 C   0  0  0  0  0  0  0  0  0  0  0  0
   -3.9200   -1.5856   -3.5390 C   0  0  0  0  0  0  0  0  0  0  0  0
   -4.7489   -2.6725   -3.2387 C   0  0  0  0  0  0  0  0  0  0  0  0
   -4.9010   -3.7069   -4.1480 C   0  0  0  0  0  0  0  0  0  0  0  0
   -4.2032   -3.6435   -5.3664 C   0  0  0  0  0  0  0  0  0  0  0  0
   -4.4462   -4.7145   -6.1662 O   0  0  0  0  0  0  0  0  0  0  0  0
   -3.7759   -4.7601   -7.4177 C   0  0  0  0  0  0  0  0  0  0  0  0
   -3.3613   -2.5754   -5.6749 C   0  0  0  0  0  0  0  0  0  0  0  0
   -3.2241   -1.5464   -4.7452 C   0  0  0  0  0  0  0  0  0  0  0  0
    1.8736    1.2800   -0.7313 C   0  0  0  0  0  0  0  0  0  0  0  0
    3.2638    1.4793   -0.6108 O   0  0  0  0  0  0  0  0  0  0  0  0
    3.6933    2.0710    0.6042 C   0  0  0  0  0  0  0  0  0  0  0  0
    3.8853    1.0259    1.6628 C   0  0  0  0  0  0  0  0  0  0  0  0
    4.5614   -0.1526    1.3413 C   0  0  0  0  0  0  0  0  0  0  0  0
    4.7273   -1.1435    2.3051 C   0  0  0  0  0  0  0  0  0  0  0  0
    4.2227   -0.9559    3.5914 C   0  0  0  0  0  0  0  0  0  0  0  0
    3.5565    0.2250    3.9143 C   0  0  0  0  0  0  0  0  0  0  0  0
    3.3878    1.2182    2.9513 C   0  0  0  0  0  0  0  0  0  0  0  0
    2.8800   -1.5186   -0.8395 H   0  0  0  0  0  0  0  0  0  0  0  0
    0.6630   -2.7859   -1.7570 H   0  0  0  0  0  0  0  0  0  0  0  0
   -1.2794   -2.1530    0.8956 H   0  0  0  0  0  0  0  0  0  0  0  0
   -3.5871    0.5089   -3.0627 H   0  0  0  0  0  0  0  0  0  0  0  0
   -4.6898   -0.3420   -1.9285 H   0  0  0  0  0  0  0  0  0  0  0  0
   -5.2698   -2.7083   -2.2781 H   0  0  0  0  0  0  0  0  0  0  0  0
   -5.5418   -4.5590   -3.9376 H   0  0  0  0  0  0  0  0  0  0  0  0
   -4.1355   -5.7093   -7.8379 H   0  0  0  0  0  0  0  0  0  0  0  0
   -2.6909   -4.7892   -7.2801 H   0  0  0  0  0  0  0  0  0  0  0  0
   -4.0773   -3.9222   -8.0535 H   0  0  0  0  0  0  0  0  0  0  0  0
   -2.8175   -2.5334   -6.6110 H   0  0  0  0  0  0  0  0  0  0  0  0
   -2.5568   -0.7086   -4.9620 H   0  0  0  0  0  0  0  0  0  0  0  0
    1.7402    1.1906   -1.8298 H   0  0  0  0  0  0  0  0  0  0  0  0
    1.2945    2.1505   -0.3762 H   0  0  0  0  0  0  0  0  0  0  0  0
    3.0108    2.8825    0.9130 H   0  0  0  0  0  0  0  0  0  0  0  0
    4.6646    2.5226    0.3060 H   0  0  0  0  0  0  0  0  0  0  0  0
    4.9510   -0.2909    0.3329 H   0  0  0  0  0  0  0  0  0  0  0  0
    5.2522   -2.0634    2.0553 H   0  0  0  0  0  0  0  0  0  0  0  0
    4.3509   -1.7316    4.3436 H   0  0  0  0  0  0  0  0  0  0  0  0
    3.1645    0.3711    4.9190 H   0  0  0  0  0  0  0  0  0  0  0  0
    2.8662    2.1385    3.2074 H   0  0  0  0  0  0  0  0  0  0  0  0
  1  2  1  0  0  0  0
  2  3  1  1  0  0  0
  4  2  1  0  0  0  0
  5  4  2  0  0  0  0
  6  5  1  6  0  0  0
  6 11  1  0  0  0  0
  6  7  1  0  0  0  0
  6  1  1  0  0  0  0
  7 33  1  0  0  0  0
  8  7  1  0  0  0  0
  8  9  2  0  0  0  0
 10  8  1  0  0  0  0
 11 10  1  0  0  0  0
 12 11  2  0  0  0  0
 13 35  1  0  0  0  0
 13 10  1  0  0  0  0
 14 15  1  0  0  0  0
 14 13  1  0  0  0  0
 15 36  1  0  0  0  0
 16 37  1  0  0  0  0
 16 15  2  0  0  0  0
 17 16  1  0  0  0  0
 18 17  1  0  0  0  0
 19 39  1  0  0  0  0
 19 18  1  0  0  0  0
 20 17  2  0  0  0  0
 20 21  1  0  0  0  0
 21 14  2  0  0  0  0
 22 23  1  0  0  0  0
 22 44  1  0  0  0  0
 22  2  1  0  0  0  0
 23 24  1  0  0  0  0
 24 45  1  0  0  0  0
 24 25  1  0  0  0  0
 25 30  1  0  0  0  0
 26 25  2  0  0  0  0
 26 27  1  0  0  0  0
 27 28  2  0  0  0  0
 28 29  1  0  0  0  0
 28 49  1  0  0  0  0
 29 50  1  0  0  0  0
 30 51  1  0  0  0  0
 30 29  2  0  0  0  0
 31  4  1  0  0  0  0
 32  5  1  0  0  0  0
 34 13  1  0  0  0  0
 38 19  1  0  0  0  0
 40 19  1  0  0  0  0
 41 20  1  0  0  0  0
 42 21  1  0  0  0  0
 43 22  1  0  0  0  0
 46 24  1  0  0  0  0
 47 26  1  0  0  0  0
 48 27  1  0  0  0  0
M  END
$$$$
