51
rmsd16.gzmat
O          0.00000        0.00000        0.00000
C          1.44700        0.00000        0.00000
H          1.72620        0.00000        1.07660
C          1.84470       -1.27150       -0.70480
C          0.75100       -1.97080       -1.02760
C         -0.46600       -1.21060       -0.56860
N         -1.28650       -1.91440        0.42100
C         -2.65430       -1.82540        0.11740
O         -3.56910       -2.21040        0.79460
N         -2.76200       -1.19460       -1.15920
C         -1.50520       -0.86930       -1.68640
O         -1.30290       -0.41990       -2.77780
C         -3.97550       -1.30550       -1.97350
C         -3.97050       -2.59300       -2.74930
C         -4.61510       -3.71790       -2.24070
C         -4.59200       -4.92330       -2.93960
C         -3.90310       -4.97780       -4.15080
O         -3.78240       -6.07490       -4.94240
C         -4.43420       -7.26290       -4.51490
C         -3.24250       -3.85410       -4.67670
C         -3.28170       -2.66590       -3.96600
C          1.90850        1.27920       -0.70740
O          2.56220        0.97610       -1.92030
C          1.71130        0.92600       -3.05640
C          1.20360        2.29070       -3.41050
C          2.07250        3.38190       -3.35880
C          1.60850        4.65540       -3.67720
C          0.27690        4.83900       -4.04860
C         -0.58890        3.74820       -4.10310
C         -0.12740        2.47270       -3.78410
H          2.87910       -1.49390       -0.89970
H          0.65900       -2.91550       -1.52940
H         -0.95360       -2.08690        1.35150
H         -4.01960       -0.41990       -2.65500
H         -4.86170       -1.23780       -1.29530
H         -5.13530       -3.66230       -1.28140
H         -5.09840       -5.79170       -2.53470
H         -4.18180       -7.96650       -5.32040
H         -5.51770       -7.11680       -4.46110
H         -4.02750       -7.61150       -3.56060
H         -2.71610       -3.93370       -5.62380
H         -2.76260       -1.78270       -4.34990
H          1.05920        1.97590       -0.85430
H          2.69900        1.79720       -0.13100
H          0.89810        0.19290       -2.88810
H          2.39540        0.52840       -3.83400
H          3.10990        3.23050       -3.06250
H          2.28490        5.50570       -3.63710
H         -0.08450        5.83420       -4.29610
H         -1.62800        3.89210       -4.39120
H         -0.80820        1.62000       -3.81970
