51
rmsd134.gzmat
O          0.00000        0.00000        0.00000
C          1.44570        0.00000        0.00000
H          1.73850        0.00000        1.07250
C          1.83780       -1.25530       -0.73590
C          0.74650       -1.87100       -1.20200
C         -0.46510       -1.06540       -0.81310
N         -1.49620       -1.79460       -0.07760
C         -2.78110       -1.49070       -0.56090
O         -3.82890       -1.84160       -0.08750
N         -2.61490       -0.69150       -1.73010
C         -1.26290       -0.45150       -2.01280
O         -0.83600        0.12640       -2.96930
C         -3.70210       -0.48460       -2.68890
C         -3.83220       -1.66640       -3.60900
C         -4.68540       -2.71660       -3.27680
C         -4.81210       -3.81850       -4.12020
C         -4.06270       -3.84690       -5.29620
O         -4.08080       -4.84150       -6.22150
C         -4.94560       -5.94230       -5.97870
C         -3.18390       -2.80480       -5.63860
C         -3.07450       -1.71890       -4.78460
C          1.87190        1.29920       -0.70010
O          2.90190        1.91140        0.05020
C          4.21270        1.70510       -0.44340
C          4.69460        0.31310       -0.16370
C          4.58180       -0.20110        1.12940
C          5.00210       -1.50050        1.40030
C          5.54400       -2.28420        0.38190
C          5.66800       -1.76590       -0.90580
C          5.24290       -0.46730       -1.18120
H          2.87160       -1.54380       -0.82680
H          0.65370       -2.78100       -1.76510
H         -1.33880       -2.11250        0.86220
H         -3.48870        0.45300       -3.26030
H         -4.64750       -0.30760       -2.11750
H         -5.25290       -2.68290       -2.34290
H         -5.47840       -4.62990       -3.85130
H         -4.77410       -6.57060       -6.86350
H         -5.98970       -5.61830       -5.93650
H         -4.65370       -6.47510       -5.06860
H         -2.60850       -2.86530       -6.55810
H         -2.38760       -0.90360       -5.02410
H          2.14320        1.14720       -1.75590
H          1.04870        2.04610       -0.65060
H          4.79040        2.45720        0.13710
H          4.26510        1.97560       -1.51360
H          4.15810        0.41890        1.92060
H          4.91030       -1.90380        2.40750
H          5.87410       -3.29940        0.59360
H          6.09750       -2.37550       -1.69860
H          5.33910       -0.06870       -2.18970
