51
rmsd173.gzmat
O          0.00000        0.00000        0.00000
C          1.44590        0.00000        0.00000
H          1.72450        0.00000        1.07630
C          1.84410       -1.27060       -0.70630
C          0.74960       -1.95280       -1.06200
C         -0.46830       -1.18060       -0.62960
N         -1.35140       -1.88900        0.29910
C         -2.70320       -1.71250       -0.04060
O         -3.65850       -2.07740        0.59060
N         -2.73710       -1.02720       -1.29190
C         -1.44880       -0.76450       -1.77620
O         -1.18520       -0.30800       -2.85080
C         -3.93600       -1.01280       -2.13430
C         -3.97700       -2.23880       -3.00270
C         -4.51590       -3.42840       -2.49850
C         -4.52160       -4.57630       -3.27380
C         -3.97930       -4.51890       -4.56940
O         -4.03770       -5.71290       -5.21470
C         -3.53250       -5.76290       -6.54190
C         -3.44110       -3.34150       -5.08820
C         -3.43990       -2.20070       -4.28730
C          1.90150        1.28180       -0.70870
O          2.65470        0.97910       -1.86270
C          1.89880        0.87470       -3.05980
C          1.34870        2.20220       -3.48470
C          2.08540        3.36460       -3.25400
C          1.57170        4.60060       -3.63850
C          0.32550        4.67530       -4.25900
C         -0.40560        3.51270       -4.49630
C          0.10360        2.27510       -4.10910
H          2.88020       -1.50460       -0.87630
H          0.65820       -2.89230       -1.57350
H         -1.05940       -2.10950        1.23360
H         -3.91830       -0.07670       -2.74530
H         -4.83420       -0.95130       -1.47070
H         -4.92340       -3.45220       -1.48400
H         -4.93080       -5.51200       -2.90190
H         -3.70620       -6.81270       -6.81580
H         -2.46220       -5.53550       -6.56240
H         -4.09750       -5.09640       -7.20080
H         -3.02370       -3.30010       -6.08730
H         -3.00000       -1.27550       -4.66780
H          1.03410        1.93380       -0.93520
H          2.62270        1.85150       -0.09220
H          1.11080        0.10440       -2.94170
H          2.66240        0.50350       -3.77470
H          3.05900        3.29820       -2.76980
H          2.14310        5.50720       -3.45330
H         -0.07600        5.64070       -4.55780
H         -1.37820        3.57000       -4.98040
H         -0.47640        1.36740       -4.28480
