rmsd173.gzmat
 OpenBabel08211713413D

 51 54  0  0  1  0  0  0  0  0999 V2000
    0.0000    0.0000    0.0000 O   0  0  0  0  0  0  0  0  0  0  0  0
    1.4459    0.0000    0.0000 C   0  0  1  0  0  0  0  0  0  0  0  0
    1.7245    0.0000    1.0763 H   0  0  0  0  0  0  0  0  0  0  0  0
    1.8441   -1.2706   -0.7063 C   0  0  0  0  0  0  0  0  0  0  0  0
    0.7496   -1.9528   -1.0620 C   0  0  0  0  0  0  0  0  0  0  0  0
   -0.4683   -1.1806   -0.6296 C   0  0  1  0  0  0  0  0  0  0  0  0
   -1.3514   -1.8890    0.2991 N   0  0  0  0  0  0  0  0  0  0  0  0
   -2.7032   -1.7125   -0.0406 C   0  0  0  0  0  0  0  0  0  0  0  0
   -3.6585   -2.0774    0.5906 O   0  0  0  0  0  0  0  0  0  0  0  0
   -2.7371   -1.0272   -1.2919 N   0  0  0  0  0  0  0  0  0  0  0  0
   -1.4488   -0.7645   -1.7762 C   0  0  0  0  0  0  0  0  0  0  0  0
   -1.1852   -0.3080   -2.8508 O   0  0  0  0  0  0  0  0  0  0  0  0
   -3.9360   -1.0128   -2.1343 C   0  0  0  0  0  0  0  0  0  0  0  0
   -3.9770   -2.2388   -3.0027 C   0  0  0  0  0  0  0  0  0  0  0  0
   -4.5159   -3.4284   -2.4985 C   0  0  0  0  0  0  0  0  0  0  0  0
   -4.5216   -4.5763   -3.2738 C   0  0  0  0  0  0  0  0  0  0  0  0
   -3.9793   -4.5189   -4.5694 C   0  0  0  0  0  0  0  0  0  0  0  0
   -4.0377   -5.7129   -5.2147 O   0  0  0  0  0  0  0  0  0  0  0  0
   -3.5325   -5.7629   -6.5419 C   0  0  0  0  0  0  0  0  0  0  0  0
   -3.4411   -3.3415   -5.0882 C   0  0  0  0  0  0  0  0  0  0  0  0
   -3.4399   -2.2007   -4.2873 C   0  0  0  0  0  0  0  0  0  0  0  0
    1.9015    1.2818   -0.7087 C   0  0  0  0  0  0  0  0  0  0  0  0
    2.6547    0.9791   -1.8627 O   0  0  0  0  0  0  0  0  0  0  0  0
    1.8988    0.8747   -3.0598 C   0  0  0  0  0  0  0  0  0  0  0  0
    1.3487    2.2022   -3.4847 C   0  0  0  0  0  0  0  0  0  0  0  0
    2.0854    3.3646   -3.2540 C   0  0  0  0  0  0  0  0  0  0  0  0
    1.5717    4.6006   -3.6385 C   0  0  0  0  0  0  0  0  0  0  0  0
    0.3255    4.6753   -4.2590 C   0  0  0  0  0  0  0  0  0  0  0  0
   -0.4056    3.5127   -4.4963 C   0  0  0  0  0  0  0  0  0  0  0  0
    0.1036    2.2751   -4.1091 C   0  0  0  0  0  0  0  0  0  0  0  0
    2.8802   -1.5046   -0.8763 H   0  0  0  0  0  0  0  0  0  0  0  0
    0.6582   -2.8923   -1.5735 H   0  0  0  0  0  0  0  0  0  0  0  0
   -1.0594   -2.1095    1.2336 H   0  0  0  0  0  0  0  0  0  0  0  0
   -3.9183   -0.0767   -2.7453 H   0  0  0  0  0  0  0  0  0  0  0  0
   -4.8342   -0.9513   -1.4707 H   0  0  0  0  0  0  0  0  0  0  0  0
   -4.9234   -3.4522   -1.4840 H   0  0  0  0  0  0  0  0  0  0  0  0
   -4.9308   -5.5120   -2.9019 H   0  0  0  0  0  0  0  0  0  0  0  0
   -3.7062   -6.8127   -6.8158 H   0  0  0  0  0  0  0  0  0  0  0  0
   -2.4622   -5.5355   -6.5624 H   0  0  0  0  0  0  0  0  0  0  0  0
   -4.0975   -5.0964   -7.2008 H   0  0  0  0  0  0  0  0  0  0  0  0
   -3.0237   -3.3001   -6.0873 H   0  0  0  0  0  0  0  0  0  0  0  0
   -3.0000   -1.2755   -4.6678 H   0  0  0  0  0  0  0  0  0  0  0  0
    1.0341    1.9338   -0.9352 H   0  0  0  0  0  0  0  0  0  0  0  0
    2.6227    1.8515   -0.0922 H   0  0  0  0  0  0  0  0  0  0  0  0
    1.1108    0.1044   -2.9417 H   0  0  0  0  0  0  0  0  0  0  0  0
    2.6624    0.5035   -3.7747 H   0  0  0  0  0  0  0  0  0  0  0  0
    3.0590    3.2982   -2.7698 H   0  0  0  0  0  0  0  0  0  0  0  0
    2.1431    5.5072   -3.4533 H   0  0  0  0  0  0  0  0  0  0  0  0
   -0.0760    5.6407   -4.5578 H   0  0  0  0  0  0  0  0  0  0  0  0
   -1.3782    3.5700   -4.9804 H   0  0  0  0  0  0  0  0  0  0  0  0
   -0.4764    1.3674   -4.2848 H   0  0  0  0  0  0  0  0  0  0  0  0
  2  1  1  0  0  0  0
  2  3  1  1  0  0  0
  4  2  1  0  0  0  0
  5  4  2  0  0  0  0
  6  5  1  6  0  0  0
  6 11  1  0  0  0  0
  6  1  1  0  0  0  0
  6  7  1  0  0  0  0
  7 33  1  0  0  0  0
  8  7  1  0  0  0  0
  8  9  2  0  0  0  0
 10  8  1  0  0  0  0
 11 10  1  0  0  0  0
 12 11  2  0  0  0  0
 13 35  1  0  0  0  0
 13 10  1  0  0  0  0
 14 15  1  0  0  0  0
 14 13  1  0  0  0  0
 15 36  1  0  0  0  0
 16 37  1  0  0  0  0
 16 15  2  0  0  0  0
 17 16  1  0  0  0  0
 18 17  1  0  0  0  0
 19 18  1  0  0  0  0
 20 17  2  0  0  0  0
 20 21  1  0  0  0  0
 21 14  2  0  0  0  0
 22 44  1  0  0  0  0
 22  2  1  0  0  0  0
 23 22  1  0  0  0  0
 24 45  1  0  0  0  0
 24 23  1  0  0  0  0
 25 26  1  0  0  0  0
 25 24  1  0  0  0  0
 26 47  1  0  0  0  0
 27 48  1  0  0  0  0
 27 26  2  0  0  0  0
 28 27  1  0  0  0  0
 29 28  2  0  0  0  0
 29 30  1  0  0  0  0
 30 25  2  0  0  0  0
 31  4  1  0  0  0  0
 32  5  1  0  0  0  0
 34 13  1  0  0  0  0
 38 19  1  0  0  0  0
 39 19  1  0  0  0  0
 40 19  1  0  0  0  0
 41 20  1  0  0  0  0
 42 21  1  0  0  0  0
 43 22  1  0  0  0  0
 46 24  1  0  0  0  0
 49 28  1  0  0  0  0
 50 29  1  0  0  0  0
 51 30  1  0  0  0  0
M  END
$$$$
