51
rmsd7.gzmat
O          0.00000        0.00000        0.00000
C          1.44670        0.00000        0.00000
H          1.72710        0.00000        1.07650
C          1.84390       -1.27440       -0.70030
C          0.74980       -1.97620       -1.01700
C         -0.46740       -1.21200       -0.56590
N         -1.29770       -1.90580        0.42170
C         -2.66470       -1.78920        0.12150
O         -3.58580       -2.15570        0.80030
N         -2.76260       -1.15770       -1.15600
C         -1.50000       -0.86780       -1.68900
O         -1.28800       -0.44160       -2.78780
C         -3.97910       -1.24470       -1.96930
C         -3.98960       -2.52670       -2.75390
C         -4.62390       -3.65890       -2.23020
C         -4.60790       -4.85510       -2.92940
C         -3.93830       -4.90610       -4.16420
O         -3.99030       -6.13610       -4.73810
C         -3.38130       -6.28670       -6.01290
C         -3.29720       -3.78830       -4.69820
C         -3.32900       -2.59570       -3.97870
C          1.90540        1.28170       -0.70490
O          2.56110        0.98870       -1.91890
C          1.70810        0.90730       -3.05110
C          1.15810        2.25100       -3.42180
C          1.97480        3.37950       -3.33410
C          1.47070        4.63050       -3.68020
C          0.15190        4.75460       -4.11590
C         -0.66230        3.62690       -4.20430
C         -0.16090        2.37390       -3.85800
H          2.87820       -1.49830       -0.89480
H          0.65740       -2.92440       -1.51190
H         -0.96690       -2.08500        1.35170
H         -4.01070       -0.35330       -2.64400
H         -4.86420       -1.16910       -1.29010
H         -5.12550       -3.60070       -1.26070
H         -5.09620       -5.74630       -2.54320
H         -3.56950       -7.34640       -6.23480
H         -2.30570       -6.09270       -5.96010
H         -3.86850       -5.64740       -6.75600
H         -2.77650       -3.83190       -5.64750
H         -2.82130       -1.71190       -4.37470
H          1.05440        1.97700       -0.84950
H          2.69400        1.80070       -0.12640
H          0.91660        0.15300       -2.87290
H          2.40090        0.52340       -3.82860
H          3.00350        3.27350       -2.99160
H          2.10660        5.51020       -3.61310
H         -0.24110        5.73160       -4.38710
H         -1.69250        3.72350       -4.54080
H         -0.80230        1.49290       -3.92280
