32
rmsd109.gzmat
Cl         0.00000        0.00000        0.00000
C          1.68740        0.00000        0.00000
C          2.40060        0.00000        1.18830
C          3.79210        0.00730        1.10590
Cl         4.71880        0.01260        2.52590
C          4.44170        0.01210       -0.13250
N          3.74680        0.01000       -1.28450
C          2.40080        0.00500       -1.21720
O          1.66660        0.01070       -2.35120
C          2.36920        0.03070       -3.55790
C          2.91540       -1.15170       -4.05210
C          3.48150       -1.12990       -5.32350
C          3.48300        0.07780       -6.02000
C          2.92720        1.25730       -5.53000
C          2.35950        1.23500       -4.25890
O          4.22520        0.08830       -7.19980
C          3.55930        0.25060       -8.36260
C          4.34560        0.27510       -9.53430
Cl         6.02420        0.13540       -9.43590
C          3.71060        0.41490      -10.75780
C          2.32080        0.52390      -10.75380
C          1.59760        0.50190       -9.55710
N          2.21690        0.36690       -8.36990
Cl         1.48660        0.68770      -12.22100
H          1.88960       -0.00380        2.15670
H          5.53720        0.01860       -0.23290
H          2.90260       -2.06090       -3.45440
H          3.92200       -2.02220       -5.76410
H          2.93690        2.16570       -6.12890
H          1.91690        2.12700       -3.82010
H          4.27990        0.43890      -11.69210
H          0.50170        0.59250       -9.51970
