32
rmsd104.gzmat
Cl         0.00000        0.00000        0.00000
C          1.68750        0.00000        0.00000
C          2.40190        0.00000        1.18710
C          3.79370        0.00780        1.10270
Cl         4.72150        0.00200        2.52210
C          4.44180        0.02050       -0.13580
N          3.74540        0.01980       -1.28750
C          2.40030        0.00740       -1.21840
O          1.65620        0.00290       -2.34490
C          2.31960        0.13100       -3.56400
C          3.14590       -0.88210       -4.04390
C          3.64700       -0.76110       -5.33760
C          3.29970        0.37170       -6.07070
C          2.47550        1.38740       -5.58980
C          1.97620        1.26730       -4.29660
O          3.93480        0.53160       -7.30400
C          3.17120        0.36470       -8.40600
C          3.78800        0.60770       -9.65120
Cl         5.40010        1.10050       -9.72490
C          3.04210        0.43440      -10.80630
C          1.71700        0.02530      -10.66450
C          1.16250       -0.20140       -9.40070
N          1.88830       -0.02960       -8.28120
Cl         0.75650       -0.20040      -12.04360
H          1.89210       -0.00360        2.15570
H          5.53690        0.03140       -0.23740
H          3.39700       -1.73710       -3.41850
H          4.29420       -1.52310       -5.76750
H          2.22830        2.24320       -6.21450
H          1.32790        2.02730       -3.86420
H          3.47780        0.61280      -11.79450
H          0.12200       -0.52630       -9.25270
