32
rmsd90.gzmat
Cl         0.00000        0.00000        0.00000
C          1.68730        0.00000        0.00000
C          2.39830        0.00000        1.18940
C          3.79010        0.00110        1.10890
Cl         4.71320       -0.00010        2.53140
C          4.44150        0.00460       -0.12820
N          3.74870        0.00570       -1.28200
C          2.40280        0.00080       -1.21690
O          1.66610       -0.01380       -2.34880
C          2.35540       -0.00580       -3.56210
C          2.25870       -1.16940       -4.32320
C          2.80460       -1.16260       -5.60400
C          3.42430        0.00420       -6.04630
C          3.51060        1.17190       -5.28840
C          2.96660        1.16420       -4.00720
O          4.14620        0.02610       -7.23830
C          3.47050       -0.13510       -8.39580
C          4.24020       -0.10810       -9.57920
Cl         5.91200        0.11010       -9.50540
C          3.59440       -0.26030      -10.79560
C          2.21050       -0.43060      -10.77440
C          1.50300       -0.44210       -9.56860
N          2.13340       -0.29790       -8.38840
Cl         1.36580       -0.62710      -12.23170
H          1.88640       -0.00020        2.15690
H          5.53700        0.00600       -0.22560
H          1.76570       -2.05330       -3.92220
H          2.74520       -2.03870       -6.24670
H          3.99840        2.05730       -5.69170
H          3.01910        2.04050       -3.36440
H          4.14950       -0.24530      -11.73930
H          0.41130       -0.56670       -9.51660
