rmsd35.gzmat
 OpenBabel08211713383D

 32 34  0  0  1  0  0  0  0  0999 V2000
    0.0000    0.0000    0.0000 Cl  0  0  0  0  0  0  0  0  0  0  0  0
    1.6875    0.0000    0.0000 C   0  0  0  0  0  0  0  0  0  0  0  0
    2.4003    0.0000    1.1877 C   0  0  0  0  0  0  0  0  0  0  0  0
    3.7922   -0.0028    1.1043 C   0  0  1  0  0  0  0  0  0  0  0  0
    4.7177   -0.0081    2.5250 Cl  0  0  0  0  0  0  0  0  0  0  0  0
    4.4409   -0.0024   -0.1340 C   0  0  0  0  0  0  0  0  0  0  0  0
    3.7459   -0.0013   -1.2865 N   0  0  0  0  0  0  0  0  0  0  0  0
    2.4009   -0.0037   -1.2186 C   0  0  0  0  0  0  0  0  0  0  0  0
    1.6552   -0.0230   -2.3435 O   0  0  0  0  0  0  0  0  0  0  0  0
    2.3110   -0.0554   -3.5722 C   0  0  0  0  0  0  0  0  0  0  0  0
    2.0085   -1.1632   -4.3640 C   0  0  0  0  0  0  0  0  0  0  0  0
    2.4811   -1.1830   -5.6727 C   0  0  0  0  0  0  0  0  0  0  0  0
    3.2480   -0.1038   -6.1100 C   0  0  0  0  0  0  0  0  0  0  0  0
    3.5594    0.9975   -5.3159 C   0  0  0  0  0  0  0  0  0  0  0  0
    3.0786    1.0221   -4.0093 C   0  0  0  0  0  0  0  0  0  0  0  0
    3.8196   -0.2567   -7.3726 O   0  0  0  0  0  0  0  0  0  0  0  0
    3.4437    0.6049   -8.3418 C   0  0  0  0  0  0  0  0  0  0  0  0
    4.0179    0.4046   -9.6157 C   0  0  0  0  0  0  0  0  0  0  0  0
    5.1155   -0.8519   -9.8687 Cl  0  0  0  0  0  0  0  0  0  0  0  0
    3.6599    1.2566  -10.6479 C   0  0  0  0  0  0  0  0  0  0  0  0
    2.7467    2.2703  -10.3603 C   0  0  2  0  0  0  0  0  0  0  0  0
    2.2111    2.4163   -9.0770 C   0  0  0  0  0  0  0  0  0  0  0  0
    2.5609    1.5868   -8.0767 N   0  0  0  0  0  0  0  0  0  0  0  0
    2.2740    3.3465  -11.5825 Cl  0  0  0  0  0  0  0  0  0  0  0  0
    1.8895   -0.0002    2.1562 H   0  0  0  0  0  0  0  0  0  0  0  0
    5.5363   -0.0042   -0.2350 H   0  0  0  0  0  0  0  0  0  0  0  0
    1.4101   -1.9801   -3.9646 H   0  0  0  0  0  0  0  0  0  0  0  0
    2.2676   -2.0157   -6.3404 H   0  0  0  0  0  0  0  0  0  0  0  0
    4.1525    1.8188   -5.7142 H   0  0  0  0  0  0  0  0  0  0  0  0
    3.3003    1.8535   -3.3425 H   0  0  0  0  0  0  0  0  0  0  0  0
    4.0777    1.1376  -11.6528 H   0  0  0  0  0  0  0  0  0  0  0  0
    1.4872    3.2027   -8.8175 H   0  0  0  0  0  0  0  0  0  0  0  0
  1  2  1  0  0  0  0
  2  3  2  0  0  0  0
  3 25  1  0  0  0  0
  4  3  1  0  0  0  0
  4  5  1  6  0  0  0
  6  4  1  0  0  0  0
  7  8  2  0  0  0  0
  7  6  2  0  0  0  0
  8  2  1  0  0  0  0
  9  8  1  0  0  0  0
 10  9  1  0  0  0  0
 11 27  1  0  0  0  0
 11 10  2  0  0  0  0
 12 11  1  0  0  0  0
 13 12  2  0  0  0  0
 13 14  1  0  0  0  0
 14 15  2  0  0  0  0
 15 10  1  0  0  0  0
 15 30  1  0  0  0  0
 16 13  1  0  0  0  0
 17 23  2  0  0  0  0
 17 16  1  0  0  0  0
 18 17  1  0  0  0  0
 19 18  1  0  0  0  0
 20 21  1  0  0  0  0
 20 18  2  0  0  0  0
 21 24  1  6  0  0  0
 21 22  1  0  0  0  0
 22 32  1  0  0  0  0
 22 23  2  0  0  0  0
 26  6  1  0  0  0  0
 28 12  1  0  0  0  0
 29 14  1  0  0  0  0
 31 20  1  0  0  0  0
M  RAD  2   4   2  21   2
M  END
$$$$
