
     RDKit          3D

 32 34  0  0  0  0  0  0  0  0999 V2000
   -0.0444    0.0060   -0.0158 Cl  0  0  0  0  0  0  0  0  0  0  0  0
    1.6898    0.0459    0.0100 C   0  0  0  0  0  0  0  0  0  0  0  0
    2.3828    0.2178    1.2016 C   0  0  0  0  0  0  0  0  0  0  0  0
    3.7827    0.2434    1.1632 C   0  0  0  0  0  0  0  0  0  0  0  0
    4.7021    0.4599    2.6258 Cl  0  0  0  0  0  0  0  0  0  0  0  0
    4.4277    0.0944   -0.0641 C   0  0  0  0  0  0  0  0  0  0  0  0
    3.7487   -0.0726   -1.2003 N   0  0  0  0  0  0  0  0  0  0  0  0
    2.4305   -0.0980   -1.1871 C   0  0  0  0  0  0  0  0  0  0  0  0
    1.7321   -0.2849   -2.3266 O   0  0  0  0  0  0  0  0  0  0  0  0
    2.3597   -0.3118   -3.5614 C   0  0  0  0  0  0  0  0  0  0  0  0
    3.1204    0.7661   -4.0234 C   0  0  0  0  0  0  0  0  0  0  0  0
    3.6642    0.7240   -5.3045 C   0  0  0  0  0  0  0  0  0  0  0  0
    3.4353   -0.3920   -6.1144 C   0  0  0  0  0  0  0  0  0  0  0  0
    2.6731   -1.4639   -5.6555 C   0  0  0  0  0  0  0  0  0  0  0  0
    2.1359   -1.4259   -4.3670 C   0  0  0  0  0  0  0  0  0  0  0  0
    4.0185   -0.5170   -7.3649 O   0  0  0  0  0  0  0  0  0  0  0  0
    3.8199    0.4071   -8.3281 C   0  0  0  0  0  0  0  0  0  0  0  0
    4.5598    0.2632   -9.5258 C   0  0  0  0  0  0  0  0  0  0  0  0
    5.6883   -1.0409   -9.7138 Cl  0  0  0  0  0  0  0  0  0  0  0  0
    4.3599    1.1875  -10.5434 C   0  0  0  0  0  0  0  0  0  0  0  0
    3.4373    2.2208  -10.3364 C   0  0  0  0  0  0  0  0  0  0  0  0
    2.7543    2.2835   -9.1223 C   0  0  0  0  0  0  0  0  0  0  0  0
    2.9547    1.3869   -8.1549 N   0  0  0  0  0  0  0  0  0  0  0  0
    3.1502    3.4092  -11.5760 Cl  0  0  0  0  0  0  0  0  0  0  0  0
    1.8429    0.3311    2.1417 H   0  0  0  0  0  0  0  0  0  0  0  0
    5.5200    0.1094   -0.1228 H   0  0  0  0  0  0  0  0  0  0  0  0
    3.2897    1.6298   -3.3807 H   0  0  0  0  0  0  0  0  0  0  0  0
    4.2599    1.5565   -5.6782 H   0  0  0  0  0  0  0  0  0  0  0  0
    2.5138   -2.3218   -6.3102 H   0  0  0  0  0  0  0  0  0  0  0  0
    1.5363   -2.2506   -3.9792 H   0  0  0  0  0  0  0  0  0  0  0  0
    4.9132    1.1053  -11.4790 H   0  0  0  0  0  0  0  0  0  0  0  0
    2.0274    3.0792   -8.9345 H   0  0  0  0  0  0  0  0  0  0  0  0
  1  2  1  0
  2  3  2  0
  2  8  1  0
  3  4  1  0
  3 25  1  0
  4  5  1  0
  4  6  2  0
  6  7  1  0
  6 26  1  0
  7  8  2  0
  8  9  1  0
  9 10  1  0
 10 11  2  0
 10 15  1  0
 11 12  1  0
 11 27  1  0
 12 13  2  0
 12 28  1  0
 13 14  1  0
 13 16  1  0
 14 15  2  0
 14 29  1  0
 15 30  1  0
 16 17  1  0
 17 18  2  0
 17 23  1  0
 18 19  1  0
 18 20  1  0
 20 21  2  0
 20 31  1  0
 21 22  1  0
 21 24  1  0
 22 23  2  0
 22 32  1  0
M  END

