rmsd11.gzmat
 OpenBabel08211713383D

 32 34  0  0  1  0  0  0  0  0999 V2000
    0.0000    0.0000    0.0000 Cl  0  0  0  0  0  0  0  0  0  0  0  0
    1.6875    0.0000    0.0000 C   0  0  0  0  0  0  0  0  0  0  0  0
    2.3988    0.0000    1.1893 C   0  0  0  0  0  0  0  0  0  0  0  0
    3.7906    0.0045    1.1091 C   0  0  1  0  0  0  0  0  0  0  0  0
    4.7153    0.0009    2.5303 Cl  0  0  0  0  0  0  0  0  0  0  0  0
    4.4422    0.0106   -0.1278 C   0  0  0  0  0  0  0  0  0  0  0  0
    3.7492    0.0052   -1.2809 N   0  0  0  0  0  0  0  0  0  0  0  0
    2.4032   -0.0031   -1.2167 C   0  0  0  0  0  0  0  0  0  0  0  0
    1.6661   -0.0228   -2.3485 O   0  0  0  0  0  0  0  0  0  0  0  0
    2.3535   -0.0823   -3.5613 C   0  0  0  0  0  0  0  0  0  0  0  0
    3.0826    1.0137   -4.0174 C   0  0  0  0  0  0  0  0  0  0  0  0
    3.6380    0.9471   -5.2917 C   0  0  0  0  0  0  0  0  0  0  0  0
    3.4323   -0.2114   -6.0383 C   0  0  0  0  0  0  0  0  0  0  0  0
    2.6878   -1.3016   -5.5890 C   0  0  0  0  0  0  0  0  0  0  0  0
    2.1421   -1.2395   -4.3099 C   0  0  0  0  0  0  0  0  0  0  0  0
    4.1014   -0.4187   -7.2420 O   0  0  0  0  0  0  0  0  0  0  0  0
    3.8560    0.4250   -8.2666 C   0  0  0  0  0  0  0  0  0  0  0  0
    4.6157    0.2188   -9.4387 C   0  0  0  0  0  0  0  0  0  0  0  0
    5.7766   -1.0045   -9.4981 Cl  0  0  0  0  0  0  0  0  0  0  0  0
    4.3877    1.0389  -10.5316 C   0  0  0  0  0  0  0  0  0  0  0  0
    3.4129    2.0278  -10.4034 C   0  0  2  0  0  0  0  0  0  0  0  0
    2.6951    2.1841   -9.2139 C   0  0  0  0  0  0  0  0  0  0  0  0
    2.9200    1.3870   -8.1529 N   0  0  0  0  0  0  0  0  0  0  0  0
    3.0883    3.0598  -11.7088 Cl  0  0  0  0  0  0  0  0  0  0  0  0
    1.8856   -0.0046    2.1564 H   0  0  0  0  0  0  0  0  0  0  0  0
    5.5381    0.0191   -0.2253 H   0  0  0  0  0  0  0  0  0  0  0  0
    3.2224    1.8891   -3.3860 H   0  0  0  0  0  0  0  0  0  0  0  0
    4.2127    1.7763   -5.6998 H   0  0  0  0  0  0  0  0  0  0  0  0
    2.5520   -2.1763   -6.2224 H   0  0  0  0  0  0  0  0  0  0  0  0
    1.5620   -2.0637   -3.8991 H   0  0  0  0  0  0  0  0  0  0  0  0
    4.9515    0.9153  -11.4619 H   0  0  0  0  0  0  0  0  0  0  0  0
    1.9195    2.9528   -9.0812 H   0  0  0  0  0  0  0  0  0  0  0  0
  1  2  1  0  0  0  0
  2  3  2  0  0  0  0
  3 25  1  0  0  0  0
  4  3  1  0  0  0  0
  4  5  1  6  0  0  0
  6  4  1  0  0  0  0
  7  8  2  0  0  0  0
  7  6  2  0  0  0  0
  8  2  1  0  0  0  0
  9  8  1  0  0  0  0
 10  9  1  0  0  0  0
 11 10  1  0  0  0  0
 11 27  1  0  0  0  0
 12 11  2  0  0  0  0
 13 14  2  0  0  0  0
 13 12  1  0  0  0  0
 14 15  1  0  0  0  0
 15 30  1  0  0  0  0
 15 10  2  0  0  0  0
 16 13  1  0  0  0  0
 17 23  2  0  0  0  0
 17 16  1  0  0  0  0
 18 17  1  0  0  0  0
 19 18  1  0  0  0  0
 20 21  1  0  0  0  0
 20 18  2  0  0  0  0
 21 24  1  6  0  0  0
 21 22  1  0  0  0  0
 22 32  1  0  0  0  0
 22 23  2  0  0  0  0
 26  6  1  0  0  0  0
 28 12  1  0  0  0  0
 29 14  1  0  0  0  0
 31 20  1  0  0  0  0
M  RAD  2   4   2  21   2
M  END
$$$$
