32
rmsd122.gzmat
Cl         0.00000        0.00000        0.00000
C          1.68750        0.00000        0.00000
C          2.39820        0.00000        1.18980
C          3.79020       -0.00020        1.11080
Cl         4.71280       -0.00230        2.53350
C          4.44250        0.00040       -0.12580
N          3.74990       -0.00060       -1.27950
C          2.40410       -0.00240       -1.21630
O          1.67120       -0.01400       -2.35040
C          2.36140       -0.03960       -3.56290
C          2.19670       -1.19850       -4.32090
C          2.73050       -1.22280       -5.60620
C          3.40580       -0.09110       -6.05700
C          3.56990        1.06800       -5.29980
C          3.03990        1.09130       -4.01250
O          4.09850       -0.11810       -7.26710
C          3.37370       -0.14820       -8.40590
C          4.10390       -0.17000       -9.61370
Cl         5.79130       -0.16050       -9.59210
C          3.40780       -0.19700      -10.81160
C          2.01500       -0.19770      -10.74840
C          1.34870       -0.17020       -9.51950
N          2.02720       -0.14780       -8.35750
Cl         1.10870       -0.23290      -12.18110
H          1.88510       -0.00030        2.15720
H          5.53820        0.00190       -0.22440
H          1.65860       -2.05310       -3.91420
H          2.62170       -2.09570       -6.24720
H          4.10480        1.92330       -5.70790
H          3.15720        1.96260       -3.37030
H          3.93240       -0.21670      -11.77230
H          0.25190       -0.16610       -9.43560
