32
rmsd31.gzmat
Cl         0.00000        0.00000        0.00000
C          1.68750        0.00000        0.00000
C          2.40070        0.00000        1.18790
C          3.79240        0.00840        1.10470
Cl         4.71830        0.01530        2.52510
C          4.44130        0.01260       -0.13350
N          3.74590        0.00940       -1.28560
C          2.40050        0.00600       -1.21790
O          1.65750        0.02040       -2.34540
C          2.32520        0.05160       -3.56850
C          3.10570       -1.02280       -3.98990
C          3.61840       -0.99370       -5.28380
C          3.32290        0.10910       -6.08190
C          2.53470        1.18060       -5.66390
C          2.03070        1.15650       -4.36680
O          3.93610        0.27660       -7.32250
C          3.61440       -0.58660       -8.30910
C          4.24150       -0.37170       -9.55550
Cl         5.33730        0.89630       -9.75210
C          3.93670       -1.21940      -10.60810
C          3.02170       -2.24360      -10.36750
C          2.43590       -2.40700       -9.10860
N          2.73310       -1.58110       -8.08800
Cl         2.60820       -3.31080      -11.61860
H          1.89020       -0.00510        2.15660
H          5.53680        0.01900       -0.23470
H          3.31540       -1.85380       -3.31870
H          4.22590       -1.81030       -5.66950
H          2.33130        2.01200       -6.33600
H          1.41720        1.96890       -3.98170
H          4.39710       -1.08870      -11.59280
H          1.71250       -3.20520       -8.88540
