rmsd103.gzmat
 OpenBabel08211713383D

 32 34  0  0  1  0  0  0  0  0999 V2000
    0.0000    0.0000    0.0000 Cl  0  0  0  0  0  0  0  0  0  0  0  0
    1.6874    0.0000    0.0000 C   0  0  0  0  0  0  0  0  0  0  0  0
    2.3983    0.0000    1.1892 C   0  0  0  0  0  0  0  0  0  0  0  0
    3.7903    0.0078    1.1095 C   0  0  1  0  0  0  0  0  0  0  0  0
    4.7129    0.0066    2.5323 Cl  0  0  0  0  0  0  0  0  0  0  0  0
    4.4414    0.0157   -0.1275 C   0  0  0  0  0  0  0  0  0  0  0  0
    3.7484    0.0086   -1.2814 N   0  0  0  0  0  0  0  0  0  0  0  0
    2.4030    0.0009   -1.2175 C   0  0  0  0  0  0  0  0  0  0  0  0
    1.6586    0.0048   -2.3439 O   0  0  0  0  0  0  0  0  0  0  0  0
    2.3104   -0.0082   -3.5746 C   0  0  0  0  0  0  0  0  0  0  0  0
    3.1369   -1.0639   -3.9526 C   0  0  0  0  0  0  0  0  0  0  0  0
    3.6179   -1.0857   -5.2588 C   0  0  0  0  0  0  0  0  0  0  0  0
    3.2544   -0.0439   -6.1116 C   0  0  0  0  0  0  0  0  0  0  0  0
    2.4262    1.0111   -5.7346 C   0  0  0  0  0  0  0  0  0  0  0  0
    1.9450    1.0330   -4.4287 C   0  0  0  0  0  0  0  0  0  0  0  0
    3.9026   -0.0408   -7.3453 O   0  0  0  0  0  0  0  0  0  0  0  0
    3.1481   -0.1313   -8.4613 C   0  0  0  0  0  0  0  0  0  0  0  0
    3.8429   -0.0928   -9.6901 C   0  0  0  0  0  0  0  0  0  0  0  0
    5.5216    0.0767   -9.7159 Cl  0  0  0  0  0  0  0  0  0  0  0  0
    3.1189   -0.1955  -10.8668 C   0  0  0  0  0  0  0  0  0  0  0  0
    1.7352   -0.3326  -10.7636 C   0  0  1  0  0  0  0  0  0  0  0  0
    1.1048   -0.3647   -9.5160 C   0  0  0  0  0  0  0  0  0  0  0  0
    1.8105   -0.2623   -8.3745 N   0  0  0  0  0  0  0  0  0  0  0  0
    0.7984   -0.4605  -12.1716 Cl  0  0  0  0  0  0  0  0  0  0  0  0
    1.8861   -0.0069    2.1570 H   0  0  0  0  0  0  0  0  0  0  0  0
    5.5368    0.0277   -0.2265 H   0  0  0  0  0  0  0  0  0  0  0  0
    3.4044   -1.8436   -3.2415 H   0  0  0  0  0  0  0  0  0  0  0  0
    4.2651   -1.8867   -5.6110 H   0  0  0  0  0  0  0  0  0  0  0  0
    2.1589    1.7894   -6.4467 H   0  0  0  0  0  0  0  0  0  0  0  0
    1.2941    1.8319   -4.0783 H   0  0  0  0  0  0  0  0  0  0  0  0
    3.6140   -0.1687  -11.8432 H   0  0  0  0  0  0  0  0  0  0  0  0
    0.0163   -0.4728   -9.3992 H   0  0  0  0  0  0  0  0  0  0  0  0
  1  2  1  0  0  0  0
  2  3  2  0  0  0  0
  3 25  1  0  0  0  0
  4  3  1  0  0  0  0
  4  5  1  6  0  0  0
  6  4  1  0  0  0  0
  7  8  2  0  0  0  0
  7  6  2  0  0  0  0
  8  2  1  0  0  0  0
  9  8  1  0  0  0  0
 10  9  1  0  0  0  0
 11 10  1  0  0  0  0
 11 27  1  0  0  0  0
 12 11  2  0  0  0  0
 13 14  2  0  0  0  0
 13 12  1  0  0  0  0
 14 15  1  0  0  0  0
 15 30  1  0  0  0  0
 15 10  2  0  0  0  0
 16 13  1  0  0  0  0
 17 23  2  0  0  0  0
 17 16  1  0  0  0  0
 18 17  1  0  0  0  0
 19 18  1  0  0  0  0
 20 21  1  0  0  0  0
 20 18  2  0  0  0  0
 21 24  1  6  0  0  0
 21 22  1  0  0  0  0
 22 32  1  0  0  0  0
 22 23  2  0  0  0  0
 26  6  1  0  0  0  0
 28 12  1  0  0  0  0
 29 14  1  0  0  0  0
 31 20  1  0  0  0  0
M  RAD  2   4   2  21   2
M  END
$$$$
