49
rmsd202.gzmat
O          0.00000        0.00000        0.00000
C          1.36490        0.00000        0.00000
C          2.09720        0.00000        1.18390
C          3.48840        0.01690        1.12910
C          4.14570        0.02560       -0.10210
C          3.41290        0.02240       -1.28880
C          2.01470        0.01260       -1.24740
O          1.44840        0.00010       -2.47940
C          0.03310        0.11580       -2.55790
C          5.63770        0.02840       -0.14950
C          6.27180       -1.35250       -0.13310
O          7.42320       -1.51570       -0.49240
N          5.50000       -2.40970        0.29280
C          6.10080       -3.73000        0.50010
C          5.96700       -4.19370        1.96340
C          6.98660       -3.52340        2.89770
C          6.60360       -2.11430        3.23600
C          5.46300       -1.86470        4.00180
C          5.08640       -0.55870        4.31220
C          5.86730        0.51610        3.86140
C          7.01830        0.26120        3.11500
C          7.38400       -1.04400        2.79780
C          5.47740        1.92350        4.16380
C          3.85280       -0.32090        5.11740
H         -0.35860       -0.03880        0.91900
H          1.58880       -0.01100        2.14380
H          4.06590        0.02290        2.05500
H          3.91310        0.02380       -2.25710
H         -0.13460        0.15200       -3.64190
H         -0.31390        1.03710       -2.07880
H         -0.45060       -0.76280       -2.11740
H          6.06280        0.59540        0.71410
H          6.01320        0.56930       -1.04890
H          4.58120       -2.26560        0.68190
H          7.17380       -3.71150        0.19090
H          5.58880       -4.45350       -0.17620
H          6.10500       -5.29190        2.00090
H          4.93880       -4.01010        2.32910
H          7.99560       -3.55810        2.43540
H          7.07660       -4.11500        3.83350
H          4.86460       -2.69930        4.35970
H          7.64010        1.08840        2.77550
H          8.27200       -1.22570        2.19080
H          6.18220        2.65660        3.74940
H          5.43100        2.10130        5.24840
H          4.48540        2.16170        3.75140
H          3.35100       -1.25290        5.40780
H          3.12130        0.28280        4.56100
H          4.08240        0.22080        6.04720
