49

O         -0.10370       -0.32460        0.03760
C          1.25260       -0.20800        0.03830
C          2.00340       -0.08250        1.21310
C          3.39480       -0.00510        1.16830
C          4.07700       -0.05070       -0.05610
C          3.31840       -0.15620       -1.22810
C          1.92390       -0.22570       -1.19970
O          1.24740       -0.38730       -2.37970
C          0.32370        0.62990       -2.74520
C          5.58410        0.00360       -0.10280
C          6.31390       -1.09890        0.67140
O          7.40800       -0.90720        1.17890
N          5.67090       -2.29710        0.72950
C          6.30380       -3.45980        1.32310
C          7.25770       -4.20470        0.38300
C          6.56820       -4.98360       -0.74790
C          5.77180       -4.14410       -1.72290
C          4.37750       -4.25780       -1.80740
C          3.61140       -3.50910       -2.71220
C          4.26600       -2.60490       -3.57760
C          5.65820       -2.47350       -3.47850
C          6.40390       -3.22540       -2.56990
C          3.48520       -1.81300       -4.59420
C          2.11590       -3.68100       -2.77350
H         -0.42500       -0.29590        0.94820
H          1.48280       -0.06010        2.17600
H          3.95750        0.07750        2.10110
H          3.80950       -0.19640       -2.20020
H         -0.04170        0.37390       -3.74910
H          0.82140        1.61520       -2.78350
H         -0.52470        0.67650       -2.04640
H          5.96970        0.95120        0.30270
H          5.93060       -0.05980       -1.14740
H          4.82550       -2.41890        0.18440
H          5.51320       -4.13900        1.68370
H          6.86900       -3.10590        2.19730
H          7.85060       -4.91470        0.98500
H          7.97400       -3.47430       -0.02710
H          5.90410       -5.74520       -0.30510
H          7.34140       -5.53920       -1.30640
H          3.86500       -4.96900       -1.15160
H          6.17150       -1.77150       -4.14210
H          7.48940       -3.10180       -2.52660
H          4.14000       -1.13050       -5.15580
H          2.68870       -1.22070       -4.11730
H          2.99140       -2.47840       -5.32330
H          1.76610       -4.40080       -2.01940
H          1.79830       -4.05100       -3.76360
H          1.59210       -2.72590       -2.61220
