
     RDKit          3D

 49 50  0  0  0  0  0  0  0  0999 V2000
   -0.1037   -0.3246    0.0376 O   0  0  0  0  0  0  0  0  0  0  0  0
    1.2526   -0.2080    0.0383 C   0  0  0  0  0  0  0  0  0  0  0  0
    2.0034   -0.0825    1.2131 C   0  0  0  0  0  0  0  0  0  0  0  0
    3.3948   -0.0051    1.1683 C   0  0  0  0  0  0  0  0  0  0  0  0
    4.0770   -0.0507   -0.0561 C   0  0  0  0  0  0  0  0  0  0  0  0
    3.3184   -0.1562   -1.2281 C   0  0  0  0  0  0  0  0  0  0  0  0
    1.9239   -0.2257   -1.1997 C   0  0  0  0  0  0  0  0  0  0  0  0
    1.2474   -0.3873   -2.3797 O   0  0  0  0  0  0  0  0  0  0  0  0
    0.3237    0.6299   -2.7452 C   0  0  0  0  0  0  0  0  0  0  0  0
    5.5841    0.0036   -0.1028 C   0  0  0  0  0  0  0  0  0  0  0  0
    6.3139   -1.0989    0.6714 C   0  0  0  0  0  0  0  0  0  0  0  0
    7.4080   -0.9072    1.1789 O   0  0  0  0  0  0  0  0  0  0  0  0
    5.6709   -2.2971    0.7295 N   0  0  0  0  0  0  0  0  0  0  0  0
    6.3038   -3.4598    1.3231 C   0  0  0  0  0  0  0  0  0  0  0  0
    7.2577   -4.2047    0.3830 C   0  0  0  0  0  0  0  0  0  0  0  0
    6.5682   -4.9836   -0.7479 C   0  0  0  0  0  0  0  0  0  0  0  0
    5.7718   -4.1441   -1.7229 C   0  0  0  0  0  0  0  0  0  0  0  0
    4.3775   -4.2578   -1.8074 C   0  0  0  0  0  0  0  0  0  0  0  0
    3.6114   -3.5091   -2.7122 C   0  0  0  0  0  0  0  0  0  0  0  0
    4.2660   -2.6049   -3.5776 C   0  0  0  0  0  0  0  0  0  0  0  0
    5.6582   -2.4735   -3.4785 C   0  0  0  0  0  0  0  0  0  0  0  0
    6.4039   -3.2254   -2.5699 C   0  0  0  0  0  0  0  0  0  0  0  0
    3.4852   -1.8130   -4.5942 C   0  0  0  0  0  0  0  0  0  0  0  0
    2.1159   -3.6810   -2.7735 C   0  0  0  0  0  0  0  0  0  0  0  0
   -0.4250   -0.2959    0.9482 H   0  0  0  0  0  0  0  0  0  0  0  0
    1.4828   -0.0601    2.1760 H   0  0  0  0  0  0  0  0  0  0  0  0
    3.9575    0.0775    2.1011 H   0  0  0  0  0  0  0  0  0  0  0  0
    3.8095   -0.1964   -2.2002 H   0  0  0  0  0  0  0  0  0  0  0  0
   -0.0417    0.3739   -3.7491 H   0  0  0  0  0  0  0  0  0  0  0  0
    0.8214    1.6152   -2.7835 H   0  0  0  0  0  0  0  0  0  0  0  0
   -0.5247    0.6765   -2.0464 H   0  0  0  0  0  0  0  0  0  0  0  0
    5.9697    0.9512    0.3027 H   0  0  0  0  0  0  0  0  0  0  0  0
    5.9306   -0.0598   -1.1474 H   0  0  0  0  0  0  0  0  0  0  0  0
    4.8255   -2.4189    0.1844 H   0  0  0  0  0  0  0  0  0  0  0  0
    5.5132   -4.1390    1.6837 H   0  0  0  0  0  0  0  0  0  0  0  0
    6.8690   -3.1059    2.1973 H   0  0  0  0  0  0  0  0  0  0  0  0
    7.8506   -4.9147    0.9850 H   0  0  0  0  0  0  0  0  0  0  0  0
    7.9740   -3.4743   -0.0271 H   0  0  0  0  0  0  0  0  0  0  0  0
    5.9041   -5.7452   -0.3051 H   0  0  0  0  0  0  0  0  0  0  0  0
    7.3414   -5.5392   -1.3064 H   0  0  0  0  0  0  0  0  0  0  0  0
    3.8650   -4.9690   -1.1516 H   0  0  0  0  0  0  0  0  0  0  0  0
    6.1715   -1.7715   -4.1421 H   0  0  0  0  0  0  0  0  0  0  0  0
    7.4894   -3.1018   -2.5266 H   0  0  0  0  0  0  0  0  0  0  0  0
    4.1400   -1.1305   -5.1558 H   0  0  0  0  0  0  0  0  0  0  0  0
    2.6887   -1.2207   -4.1173 H   0  0  0  0  0  0  0  0  0  0  0  0
    2.9914   -2.4784   -5.3233 H   0  0  0  0  0  0  0  0  0  0  0  0
    1.7661   -4.4008   -2.0194 H   0  0  0  0  0  0  0  0  0  0  0  0
    1.7983   -4.0510   -3.7636 H   0  0  0  0  0  0  0  0  0  0  0  0
    1.5921   -2.7259   -2.6122 H   0  0  0  0  0  0  0  0  0  0  0  0
  1  2  1  0
  1 25  1  0
  2  3  2  0
  2  7  1  0
  3  4  1  0
  3 26  1  0
  4  5  2  0
  4 27  1  0
  5  6  1  0
  5 10  1  0
  6  7  2  0
  6 28  1  0
  7  8  1  0
  8  9  1  0
  9 29  1  0
  9 30  1  0
  9 31  1  0
 10 11  1  0
 10 32  1  0
 10 33  1  0
 11 12  2  0
 11 13  1  0
 13 14  1  0
 13 34  1  0
 14 15  1  0
 14 35  1  0
 14 36  1  0
 15 16  1  0
 15 37  1  0
 15 38  1  0
 16 17  1  0
 16 39  1  0
 16 40  1  0
 17 18  2  0
 17 22  1  0
 18 19  1  0
 18 41  1  0
 19 20  2  0
 19 24  1  0
 20 21  1  0
 20 23  1  0
 21 22  2  0
 21 42  1  0
 22 43  1  0
 23 44  1  0
 23 45  1  0
 23 46  1  0
 24 47  1  0
 24 48  1  0
 24 49  1  0
M  END

