rmsd26.gzmat
 OpenBabel08211713413D

 49 50  0  0  0  0  0  0  0  0999 V2000
    0.0000    0.0000    0.0000 O   0  0  0  0  0  0  0  0  0  0  0  0
    1.3636    0.0000    0.0000 C   0  0  0  0  0  0  0  0  0  0  0  0
    2.0989    0.0000    1.1823 C   0  0  0  0  0  0  0  0  0  0  0  0
    3.4900    0.0046    1.1262 C   0  0  0  0  0  0  0  0  0  0  0  0
    4.1448    0.0019   -0.1069 C   0  0  0  0  0  0  0  0  0  0  0  0
    3.4103    0.0046   -1.2922 C   0  0  0  0  0  0  0  0  0  0  0  0
    2.0120    0.0035   -1.2475 C   0  0  0  0  0  0  0  0  0  0  0  0
    1.4434    0.0016   -2.4788 O   0  0  0  0  0  0  0  0  0  0  0  0
    0.0260   -0.0993   -2.5541 C   0  0  0  0  0  0  0  0  0  0  0  0
    5.6387   -0.0380   -0.1470 C   0  0  0  0  0  0  0  0  0  0  0  0
    6.1472   -1.3250    0.4877 C   0  0  0  0  0  0  0  0  0  0  0  0
    6.9450   -1.3308    1.4021 O   0  0  0  0  0  0  0  0  0  0  0  0
    5.6780   -2.4928   -0.0798 N   0  0  0  0  0  0  0  0  0  0  0  0
    5.9045   -3.7692    0.6034 C   0  0  0  0  0  0  0  0  0  0  0  0
    4.9357   -3.9883    1.7855 C   0  0  0  0  0  0  0  0  0  0  0  0
    3.4596   -3.7670    1.4189 C   0  0  0  0  0  0  0  0  0  0  0  0
    3.0913   -4.4245    0.1247 C   0  0  0  0  0  0  0  0  0  0  0  0
    2.6497   -3.6503   -0.9487 C   0  0  0  0  0  0  0  0  0  0  0  0
    2.3514   -4.2392   -2.1773 C   0  0  0  0  0  0  0  0  0  0  0  0
    2.4766   -5.6277   -2.3287 C   0  0  0  0  0  0  0  0  0  0  0  0
    2.8946   -6.4013   -1.2448 C   0  0  0  0  0  0  0  0  0  0  0  0
    3.2012   -5.8075   -0.0241 C   0  0  0  0  0  0  0  0  0  0  0  0
    2.1722   -6.2852   -3.6326 C   0  0  0  0  0  0  0  0  0  0  0  0
    1.9255   -3.3793   -3.3180 C   0  0  0  0  0  0  0  0  0  0  0  0
   -0.3595   -0.0344    0.9204 H   0  0  0  0  0  0  0  0  0  0  0  0
    1.5914    0.0002    2.1437 H   0  0  0  0  0  0  0  0  0  0  0  0
    4.0711    0.0076    2.0486 H   0  0  0  0  0  0  0  0  0  0  0  0
    3.9056    0.0115   -2.2622 H   0  0  0  0  0  0  0  0  0  0  0  0
   -0.1437   -0.1341   -3.6374 H   0  0  0  0  0  0  0  0  0  0  0  0
   -0.4486    0.7852   -2.1151 H   0  0  0  0  0  0  0  0  0  0  0  0
   -0.3300   -1.0155   -2.0698 H   0  0  0  0  0  0  0  0  0  0  0  0
    6.0695    0.8273    0.4081 H   0  0  0  0  0  0  0  0  0  0  0  0
    6.0392    0.0561   -1.1772 H   0  0  0  0  0  0  0  0  0  0  0  0
    4.9013   -2.4714   -0.7291 H   0  0  0  0  0  0  0  0  0  0  0  0
    6.9563   -3.8013    0.9752 H   0  0  0  0  0  0  0  0  0  0  0  0
    5.7906   -4.5867   -0.1445 H   0  0  0  0  0  0  0  0  0  0  0  0
    5.2126   -3.3017    2.6112 H   0  0  0  0  0  0  0  0  0  0  0  0
    5.0804   -5.0121    2.1771 H   0  0  0  0  0  0  0  0  0  0  0  0
    3.2504   -2.6762    1.3821 H   0  0  0  0  0  0  0  0  0  0  0  0
    2.8126   -4.1544    2.2332 H   0  0  0  0  0  0  0  0  0  0  0  0
    2.5319   -2.5739   -0.8275 H   0  0  0  0  0  0  0  0  0  0  0  0
    2.9871   -7.4799   -1.3549 H   0  0  0  0  0  0  0  0  0  0  0  0
    3.5289   -6.4202    0.8118 H   0  0  0  0  0  0  0  0  0  0  0  0
    2.3109   -7.3736   -3.6005 H   0  0  0  0  0  0  0  0  0  0  0  0
    2.8202   -5.9002   -4.4337 H   0  0  0  0  0  0  0  0  0  0  0  0
    1.1315   -6.1051   -3.9392 H   0  0  0  0  0  0  0  0  0  0  0  0
    1.7539   -2.3336   -3.0194 H   0  0  0  0  0  0  0  0  0  0  0  0
    0.9932   -3.7392   -3.7745 H   0  0  0  0  0  0  0  0  0  0  0  0
    2.6923   -3.3638   -4.1065 H   0  0  0  0  0  0  0  0  0  0  0  0
  1  2  1  0  0  0  0
  1 25  1  0  0  0  0
  2  3  2  0  0  0  0
  3 26  1  0  0  0  0
  4  3  1  0  0  0  0
  4 27  1  0  0  0  0
  5  4  2  0  0  0  0
  6  7  2  0  0  0  0
  6  5  1  0  0  0  0
  7  2  1  0  0  0  0
  8  7  1  0  0  0  0
  9  8  1  0  0  0  0
  9 30  1  0  0  0  0
  9 31  1  0  0  0  0
 10  5  1  0  0  0  0
 10 32  1  0  0  0  0
 10 11  1  0  0  0  0
 11 12  2  0  0  0  0
 13 11  1  0  0  0  0
 13 14  1  0  0  0  0
 14 35  1  0  0  0  0
 14 15  1  0  0  0  0
 15 38  1  0  0  0  0
 15 37  1  0  0  0  0
 16 15  1  0  0  0  0
 16 40  1  0  0  0  0
 17 16  1  0  0  0  0
 18 41  1  0  0  0  0
 18 17  2  0  0  0  0
 19 18  1  0  0  0  0
 20 19  2  0  0  0  0
 20 21  1  0  0  0  0
 21 22  2  0  0  0  0
 22 17  1  0  0  0  0
 22 43  1  0  0  0  0
 23 44  1  0  0  0  0
 23 20  1  0  0  0  0
 24 47  1  0  0  0  0
 24 19  1  0  0  0  0
 28  6  1  0  0  0  0
 29  9  1  0  0  0  0
 33 10  1  0  0  0  0
 34 13  1  0  0  0  0
 36 14  1  0  0  0  0
 39 16  1  0  0  0  0
 42 21  1  0  0  0  0
 45 23  1  0  0  0  0
 46 23  1  0  0  0  0
 48 24  1  0  0  0  0
 49 24  1  0  0  0  0
M  END
$$$$
