
     RDKit          3D

 49 50  0  0  0  0  0  0  0  0999 V2000
    0.0761   -0.1692   -0.7961 O   0  0  0  0  0  0  0  0  0  0  0  0
    1.3638   -0.0550   -0.3727 C   0  0  0  0  0  0  0  0  0  0  0  0
    1.7037    0.3839    0.9095 C   0  0  0  0  0  0  0  0  0  0  0  0
    3.0399    0.4528    1.3146 C   0  0  0  0  0  0  0  0  0  0  0  0
    4.0714    0.0846    0.4427 C   0  0  0  0  0  0  0  0  0  0  0  0
    3.7222   -0.3381   -0.8501 C   0  0  0  0  0  0  0  0  0  0  0  0
    2.3947   -0.4140   -1.2718 C   0  0  0  0  0  0  0  0  0  0  0  0
    2.1321   -0.8873   -2.5221 O   0  0  0  0  0  0  0  0  0  0  0  0
    1.4510   -0.0207   -3.4174 C   0  0  0  0  0  0  0  0  0  0  0  0
    5.5195    0.2147    0.8365 C   0  0  0  0  0  0  0  0  0  0  0  0
    6.2395    1.4861    0.3564 C   0  0  0  0  0  0  0  0  0  0  0  0
    7.4565    1.5668    0.3773 O   0  0  0  0  0  0  0  0  0  0  0  0
    5.4336    2.5068   -0.0451 N   0  0  0  0  0  0  0  0  0  0  0  0
    5.9750    3.7407   -0.5808 C   0  0  0  0  0  0  0  0  0  0  0  0
    6.3142    3.6477   -2.0709 C   0  0  0  0  0  0  0  0  0  0  0  0
    6.8563    4.9643   -2.6507 C   0  0  0  0  0  0  0  0  0  0  0  0
    5.8538    6.0949   -2.6083 C   0  0  0  0  0  0  0  0  0  0  0  0
    4.7796    6.1267   -3.5102 C   0  0  0  0  0  0  0  0  0  0  0  0
    3.8030    7.1276   -3.4787 C   0  0  0  0  0  0  0  0  0  0  0  0
    3.8946    8.1483   -2.5042 C   0  0  0  0  0  0  0  0  0  0  0  0
    4.9660    8.1196   -1.6046 C   0  0  0  0  0  0  0  0  0  0  0  0
    5.9325    7.1118   -1.6511 C   0  0  0  0  0  0  0  0  0  0  0  0
    2.8633    9.2449   -2.4411 C   0  0  0  0  0  0  0  0  0  0  0  0
    2.6710    7.1225   -4.4736 C   0  0  0  0  0  0  0  0  0  0  0  0
   -0.5185    0.0858   -0.0788 H   0  0  0  0  0  0  0  0  0  0  0  0
    0.9049    0.6592    1.6057 H   0  0  0  0  0  0  0  0  0  0  0  0
    3.2779    0.7942    2.3250 H   0  0  0  0  0  0  0  0  0  0  0  0
    4.4914   -0.6271   -1.5698 H   0  0  0  0  0  0  0  0  0  0  0  0
    1.4176   -0.5356   -4.3873 H   0  0  0  0  0  0  0  0  0  0  0  0
    1.9989    0.9320   -3.5377 H   0  0  0  0  0  0  0  0  0  0  0  0
    0.4246    0.1927   -3.0820 H   0  0  0  0  0  0  0  0  0  0  0  0
    6.1187   -0.6246    0.4535 H   0  0  0  0  0  0  0  0  0  0  0  0
    5.6285    0.1957    1.9331 H   0  0  0  0  0  0  0  0  0  0  0  0
    4.4388    2.3304   -0.1210 H   0  0  0  0  0  0  0  0  0  0  0  0
    6.8880    3.9780   -0.0135 H   0  0  0  0  0  0  0  0  0  0  0  0
    5.2488    4.5481   -0.4006 H   0  0  0  0  0  0  0  0  0  0  0  0
    5.4112    3.3418   -2.6282 H   0  0  0  0  0  0  0  0  0  0  0  0
    7.0618    2.8494   -2.2045 H   0  0  0  0  0  0  0  0  0  0  0  0
    7.1679    4.7876   -3.6934 H   0  0  0  0  0  0  0  0  0  0  0  0
    7.7648    5.2559   -2.0981 H   0  0  0  0  0  0  0  0  0  0  0  0
    4.7036    5.3428   -4.2706 H   0  0  0  0  0  0  0  0  0  0  0  0
    5.0467    8.9067   -0.8497 H   0  0  0  0  0  0  0  0  0  0  0  0
    6.7582    7.1177   -0.9343 H   0  0  0  0  0  0  0  0  0  0  0  0
    3.0811    9.9523   -1.6281 H   0  0  0  0  0  0  0  0  0  0  0  0
    1.8497    8.8418   -2.2753 H   0  0  0  0  0  0  0  0  0  0  0  0
    2.8204    9.8174   -3.3833 H   0  0  0  0  0  0  0  0  0  0  0  0
    2.7430    6.2657   -5.1587 H   0  0  0  0  0  0  0  0  0  0  0  0
    2.6627    8.0422   -5.0829 H   0  0  0  0  0  0  0  0  0  0  0  0
    1.6898    7.0731   -3.9716 H   0  0  0  0  0  0  0  0  0  0  0  0
  1  2  1  0
  1 25  1  0
  2  3  2  0
  2  7  1  0
  3  4  1  0
  3 26  1  0
  4  5  2  0
  4 27  1  0
  5  6  1  0
  5 10  1  0
  6  7  2  0
  6 28  1  0
  7  8  1  0
  8  9  1  0
  9 29  1  0
  9 30  1  0
  9 31  1  0
 10 11  1  0
 10 32  1  0
 10 33  1  0
 11 12  2  0
 11 13  1  0
 13 14  1  0
 13 34  1  0
 14 15  1  0
 14 35  1  0
 14 36  1  0
 15 16  1  0
 15 37  1  0
 15 38  1  0
 16 17  1  0
 16 39  1  0
 16 40  1  0
 17 18  2  0
 17 22  1  0
 18 19  1  0
 18 41  1  0
 19 20  2  0
 19 24  1  0
 20 21  1  0
 20 23  1  0
 21 22  2  0
 21 42  1  0
 22 43  1  0
 23 44  1  0
 23 45  1  0
 23 46  1  0
 24 47  1  0
 24 48  1  0
 24 49  1  0
M  END

