49

O         -0.04860       -0.34430        0.20340
C          1.30620       -0.24190        0.11940
C          2.12560       -0.09190        1.24190
C          3.51490       -0.01910        1.11370
C          4.11990       -0.09550       -0.14800
C          3.29090       -0.23670       -1.27090
C          1.90110       -0.30730       -1.16070
O          1.16290       -0.49580       -2.29150
C          0.22250        0.51370       -2.62810
C          5.61980       -0.08890       -0.28440
C          6.33220       -1.44200       -0.15060
O          7.53110       -1.53800       -0.36400
N          5.55350       -2.48710        0.23600
C          6.08070       -3.81490        0.46970
C          6.13090       -4.22580        1.94420
C          7.09490       -3.40500        2.81860
C          6.63570       -2.00950        3.18490
C          5.47250       -1.81540        3.94530
C          5.02910       -0.54500        4.32760
C          5.77800        0.59100        3.94230
C          6.94080        0.39770        3.18790
C          7.36790       -0.87810        2.81120
C          5.32000        1.97660        4.31560
C          3.75960       -0.38570        5.12390
H         -0.31390       -0.28240        1.13010
H          1.66470       -0.04200        2.23390
H          4.13570        0.08010        2.00400
H          3.71560       -0.30330       -2.27510
H         -0.20420        0.23290       -3.60090
H          0.71700        1.49740       -2.72520
H         -0.58490        0.58710       -1.88340
H          6.07680        0.54860        0.48820
H          5.93510        0.32070       -1.25570
H          4.57640       -2.30320        0.43280
H          7.09320       -3.82430        0.04100
H          5.47450       -4.54810       -0.09060
H          6.43910       -5.28480        1.97850
H          5.11380       -4.19340        2.37420
H          8.07220       -3.34340        2.31470
H          7.26280       -3.96610        3.75460
H          4.88690       -2.68640        4.25590
H          7.52560        1.26930        2.88090
H          8.26120       -0.99240        2.19470
H          6.02550        2.74000        3.95790
H          5.21870        2.09470        5.40750
H          4.33080        2.20540        3.88230
H          3.29400       -1.35890        5.33580
H          3.02060        0.23300        4.58570
H          3.94210        0.11940        6.08720
