rmsd121.gzmat
 OpenBabel08211713413D

 49 50  0  0  0  0  0  0  0  0999 V2000
    0.0000    0.0000    0.0000 O   0  0  0  0  0  0  0  0  0  0  0  0
    1.3650    0.0000    0.0000 C   0  0  0  0  0  0  0  0  0  0  0  0
    2.1010    0.0000    1.1806 C   0  0  0  0  0  0  0  0  0  0  0  0
    3.4934   -0.0066    1.1256 C   0  0  0  0  0  0  0  0  0  0  0  0
    4.1457   -0.0246   -0.1069 C   0  0  0  0  0  0  0  0  0  0  0  0
    3.4091   -0.0233   -1.2923 C   0  0  0  0  0  0  0  0  0  0  0  0
    2.0121    0.0031   -1.2488 C   0  0  0  0  0  0  0  0  0  0  0  0
    1.4478    0.0302   -2.4803 O   0  0  0  0  0  0  0  0  0  0  0  0
    0.0361    0.1863   -2.5597 C   0  0  0  0  0  0  0  0  0  0  0  0
    5.6388   -0.0132   -0.1674 C   0  0  0  0  0  0  0  0  0  0  0  0
    6.1788    1.4024   -0.0320 C   0  0  0  0  0  0  0  0  0  0  0  0
    7.0511    1.6843    0.7637 O   0  0  0  0  0  0  0  0  0  0  0  0
    5.6663    2.3372   -0.9109 N   0  0  0  0  0  0  0  0  0  0  0  0
    5.9721    3.7602   -0.7235 C   0  0  0  0  0  0  0  0  0  0  0  0
    4.8171    4.4919   -0.0157 C   0  0  0  0  0  0  0  0  0  0  0  0
    4.7579    4.1341    1.4773 C   0  0  0  0  0  0  0  0  0  0  0  0
    3.3957    4.4224    2.0265 C   0  0  0  0  0  0  0  0  0  0  0  0
    2.3271    3.5854    1.6977 C   0  0  0  0  0  0  0  0  0  0  0  0
    1.0460    3.8472    2.1799 C   0  0  0  0  0  0  0  0  0  0  0  0
    0.8323    4.9469    3.0240 C   0  0  0  0  0  0  0  0  0  0  0  0
    1.9041    5.7768    3.3534 C   0  0  0  0  0  0  0  0  0  0  0  0
    3.1798    5.5214    2.8564 C   0  0  0  0  0  0  0  0  0  0  0  0
   -0.5241    5.2394    3.5725 C   0  0  0  0  0  0  0  0  0  0  0  0
   -0.0827    2.9519    1.7895 C   0  0  0  0  0  0  0  0  0  0  0  0
   -0.3585   -0.0686    0.9189 H   0  0  0  0  0  0  0  0  0  0  0  0
    1.5952    0.0093    2.1437 H   0  0  0  0  0  0  0  0  0  0  0  0
    4.0696    0.0070    2.0503 H   0  0  0  0  0  0  0  0  0  0  0  0
    3.9035   -0.0508   -2.2621 H   0  0  0  0  0  0  0  0  0  0  0  0
   -0.1258    0.2503   -3.6433 H   0  0  0  0  0  0  0  0  0  0  0  0
   -0.2863    1.1057   -2.0604 H   0  0  0  0  0  0  0  0  0  0  0  0
   -0.4731   -0.6885   -2.1418 H   0  0  0  0  0  0  0  0  0  0  0  0
    6.0221   -0.4681   -1.1051 H   0  0  0  0  0  0  0  0  0  0  0  0
    6.0777   -0.6350    0.6471 H   0  0  0  0  0  0  0  0  0  0  0  0
    4.8465    2.1255   -1.4611 H   0  0  0  0  0  0  0  0  0  0  0  0
    6.1582    4.2093   -1.7249 H   0  0  0  0  0  0  0  0  0  0  0  0
    6.9185    3.8673   -0.1413 H   0  0  0  0  0  0  0  0  0  0  0  0
    3.8546    4.2462   -0.5054 H   0  0  0  0  0  0  0  0  0  0  0  0
    4.9384    5.5849   -0.1339 H   0  0  0  0  0  0  0  0  0  0  0  0
    5.5458    4.6823    2.0303 H   0  0  0  0  0  0  0  0  0  0  0  0
    5.0098    3.0614    1.6302 H   0  0  0  0  0  0  0  0  0  0  0  0
    2.5011    2.7206    1.0587 H   0  0  0  0  0  0  0  0  0  0  0  0
    1.7445    6.6342    4.0041 H   0  0  0  0  0  0  0  0  0  0  0  0
    4.0037    6.1806    3.1176 H   0  0  0  0  0  0  0  0  0  0  0  0
   -0.5288    6.1056    4.2470 H   0  0  0  0  0  0  0  0  0  0  0  0
   -0.9172    4.3857    4.1431 H   0  0  0  0  0  0  0  0  0  0  0  0
   -1.2423    5.4558    2.7681 H   0  0  0  0  0  0  0  0  0  0  0  0
    0.1923    2.2668    0.9745 H   0  0  0  0  0  0  0  0  0  0  0  0
   -0.9496    3.5283    1.4351 H   0  0  0  0  0  0  0  0  0  0  0  0
   -0.4178    2.3469    2.6429 H   0  0  0  0  0  0  0  0  0  0  0  0
  1  2  1  0  0  0  0
  1 25  1  0  0  0  0
  2  3  2  0  0  0  0
  3 26  1  0  0  0  0
  4  3  1  0  0  0  0
  4 27  1  0  0  0  0
  5  4  2  0  0  0  0
  6  7  2  0  0  0  0
  6  5  1  0  0  0  0
  7  2  1  0  0  0  0
  8  7  1  0  0  0  0
  9  8  1  0  0  0  0
  9 31  1  0  0  0  0
  9 30  1  0  0  0  0
 10  5  1  0  0  0  0
 10 11  1  0  0  0  0
 10 33  1  0  0  0  0
 11 12  2  0  0  0  0
 13 14  1  0  0  0  0
 13 11  1  0  0  0  0
 14 36  1  0  0  0  0
 14 15  1  0  0  0  0
 15 16  1  0  0  0  0
 16 40  1  0  0  0  0
 16 17  1  0  0  0  0
 16 39  1  0  0  0  0
 17 22  1  0  0  0  0
 18 17  2  0  0  0  0
 18 19  1  0  0  0  0
 19 20  2  0  0  0  0
 20 21  1  0  0  0  0
 20 23  1  0  0  0  0
 21 42  1  0  0  0  0
 22 43  1  0  0  0  0
 22 21  2  0  0  0  0
 23 45  1  0  0  0  0
 23 44  1  0  0  0  0
 24 19  1  0  0  0  0
 24 49  1  0  0  0  0
 28  6  1  0  0  0  0
 29  9  1  0  0  0  0
 32 10  1  0  0  0  0
 34 13  1  0  0  0  0
 35 14  1  0  0  0  0
 37 15  1  0  0  0  0
 38 15  1  0  0  0  0
 41 18  1  0  0  0  0
 46 23  1  0  0  0  0
 47 24  1  0  0  0  0
 48 24  1  0  0  0  0
M  END
$$$$
