
     RDKit          3D

 49 50  0  0  0  0  0  0  0  0999 V2000
    0.4198   -0.2765    0.6944 O   0  0  0  0  0  0  0  0  0  0  0  0
    1.7428   -0.2098    0.3657 C   0  0  0  0  0  0  0  0  0  0  0  0
    2.7584   -0.3825    1.3119 C   0  0  0  0  0  0  0  0  0  0  0  0
    4.1024   -0.3393    0.9435 C   0  0  0  0  0  0  0  0  0  0  0  0
    4.4622   -0.1267   -0.3940 C   0  0  0  0  0  0  0  0  0  0  0  0
    3.4428    0.0679   -1.3330 C   0  0  0  0  0  0  0  0  0  0  0  0
    2.0893    0.0398   -0.9789 C   0  0  0  0  0  0  0  0  0  0  0  0
    1.1739    0.2100   -1.9705 O   0  0  0  0  0  0  0  0  0  0  0  0
    0.1284    1.1537   -1.7793 C   0  0  0  0  0  0  0  0  0  0  0  0
    5.9197    0.0074   -0.7778 C   0  0  0  0  0  0  0  0  0  0  0  0
    6.4596    1.3399   -0.2494 C   0  0  0  0  0  0  0  0  0  0  0  0
    7.1532    1.4121    0.7502 O   0  0  0  0  0  0  0  0  0  0  0  0
    6.0410    2.4305   -0.9585 N   0  0  0  0  0  0  0  0  0  0  0  0
    6.1720    3.7871   -0.4573 C   0  0  0  0  0  0  0  0  0  0  0  0
    4.8630    4.3279    0.1260 C   0  0  0  0  0  0  0  0  0  0  0  0
    4.3659    3.5431    1.3494 C   0  0  0  0  0  0  0  0  0  0  0  0
    3.0372    4.0417    1.8633 C   0  0  0  0  0  0  0  0  0  0  0  0
    1.8563    3.3322    1.6055 C   0  0  0  0  0  0  0  0  0  0  0  0
    0.6017    3.7823    2.0370 C   0  0  0  0  0  0  0  0  0  0  0  0
    0.5151    4.9987    2.7492 C   0  0  0  0  0  0  0  0  0  0  0  0
    1.6950    5.7077    3.0098 C   0  0  0  0  0  0  0  0  0  0  0  0
    2.9376    5.2409    2.5793 C   0  0  0  0  0  0  0  0  0  0  0  0
   -0.8170    5.5196    3.2234 C   0  0  0  0  0  0  0  0  0  0  0  0
   -0.6371    2.9737    1.7467 C   0  0  0  0  0  0  0  0  0  0  0  0
    0.3352   -0.4480    1.6414 H   0  0  0  0  0  0  0  0  0  0  0  0
    2.4824   -0.5558    2.3568 H   0  0  0  0  0  0  0  0  0  0  0  0
    4.8798   -0.4573    1.7012 H   0  0  0  0  0  0  0  0  0  0  0  0
    3.6715    0.2452   -2.3868 H   0  0  0  0  0  0  0  0  0  0  0  0
   -0.2763    1.3750   -2.7769 H   0  0  0  0  0  0  0  0  0  0  0  0
    0.5120    2.0878   -1.3322 H   0  0  0  0  0  0  0  0  0  0  0  0
   -0.6711    0.7562   -1.1374 H   0  0  0  0  0  0  0  0  0  0  0  0
    6.0348   -0.0483   -1.8714 H   0  0  0  0  0  0  0  0  0  0  0  0
    6.5278   -0.7845   -0.3213 H   0  0  0  0  0  0  0  0  0  0  0  0
    5.3615    2.2727   -1.6942 H   0  0  0  0  0  0  0  0  0  0  0  0
    6.5233    4.4454   -1.2696 H   0  0  0  0  0  0  0  0  0  0  0  0
    6.9562    3.7575    0.3124 H   0  0  0  0  0  0  0  0  0  0  0  0
    4.0796    4.3156   -0.6537 H   0  0  0  0  0  0  0  0  0  0  0  0
    5.0053    5.3889    0.3940 H   0  0  0  0  0  0  0  0  0  0  0  0
    5.1292    3.5990    2.1435 H   0  0  0  0  0  0  0  0  0  0  0  0
    4.2727    2.4798    1.0838 H   0  0  0  0  0  0  0  0  0  0  0  0
    1.9212    2.3890    1.0581 H   0  0  0  0  0  0  0  0  0  0  0  0
    1.6370    6.6465    3.5680 H   0  0  0  0  0  0  0  0  0  0  0  0
    3.8406    5.8149    2.8064 H   0  0  0  0  0  0  0  0  0  0  0  0
   -0.7080    6.4819    3.7439 H   0  0  0  0  0  0  0  0  0  0  0  0
   -1.3063    4.8153    3.9179 H   0  0  0  0  0  0  0  0  0  0  0  0
   -1.5183    5.6671    2.3845 H   0  0  0  0  0  0  0  0  0  0  0  0
   -0.3869    2.0170    1.2688 H   0  0  0  0  0  0  0  0  0  0  0  0
   -1.3297    3.5167    1.0803 H   0  0  0  0  0  0  0  0  0  0  0  0
   -1.2039    2.7571    2.6680 H   0  0  0  0  0  0  0  0  0  0  0  0
  1  2  1  0
  1 25  1  0
  2  3  2  0
  2  7  1  0
  3  4  1  0
  3 26  1  0
  4  5  2  0
  4 27  1  0
  5  6  1  0
  5 10  1  0
  6  7  2  0
  6 28  1  0
  7  8  1  0
  8  9  1  0
  9 29  1  0
  9 30  1  0
  9 31  1  0
 10 11  1  0
 10 32  1  0
 10 33  1  0
 11 12  2  0
 11 13  1  0
 13 14  1  0
 13 34  1  0
 14 15  1  0
 14 35  1  0
 14 36  1  0
 15 16  1  0
 15 37  1  0
 15 38  1  0
 16 17  1  0
 16 39  1  0
 16 40  1  0
 17 18  2  0
 17 22  1  0
 18 19  1  0
 18 41  1  0
 19 20  2  0
 19 24  1  0
 20 21  1  0
 20 23  1  0
 21 22  2  0
 21 42  1  0
 22 43  1  0
 23 44  1  0
 23 45  1  0
 23 46  1  0
 24 47  1  0
 24 48  1  0
 24 49  1  0
M  END

