
     RDKit          3D

 49 50  0  0  0  0  0  0  0  0999 V2000
   -0.3049    0.5407   -0.9047 O   0  0  0  0  0  0  0  0  0  0  0  0
    0.9987    0.3937   -0.5430 C   0  0  0  0  0  0  0  0  0  0  0  0
    1.4252    0.4437    0.7879 C   0  0  0  0  0  0  0  0  0  0  0  0
    2.7769    0.3219    1.1151 C   0  0  0  0  0  0  0  0  0  0  0  0
    3.7407    0.1388    0.1153 C   0  0  0  0  0  0  0  0  0  0  0  0
    3.3036    0.0731   -1.2167 C   0  0  0  0  0  0  0  0  0  0  0  0
    1.9557    0.1962   -1.5629 C   0  0  0  0  0  0  0  0  0  0  0  0
    1.6172    0.1749   -2.8825 O   0  0  0  0  0  0  0  0  0  0  0  0
    0.7275   -0.8462   -3.3119 C   0  0  0  0  0  0  0  0  0  0  0  0
    5.2075    0.0805    0.4532 C   0  0  0  0  0  0  0  0  0  0  0  0
    5.9356    1.4325    0.5409 C   0  0  0  0  0  0  0  0  0  0  0  0
    7.0062    1.5335    1.1177 O   0  0  0  0  0  0  0  0  0  0  0  0
    5.3345    2.4727   -0.0972 N   0  0  0  0  0  0  0  0  0  0  0  0
    5.8938    3.8106   -0.0672 C   0  0  0  0  0  0  0  0  0  0  0  0
    5.5173    4.5896    1.1957 C   0  0  0  0  0  0  0  0  0  0  0  0
    6.0966    6.0134    1.2216 C   0  0  0  0  0  0  0  0  0  0  0  0
    5.5775    6.8926    0.1067 C   0  0  0  0  0  0  0  0  0  0  0  0
    4.2711    7.4018    0.1520 C   0  0  0  0  0  0  0  0  0  0  0  0
    3.7333    8.1799   -0.8785 C   0  0  0  0  0  0  0  0  0  0  0  0
    4.5296    8.4679   -2.0111 C   0  0  0  0  0  0  0  0  0  0  0  0
    5.8337    7.9631   -2.0572 C   0  0  0  0  0  0  0  0  0  0  0  0
    6.3543    7.1872   -1.0185 C   0  0  0  0  0  0  0  0  0  0  0  0
    3.9854    9.3038   -3.1403 C   0  0  0  0  0  0  0  0  0  0  0  0
    2.3251    8.7081   -0.7823 C   0  0  0  0  0  0  0  0  0  0  0  0
   -0.8424    0.6672   -0.1120 H   0  0  0  0  0  0  0  0  0  0  0  0
    0.6815    0.5925    1.5775 H   0  0  0  0  0  0  0  0  0  0  0  0
    3.0838    0.3753    2.1624 H   0  0  0  0  0  0  0  0  0  0  0  0
    4.0154   -0.0735   -2.0324 H   0  0  0  0  0  0  0  0  0  0  0  0
    0.6532   -0.7570   -4.4044 H   0  0  0  0  0  0  0  0  0  0  0  0
   -0.2727   -0.7324   -2.8672 H   0  0  0  0  0  0  0  0  0  0  0  0
    1.1249   -1.8464   -3.0608 H   0  0  0  0  0  0  0  0  0  0  0  0
    5.7562   -0.5145   -0.2954 H   0  0  0  0  0  0  0  0  0  0  0  0
    5.3785   -0.4091    1.4226 H   0  0  0  0  0  0  0  0  0  0  0  0
    4.4051    2.3345   -0.4765 H   0  0  0  0  0  0  0  0  0  0  0  0
    5.5580    4.3490   -0.9666 H   0  0  0  0  0  0  0  0  0  0  0  0
    6.9891    3.7154   -0.1226 H   0  0  0  0  0  0  0  0  0  0  0  0
    5.8833    4.0267    2.0693 H   0  0  0  0  0  0  0  0  0  0  0  0
    4.4169    4.6354    1.2772 H   0  0  0  0  0  0  0  0  0  0  0  0
    7.1963    5.9571    1.1643 H   0  0  0  0  0  0  0  0  0  0  0  0
    5.8574    6.4729    2.1950 H   0  0  0  0  0  0  0  0  0  0  0  0
    3.6488    7.1865    1.0266 H   0  0  0  0  0  0  0  0  0  0  0  0
    6.4578    8.1831   -2.9280 H   0  0  0  0  0  0  0  0  0  0  0  0
    7.3772    6.8068   -1.0848 H   0  0  0  0  0  0  0  0  0  0  0  0
    4.7304    9.4302   -3.9390 H   0  0  0  0  0  0  0  0  0  0  0  0
    3.6870   10.3085   -2.7956 H   0  0  0  0  0  0  0  0  0  0  0  0
    3.0858    8.8476   -3.5873 H   0  0  0  0  0  0  0  0  0  0  0  0
    1.8430    8.3962    0.1553 H   0  0  0  0  0  0  0  0  0  0  0  0
    1.7005    8.3515   -1.6188 H   0  0  0  0  0  0  0  0  0  0  0  0
    2.3016    9.8103   -0.8240 H   0  0  0  0  0  0  0  0  0  0  0  0
  1  2  1  0
  1 25  1  0
  2  3  2  0
  2  7  1  0
  3  4  1  0
  3 26  1  0
  4  5  2  0
  4 27  1  0
  5  6  1  0
  5 10  1  0
  6  7  2  0
  6 28  1  0
  7  8  1  0
  8  9  1  0
  9 29  1  0
  9 30  1  0
  9 31  1  0
 10 11  1  0
 10 32  1  0
 10 33  1  0
 11 12  2  0
 11 13  1  0
 13 14  1  0
 13 34  1  0
 14 15  1  0
 14 35  1  0
 14 36  1  0
 15 16  1  0
 15 37  1  0
 15 38  1  0
 16 17  1  0
 16 39  1  0
 16 40  1  0
 17 18  2  0
 17 22  1  0
 18 19  1  0
 18 41  1  0
 19 20  2  0
 19 24  1  0
 20 21  1  0
 20 23  1  0
 21 22  2  0
 21 42  1  0
 22 43  1  0
 23 44  1  0
 23 45  1  0
 23 46  1  0
 24 47  1  0
 24 48  1  0
 24 49  1  0
M  END

