49
rmsd248.gzmat
O          0.00000        0.00000        0.00000
C          1.36400        0.00000        0.00000
C          2.09870        0.00000        1.18160
C          3.49110       -0.01880        1.12730
C          4.14530       -0.03800       -0.10500
C          3.40990       -0.03000       -1.29090
C          2.01260       -0.01030       -1.24910
O          1.44630        0.00690       -2.47980
C          0.02650       -0.00910       -2.55930
C          5.63700       -0.05860       -0.16220
C          6.28900        1.31220       -0.24510
O          7.48190        1.41960       -0.46030
N          5.50100        2.41640       -0.02620
C          6.06430        3.76630       -0.11620
C          5.45760        4.52900       -1.30920
C          5.87290        6.00710       -1.26940
C          5.25630        6.69020       -0.08600
C          6.01180        6.92390        1.06370
C          5.42980        7.50630        2.18990
C          4.07550        7.86870        2.16350
C          3.32970        7.65140        1.00390
C          3.91250        7.06530       -0.11580
C          3.42420        8.48260        3.35690
C          6.25610        7.73210        3.41120
H         -0.36010        0.00020        0.92030
H          1.59060        0.01060        2.14240
H          4.06520       -0.02080        2.05220
H          3.90930       -0.04100       -2.25980
H         -0.13970       -0.00720       -3.64450
H         -0.39890        0.88760       -2.09710
H         -0.38140       -0.91740       -2.10440
H          5.99470       -0.65610       -1.03380
H          6.06790       -0.58420        0.72100
H          4.50420        2.34630        0.09960
H          7.17480        3.71090       -0.21530
H          5.85240        4.30270        0.83830
H          4.35400        4.44640       -1.29890
H          5.78800        4.06460       -2.25740
H          5.56270        6.50820       -2.20940
H          6.97830        6.09100       -1.25070
H          7.06360        6.64560        1.08420
H          2.28070        7.93960        0.97360
H          3.31800        6.89550       -1.01020
H          2.35130        8.66240        3.20860
H          3.88220        9.45190        3.60500
H          3.52260        7.83720        4.24230
H          7.29630        7.40250        3.28610
H          5.84700        7.18870        4.27620
H          6.28650        8.79860        3.67930
