49

O         -0.04490        0.49720        0.29850
C          1.30190        0.31760        0.22410
C          2.12540        0.24770        1.35240
C          3.50760        0.10720        1.22240
C          4.10030        0.02800       -0.04460
C          3.26790        0.06780       -1.16920
C          1.88470        0.21310       -1.05470
O          1.14130        0.35180       -2.19360
C          0.16590       -0.64910       -2.45490
C          5.60750       -0.03380       -0.17990
C          6.29150        1.07790        0.62020
O          6.86370        0.83800        1.67150
N          6.22060        2.35020        0.12130
C          5.38790        2.85350       -0.95640
C          4.04850        3.42830       -0.48570
C          3.15580        3.88600       -1.64710
C          1.83440        4.44160       -1.17110
C          0.68120        3.64520       -1.16290
C         -0.54390        4.11700       -0.67390
C         -0.62800        5.43560       -0.17470
C          0.52460        6.23160       -0.18680
C          1.73890        5.74720       -0.67490
C         -1.93210        5.97740        0.35120
C         -1.75810        3.22390       -0.69080
H         -0.29760        0.67220        1.21430
H          1.67350        0.32620        2.34610
H          4.13840        0.08400        2.11380
H          3.68150        0.01580       -2.17880
H         -0.30430       -0.38620       -3.41230
H         -0.60270       -0.68470       -1.66780
H          0.64040       -1.64230       -2.54690
H          5.89390        0.00910       -1.24140
H          6.00130       -0.97110        0.23820
H          6.62650        3.03650        0.75200
H          5.21080        2.04400       -1.67720
H          5.95390        3.62690       -1.50470
H          4.23460        4.27720        0.19520
H          3.51570        2.66810        0.10410
H          2.97370        3.03030       -2.31790
H          3.69020        4.64850       -2.24110
H          0.73290        2.62830       -1.55730
H          0.46650        7.25610        0.19210
H          2.62100        6.39450       -0.67260
H         -1.82490        7.01680        0.69390
H         -2.30930        5.38040        1.19920
H         -2.72170        5.95590       -0.41910
H         -1.50230        2.21740       -1.04590
H         -2.55320        3.63400       -1.33720
H         -2.20050        3.12370        0.31540
