rmsd248.gzmat
 OpenBabel08211713413D

 49 50  0  0  0  0  0  0  0  0999 V2000
    0.0000    0.0000    0.0000 O   0  0  0  0  0  0  0  0  0  0  0  0
    1.3640    0.0000    0.0000 C   0  0  0  0  0  0  0  0  0  0  0  0
    2.0987    0.0000    1.1816 C   0  0  0  0  0  0  0  0  0  0  0  0
    3.4911   -0.0188    1.1273 C   0  0  0  0  0  0  0  0  0  0  0  0
    4.1453   -0.0380   -0.1050 C   0  0  0  0  0  0  0  0  0  0  0  0
    3.4099   -0.0300   -1.2909 C   0  0  0  0  0  0  0  0  0  0  0  0
    2.0126   -0.0103   -1.2491 C   0  0  0  0  0  0  0  0  0  0  0  0
    1.4463    0.0069   -2.4798 O   0  0  0  0  0  0  0  0  0  0  0  0
    0.0265   -0.0091   -2.5593 C   0  0  0  0  0  0  0  0  0  0  0  0
    5.6370   -0.0586   -0.1622 C   0  0  0  0  0  0  0  0  0  0  0  0
    6.2890    1.3122   -0.2451 C   0  0  0  0  0  0  0  0  0  0  0  0
    7.4819    1.4196   -0.4603 O   0  0  0  0  0  0  0  0  0  0  0  0
    5.5010    2.4164   -0.0262 N   0  0  0  0  0  0  0  0  0  0  0  0
    6.0643    3.7663   -0.1162 C   0  0  0  0  0  0  0  0  0  0  0  0
    5.4576    4.5290   -1.3092 C   0  0  0  0  0  0  0  0  0  0  0  0
    5.8729    6.0071   -1.2694 C   0  0  0  0  0  0  0  0  0  0  0  0
    5.2563    6.6902   -0.0860 C   0  0  0  0  0  0  0  0  0  0  0  0
    6.0118    6.9239    1.0637 C   0  0  0  0  0  0  0  0  0  0  0  0
    5.4298    7.5063    2.1899 C   0  0  0  0  0  0  0  0  0  0  0  0
    4.0755    7.8687    2.1635 C   0  0  0  0  0  0  0  0  0  0  0  0
    3.3297    7.6514    1.0039 C   0  0  0  0  0  0  0  0  0  0  0  0
    3.9125    7.0653   -0.1158 C   0  0  0  0  0  0  0  0  0  0  0  0
    3.4242    8.4826    3.3569 C   0  0  0  0  0  0  0  0  0  0  0  0
    6.2561    7.7321    3.4112 C   0  0  0  0  0  0  0  0  0  0  0  0
   -0.3601    0.0002    0.9203 H   0  0  0  0  0  0  0  0  0  0  0  0
    1.5906    0.0106    2.1424 H   0  0  0  0  0  0  0  0  0  0  0  0
    4.0652   -0.0208    2.0522 H   0  0  0  0  0  0  0  0  0  0  0  0
    3.9093   -0.0410   -2.2598 H   0  0  0  0  0  0  0  0  0  0  0  0
   -0.1397   -0.0072   -3.6445 H   0  0  0  0  0  0  0  0  0  0  0  0
   -0.3989    0.8876   -2.0971 H   0  0  0  0  0  0  0  0  0  0  0  0
   -0.3814   -0.9174   -2.1044 H   0  0  0  0  0  0  0  0  0  0  0  0
    5.9947   -0.6561   -1.0338 H   0  0  0  0  0  0  0  0  0  0  0  0
    6.0679   -0.5842    0.7210 H   0  0  0  0  0  0  0  0  0  0  0  0
    4.5042    2.3463    0.0996 H   0  0  0  0  0  0  0  0  0  0  0  0
    7.1748    3.7109   -0.2153 H   0  0  0  0  0  0  0  0  0  0  0  0
    5.8524    4.3027    0.8383 H   0  0  0  0  0  0  0  0  0  0  0  0
    4.3540    4.4464   -1.2989 H   0  0  0  0  0  0  0  0  0  0  0  0
    5.7880    4.0646   -2.2574 H   0  0  0  0  0  0  0  0  0  0  0  0
    5.5627    6.5082   -2.2094 H   0  0  0  0  0  0  0  0  0  0  0  0
    6.9783    6.0910   -1.2507 H   0  0  0  0  0  0  0  0  0  0  0  0
    7.0636    6.6456    1.0842 H   0  0  0  0  0  0  0  0  0  0  0  0
    2.2807    7.9396    0.9736 H   0  0  0  0  0  0  0  0  0  0  0  0
    3.3180    6.8955   -1.0102 H   0  0  0  0  0  0  0  0  0  0  0  0
    2.3513    8.6624    3.2086 H   0  0  0  0  0  0  0  0  0  0  0  0
    3.8822    9.4519    3.6050 H   0  0  0  0  0  0  0  0  0  0  0  0
    3.5226    7.8372    4.2423 H   0  0  0  0  0  0  0  0  0  0  0  0
    7.2963    7.4025    3.2861 H   0  0  0  0  0  0  0  0  0  0  0  0
    5.8470    7.1887    4.2762 H   0  0  0  0  0  0  0  0  0  0  0  0
    6.2865    8.7986    3.6793 H   0  0  0  0  0  0  0  0  0  0  0  0
  1  2  1  0  0  0  0
  1 25  1  0  0  0  0
  2  3  2  0  0  0  0
  3 26  1  0  0  0  0
  4  3  1  0  0  0  0
  4 27  1  0  0  0  0
  5  4  2  0  0  0  0
  6  7  2  0  0  0  0
  6  5  1  0  0  0  0
  7  2  1  0  0  0  0
  8  7  1  0  0  0  0
  9  8  1  0  0  0  0
  9 31  1  0  0  0  0
  9 30  1  0  0  0  0
 10  5  1  0  0  0  0
 10 33  1  0  0  0  0
 11 10  1  0  0  0  0
 11 13  1  0  0  0  0
 12 11  2  0  0  0  0
 13 34  1  0  0  0  0
 14 13  1  0  0  0  0
 14 36  1  0  0  0  0
 15 37  1  0  0  0  0
 15 16  1  0  0  0  0
 15 14  1  0  0  0  0
 16 40  1  0  0  0  0
 16 17  1  0  0  0  0
 17 18  1  0  0  0  0
 18 41  1  0  0  0  0
 18 19  2  0  0  0  0
 19 24  1  0  0  0  0
 20 19  1  0  0  0  0
 20 23  1  0  0  0  0
 21 20  2  0  0  0  0
 22 17  2  0  0  0  0
 22 21  1  0  0  0  0
 23 45  1  0  0  0  0
 23 46  1  0  0  0  0
 24 49  1  0  0  0  0
 24 48  1  0  0  0  0
 28  6  1  0  0  0  0
 29  9  1  0  0  0  0
 32 10  1  0  0  0  0
 35 14  1  0  0  0  0
 38 15  1  0  0  0  0
 39 16  1  0  0  0  0
 42 21  1  0  0  0  0
 43 22  1  0  0  0  0
 44 23  1  0  0  0  0
 47 24  1  0  0  0  0
M  END
$$$$
