49
rmsd121.gzmat
O          0.00000        0.00000        0.00000
C          1.36500        0.00000        0.00000
C          2.10100        0.00000        1.18060
C          3.49340       -0.00660        1.12560
C          4.14570       -0.02460       -0.10690
C          3.40910       -0.02330       -1.29230
C          2.01210        0.00310       -1.24880
O          1.44780        0.03020       -2.48030
C          0.03610        0.18630       -2.55970
C          5.63880       -0.01320       -0.16740
C          6.17880        1.40240       -0.03200
O          7.05110        1.68430        0.76370
N          5.66630        2.33720       -0.91090
C          5.97210        3.76020       -0.72350
C          4.81710        4.49190       -0.01570
C          4.75790        4.13410        1.47730
C          3.39570        4.42240        2.02650
C          2.32710        3.58540        1.69770
C          1.04600        3.84720        2.17990
C          0.83230        4.94690        3.02400
C          1.90410        5.77680        3.35340
C          3.17980        5.52140        2.85640
C         -0.52410        5.23940        3.57250
C         -0.08270        2.95190        1.78950
H         -0.35850       -0.06860        0.91890
H          1.59520        0.00930        2.14370
H          4.06960        0.00700        2.05030
H          3.90350       -0.05080       -2.26210
H         -0.12580        0.25030       -3.64330
H         -0.28630        1.10570       -2.06040
H         -0.47310       -0.68850       -2.14180
H          6.02210       -0.46810       -1.10510
H          6.07770       -0.63500        0.64710
H          4.84650        2.12550       -1.46110
H          6.15820        4.20930       -1.72490
H          6.91850        3.86730       -0.14130
H          3.85460        4.24620       -0.50540
H          4.93840        5.58490       -0.13390
H          5.54580        4.68230        2.03030
H          5.00980        3.06140        1.63020
H          2.50110        2.72060        1.05870
H          1.74450        6.63420        4.00410
H          4.00370        6.18060        3.11760
H         -0.52880        6.10560        4.24700
H         -0.91720        4.38570        4.14310
H         -1.24230        5.45580        2.76810
H          0.19230        2.26680        0.97450
H         -0.94960        3.52830        1.43510
H         -0.41780        2.34690        2.64290
