49

O          0.36630        0.03540        1.27950
C          1.63160        0.01440        0.78040
C          2.76070       -0.16240        1.58410
C          4.04070       -0.21120        1.02380
C          4.22170       -0.08230       -0.35830
C          3.08320        0.11230       -1.15700
C          1.79850        0.16330       -0.61610
O          0.73790        0.29920       -1.46040
C         -0.08510        1.44420       -1.29190
C          5.59610       -0.06440       -0.97480
C          6.18050        1.32490       -1.28020
O          7.13460        1.45670       -2.02890
N          5.59350        2.36860       -0.63300
C          5.99750        3.74020       -0.87420
C          5.31950        4.35600       -2.10100
C          5.72560        5.81830       -2.34740
C          5.31120        6.75070       -1.23200
C          6.23220        7.19650       -0.27460
C          5.86310        8.02120        0.79570
C          4.51470        8.42240        0.92120
C          3.59260        7.97950       -0.03590
C          3.97820        7.15780       -1.09560
C          4.07970        9.31170        2.05700
C          6.89210        8.47600        1.79830
H          0.39930       -0.09670        2.23590
H          2.63040       -0.28020        2.66460
H          4.90660       -0.35580        1.67450
H          3.17360        0.22720       -2.23950
H         -0.81960        1.42510       -2.10870
H          0.51040        2.37250       -1.36890
H         -0.61290        1.43220       -0.32620
H          5.61700       -0.60850       -1.93060
H          6.32440       -0.56720       -0.31780
H          4.74830        2.18940       -0.10380
H          7.08850        3.74430       -1.01990
H          5.77680        4.33340        0.02650
H          4.22380        4.29240       -1.97810
H          5.58180        3.74710       -2.98110
H          5.27250        6.15420       -3.29460
H          6.81810        5.87110       -2.48700
H          7.27880        6.89050       -0.36600
H          2.54780        8.29120        0.05070
H          3.23410        6.83280       -1.82850
H          3.00250        9.52670        2.00700
H          4.61640       10.27560        2.04730
H          4.28640        8.85010        3.03760
H          7.88820        8.07640        1.56020
H          6.63320        8.15210        2.82070
H          6.96810        9.57620        1.83010
