35
rmsd3.gzmat
C          0.00000        0.00000        0.00000
C          1.40120        0.00000        0.00000
C          2.10630        0.00000        1.19270
C          1.40220        0.00410        2.41560
C         -0.01160       -0.01240        2.41940
C         -0.69390       -0.01430        1.21510
N          2.09260       -0.00320        3.60900
S         -0.86860        0.03300       -1.48780
O         -0.10430       -0.51700       -2.57100
O         -2.23820       -0.38380       -1.26820
N         -1.16480        1.75660       -1.85030
C         -0.20410        2.72670       -1.94060
C         -0.50790        4.05870       -2.30700
C          0.56660        4.95540       -2.32890
N          1.84450        4.60870       -2.02480
C          2.02650        3.30180       -1.68830
N          1.07580        2.34120       -1.62280
O          3.25100        2.84560       -1.36800
C          4.31100        3.80650       -1.43720
O          0.28700        6.22030       -2.67190
C          1.38180        7.14130       -2.70910
H          1.95900        0.01460       -0.94980
H          3.18990        0.00830        1.18480
H         -0.55280       -0.02330        3.35760
H         -1.79200       -0.02920        1.22900
H          1.61600        0.10410        4.47550
H          3.08320        0.09490        3.62530
H         -2.12040        2.02050       -2.09510
H         -1.50680        4.37770       -2.56060
H          5.17930        3.19360       -1.16560
H          4.14550        4.61630       -0.71870
H          4.40460        4.21020       -2.45150
H          0.88300        8.06940       -3.01300
H          2.12640        6.82240       -3.44620
H          1.83990        7.23370       -1.71880
