35
rmsd54.gzmat
C          0.00000        0.00000        0.00000
C          1.40150        0.00000        0.00000
C          2.10680        0.00000        1.19260
C          1.40290       -0.00090        2.41620
C         -0.01130        0.00880        2.42010
C         -0.69360        0.01010        1.21570
N          2.09380        0.01120        3.60850
S         -0.86460       -0.02050       -1.48960
O         -2.23890        0.38020       -1.26840
O         -0.10170        0.55350       -2.56160
N         -1.14440       -1.73890       -1.88840
C         -0.17680       -2.70050       -1.99680
C         -0.46730       -4.01990       -2.41640
C          0.61180       -4.91060       -2.45230
N          1.88210       -4.57030       -2.11070
C          2.05160       -3.27580       -1.72360
N          1.09520       -2.32200       -1.64290
O          3.26700       -2.82500       -1.36360
C          4.33140       -3.78110       -1.42770
O          0.34450       -6.16280       -2.84830
C          1.44400       -7.07750       -2.90140
H          1.95880       -0.01210       -0.95060
H          3.19020       -0.01210        1.18480
H         -0.55240        0.01370        3.35870
H         -1.79160        0.02400        1.23000
H          1.61870       -0.05580        4.47980
H          3.08620       -0.05890        3.62720
H         -2.09530       -2.00160       -2.15130
H         -1.45990       -4.33260       -2.70060
H          5.19090       -3.17170       -1.12280
H          4.45220       -4.16340       -2.44700
H          4.15150       -4.60550       -0.72980
H          0.94680       -8.00620       -3.20690
H          1.91450       -7.17600       -1.91780
H          2.17740       -6.74690       -3.64400
