rmsd54.gzmat
 OpenBabel08211713403D

 35 36  0  0  0  0  0  0  0  0999 V2000
    0.0000    0.0000    0.0000 C   0  0  0  0  0  0  0  0  0  0  0  0
    1.4015    0.0000    0.0000 C   0  0  0  0  0  0  0  0  0  0  0  0
    2.1068    0.0000    1.1926 C   0  0  0  0  0  0  0  0  0  0  0  0
    1.4029   -0.0009    2.4162 C   0  0  0  0  0  0  0  0  0  0  0  0
   -0.0113    0.0088    2.4201 C   0  0  0  0  0  0  0  0  0  0  0  0
   -0.6936    0.0101    1.2157 C   0  0  0  0  0  0  0  0  0  0  0  0
    2.0938    0.0112    3.6085 N   0  0  0  0  0  0  0  0  0  0  0  0
   -0.8646   -0.0205   -1.4896 S   0  0  0  0  0  0  0  0  0  0  0  0
   -2.2389    0.3802   -1.2684 O   0  0  0  0  0  0  0  0  0  0  0  0
   -0.1017    0.5535   -2.5616 O   0  0  0  0  0  0  0  0  0  0  0  0
   -1.1444   -1.7389   -1.8884 N   0  0  0  0  0  0  0  0  0  0  0  0
   -0.1768   -2.7005   -1.9968 C   0  0  0  0  0  0  0  0  0  0  0  0
   -0.4673   -4.0199   -2.4164 C   0  0  0  0  0  0  0  0  0  0  0  0
    0.6118   -4.9106   -2.4523 C   0  0  0  0  0  0  0  0  0  0  0  0
    1.8821   -4.5703   -2.1107 N   0  0  0  0  0  0  0  0  0  0  0  0
    2.0516   -3.2758   -1.7236 C   0  0  0  0  0  0  0  0  0  0  0  0
    1.0952   -2.3220   -1.6429 N   0  0  0  0  0  0  0  0  0  0  0  0
    3.2670   -2.8250   -1.3636 O   0  0  0  0  0  0  0  0  0  0  0  0
    4.3314   -3.7811   -1.4277 C   0  0  0  0  0  0  0  0  0  0  0  0
    0.3445   -6.1628   -2.8483 O   0  0  0  0  0  0  0  0  0  0  0  0
    1.4440   -7.0775   -2.9014 C   0  0  0  0  0  0  0  0  0  0  0  0
    1.9588   -0.0121   -0.9506 H   0  0  0  0  0  0  0  0  0  0  0  0
    3.1902   -0.0121    1.1848 H   0  0  0  0  0  0  0  0  0  0  0  0
   -0.5524    0.0137    3.3587 H   0  0  0  0  0  0  0  0  0  0  0  0
   -1.7916    0.0240    1.2300 H   0  0  0  0  0  0  0  0  0  0  0  0
    1.6187   -0.0558    4.4798 H   0  0  0  0  0  0  0  0  0  0  0  0
    3.0862   -0.0589    3.6272 H   0  0  0  0  0  0  0  0  0  0  0  0
   -2.0953   -2.0016   -2.1513 H   0  0  0  0  0  0  0  0  0  0  0  0
   -1.4599   -4.3326   -2.7006 H   0  0  0  0  0  0  0  0  0  0  0  0
    5.1909   -3.1717   -1.1228 H   0  0  0  0  0  0  0  0  0  0  0  0
    4.4522   -4.1634   -2.4470 H   0  0  0  0  0  0  0  0  0  0  0  0
    4.1515   -4.6055   -0.7298 H   0  0  0  0  0  0  0  0  0  0  0  0
    0.9468   -8.0062   -3.2069 H   0  0  0  0  0  0  0  0  0  0  0  0
    1.9145   -7.1760   -1.9178 H   0  0  0  0  0  0  0  0  0  0  0  0
    2.1774   -6.7469   -3.6440 H   0  0  0  0  0  0  0  0  0  0  0  0
  1  2  2  0  0  0  0
  1  6  1  0  0  0  0
  2  3  1  0  0  0  0
  3  4  2  0  0  0  0
  4  5  1  0  0  0  0
  4  7  1  0  0  0  0
  5 24  1  0  0  0  0
  6 25  1  0  0  0  0
  6  5  2  0  0  0  0
  7 27  1  0  0  0  0
  7 26  1  0  0  0  0
  8  9  2  0  0  0  0
  8  1  1  0  0  0  0
 10  8  2  0  0  0  0
 11  8  1  0  0  0  0
 12 11  1  0  0  0  0
 12 17  2  0  0  0  0
 13 12  1  0  0  0  0
 14 13  1  0  0  0  0
 14 15  2  0  0  0  0
 15 16  2  0  0  0  0
 16 17  2  0  0  0  0
 16 18  1  0  0  0  0
 19 18  1  0  0  0  0
 19 30  1  0  0  0  0
 19 32  1  0  0  0  0
 20 14  1  0  0  0  0
 21 20  1  0  0  0  0
 21 34  1  0  0  0  0
 22  2  1  0  0  0  0
 23  3  1  0  0  0  0
 28 11  1  0  0  0  0
 29 13  1  0  0  0  0
 31 19  1  0  0  0  0
 33 21  1  0  0  0  0
 35 21  1  0  0  0  0
M  RAD  1  13   2
M  END
$$$$
