35

C          0.03890        0.01370        0.13540
C          1.43390       -0.02790        0.23900
C          2.02750        0.14220        1.48160
C          1.24390        0.35540        2.63830
C         -0.16260        0.39580        2.50520
C         -0.76040        0.22820        1.26340
N          1.83830        0.55800        3.86000
S         -0.74040       -0.18340       -1.43760
O         -2.09780        0.36500       -1.37420
O          0.19100        0.19810       -2.49090
N         -1.07390       -1.86550       -1.55750
C         -0.15050       -2.86570       -1.76290
C         -0.56000       -4.15020       -2.15620
C          0.46630       -5.08720       -2.30450
N          1.75030       -4.79200       -2.09300
C          2.01150       -3.53750       -1.72370
N          1.13270       -2.56060       -1.54370
O          3.28280       -3.18960       -1.49550
C          4.28940       -4.17390       -1.67620
O          0.13730       -6.32820       -2.67840
C          1.18330       -7.27770       -2.84400
H          2.03330       -0.21370       -0.65080
H          3.11650        0.10990        1.56950
H         -0.78200        0.57180        3.38850
H         -1.84480        0.27490        1.15370
H          1.27080        0.47830        4.69340
H          2.81110        0.30470        3.97110
H         -2.05800       -2.03920       -1.73560
H         -1.59870       -4.41680       -2.34410
H          5.24030       -3.67730       -1.44420
H          4.30150       -4.54740       -2.71180
H          4.13580       -5.03160       -1.00300
H          0.69450       -8.21040       -3.15290
H          1.73420       -7.43120       -1.90350
H          1.89890       -6.95110       -3.61390
