rmsd65.gzmat
 OpenBabel08211713403D

 35 36  0  0  0  0  0  0  0  0999 V2000
    0.0000    0.0000    0.0000 C   0  0  0  0  0  0  0  0  0  0  0  0
    1.3994    0.0000    0.0000 C   0  0  0  0  0  0  0  0  0  0  0  0
    2.1075    0.0000    1.1893 C   0  0  0  0  0  0  0  0  0  0  0  0
    1.4039   -0.0022    2.4160 C   0  0  0  0  0  0  0  0  0  0  0  0
   -0.0078    0.0055    2.4215 C   0  0  0  0  0  0  0  0  0  0  0  0
   -0.6940    0.0053    1.2181 C   0  0  0  0  0  0  0  0  0  0  0  0
    2.0972    0.0055    3.6059 N   0  0  0  0  0  0  0  0  0  0  0  0
   -0.8641   -0.0107   -1.4900 S   0  0  0  0  0  0  0  0  0  0  0  0
   -2.1696    0.5712   -1.3566 O   0  0  0  0  0  0  0  0  0  0  0  0
    0.0124    0.3898   -2.5715 O   0  0  0  0  0  0  0  0  0  0  0  0
   -1.0860   -1.7237   -1.9438 N   0  0  0  0  0  0  0  0  0  0  0  0
   -1.6580   -2.6892   -1.1609 C   0  0  0  0  0  0  0  0  0  0  0  0
   -1.8885   -4.0038   -1.6303 C   0  0  0  0  0  0  0  0  0  0  0  0
   -2.4438   -4.9012   -0.7112 C   0  0  0  0  0  0  0  0  0  0  0  0
   -2.7592   -4.5714    0.5682 N   0  0  0  0  0  0  0  0  0  0  0  0
   -2.5001   -3.2803    0.9150 C   0  0  0  0  0  0  0  0  0  0  0  0
   -1.9660   -2.3199    0.1259 N   0  0  0  0  0  0  0  0  0  0  0  0
   -2.7706   -2.8437    2.1583 O   0  0  0  0  0  0  0  0  0  0  0  0
   -3.3382   -3.8125    3.0476 C   0  0  0  0  0  0  0  0  0  0  0  0
   -2.6642   -6.1492   -1.1470 O   0  0  0  0  0  0  0  0  0  0  0  0
   -3.2076   -7.0809   -0.2059 C   0  0  0  0  0  0  0  0  0  0  0  0
    1.9562    0.0045   -0.9467 H   0  0  0  0  0  0  0  0  0  0  0  0
    3.1905    0.0015    1.1839 H   0  0  0  0  0  0  0  0  0  0  0  0
   -0.5522   -0.0013    3.3583 H   0  0  0  0  0  0  0  0  0  0  0  0
   -1.7956   -0.0016    1.2333 H   0  0  0  0  0  0  0  0  0  0  0  0
    1.6229   -0.0476    4.4786 H   0  0  0  0  0  0  0  0  0  0  0  0
    3.0906   -0.0397    3.6250 H   0  0  0  0  0  0  0  0  0  0  0  0
   -0.8572   -1.9779   -2.9057 H   0  0  0  0  0  0  0  0  0  0  0  0
   -1.6563   -4.3097   -2.6384 H   0  0  0  0  0  0  0  0  0  0  0  0
   -3.4429   -3.2283    3.9695 H   0  0  0  0  0  0  0  0  0  0  0  0
   -2.6599   -4.6616    3.1818 H   0  0  0  0  0  0  0  0  0  0  0  0
   -4.3087   -4.1577    2.6749 H   0  0  0  0  0  0  0  0  0  0  0  0
   -3.3099   -7.9836   -0.8204 H   0  0  0  0  0  0  0  0  0  0  0  0
   -4.1766   -6.7339    0.1681 H   0  0  0  0  0  0  0  0  0  0  0  0
   -2.5109   -7.2321    0.6246 H   0  0  0  0  0  0  0  0  0  0  0  0
  1  2  2  0  0  0  0
  1  6  1  0  0  0  0
  2  3  1  0  0  0  0
  3  4  2  0  0  0  0
  4  5  1  0  0  0  0
  4  7  1  0  0  0  0
  5 24  1  0  0  0  0
  6 25  1  0  0  0  0
  6  5  2  0  0  0  0
  7 27  1  0  0  0  0
  7 26  1  0  0  0  0
  8  9  2  0  0  0  0
  8  1  1  0  0  0  0
 10  8  2  0  0  0  0
 11  8  1  0  0  0  0
 11 12  1  0  0  0  0
 12 17  2  0  0  0  0
 13 12  1  0  0  0  0
 13 14  1  0  0  0  0
 14 15  2  0  0  0  0
 15 16  2  0  0  0  0
 16 18  1  0  0  0  0
 17 16  2  0  0  0  0
 18 19  1  0  0  0  0
 19 31  1  0  0  0  0
 19 30  1  0  0  0  0
 20 14  1  0  0  0  0
 20 21  1  0  0  0  0
 21 34  1  0  0  0  0
 21 35  1  0  0  0  0
 22  2  1  0  0  0  0
 23  3  1  0  0  0  0
 28 11  1  0  0  0  0
 29 13  1  0  0  0  0
 32 19  1  0  0  0  0
 33 21  1  0  0  0  0
M  RAD  1  13   2
M  END
$$$$
