35
rmsd65.gzmat
C          0.00000        0.00000        0.00000
C          1.39940        0.00000        0.00000
C          2.10750        0.00000        1.18930
C          1.40390       -0.00220        2.41600
C         -0.00780        0.00550        2.42150
C         -0.69400        0.00530        1.21810
N          2.09720        0.00550        3.60590
S         -0.86410       -0.01070       -1.49000
O         -2.16960        0.57120       -1.35660
O          0.01240        0.38980       -2.57150
N         -1.08600       -1.72370       -1.94380
C         -1.65800       -2.68920       -1.16090
C         -1.88850       -4.00380       -1.63030
C         -2.44380       -4.90120       -0.71120
N         -2.75920       -4.57140        0.56820
C         -2.50010       -3.28030        0.91500
N         -1.96600       -2.31990        0.12590
O         -2.77060       -2.84370        2.15830
C         -3.33820       -3.81250        3.04760
O         -2.66420       -6.14920       -1.14700
C         -3.20760       -7.08090       -0.20590
H          1.95620        0.00450       -0.94670
H          3.19050        0.00150        1.18390
H         -0.55220       -0.00130        3.35830
H         -1.79560       -0.00160        1.23330
H          1.62290       -0.04760        4.47860
H          3.09060       -0.03970        3.62500
H         -0.85720       -1.97790       -2.90570
H         -1.65630       -4.30970       -2.63840
H         -3.44290       -3.22830        3.96950
H         -2.65990       -4.66160        3.18180
H         -4.30870       -4.15770        2.67490
H         -3.30990       -7.98360       -0.82040
H         -4.17660       -6.73390        0.16810
H         -2.51090       -7.23210        0.62460
