35
rmsd109.gzmat
C          0.00000        0.00000        0.00000
C          1.40120        0.00000        0.00000
C          2.10630        0.00000        1.19270
C          1.40190       -0.00840        2.41610
C         -0.01220       -0.00660        2.41980
C         -0.69420       -0.00130        1.21540
N          2.09250        0.00380        3.60820
S         -0.86970       -0.00880       -1.48760
O         -2.22890        0.44050       -1.26600
O         -0.09370        0.52580       -2.57010
N         -1.20920       -1.72410       -1.84830
C         -0.26970       -2.71180       -1.96680
C         -0.60630       -4.03290       -2.34400
C          0.45130       -4.94810       -2.40260
N          1.74090       -4.62880       -2.11890
C          1.95360       -3.33100       -1.76430
N          1.02250       -2.35400       -1.66690
O          3.19230       -2.90300       -1.46020
C          4.23210       -3.88270       -1.56210
O          0.14280       -6.20190       -2.76150
C          1.21850       -7.14380       -2.82640
H          1.95830       -0.01080       -0.95020
H          3.19010       -0.00310        1.18490
H         -0.55450       -0.00780        3.35740
H         -1.79210        0.00670        1.22900
H          1.61730       -0.05920        4.47950
H          3.08460       -0.06730        3.62730
H         -2.17510       -1.96700       -2.07280
H         -1.61610       -4.33040       -2.57930
H          5.11520       -3.29390       -1.28550
H          4.30670       -4.26480       -2.58630
H          4.05890       -4.70530       -0.86000
H          0.70680       -8.04200       -3.19260
H          1.64740       -7.29740       -1.83100
H          1.99090       -6.80650       -3.52580
