35
rmsd241.gzmat
C          0.00000        0.00000        0.00000
C          1.40140        0.00000        0.00000
C          2.10660        0.00000        1.19250
C          1.40300       -0.00150        2.41620
C         -0.01130        0.00770        2.42020
C         -0.69330        0.00950        1.21580
N          2.09390        0.00520        3.60760
S         -0.86950       -0.02930       -1.48700
O         -2.24250        0.37510       -1.26430
O         -0.11070        0.53270       -2.56780
N         -1.15500       -1.75120       -1.86510
C         -0.18560       -2.70990       -1.98040
C         -0.47540       -4.03430       -2.38440
C          0.60870       -4.91820       -2.43070
N          1.88160       -4.56740       -2.11180
C          2.04910       -3.27040       -1.73320
N          1.08910       -2.32110       -1.64720
O          3.26700       -2.81530       -1.38800
C          4.33190       -3.77010       -1.46590
O          0.34630       -6.17550       -2.81290
C          1.45560       -7.07820       -2.87480
H          1.95910       -0.01180       -0.95020
H          3.19030       -0.01080        1.18360
H         -0.55270        0.01230        3.35840
H         -1.79140        0.02290        1.22920
H          1.62010       -0.03800        4.48120
H          3.08740       -0.05030        3.62590
H         -2.10930       -2.01800       -2.11010
H         -1.47050       -4.35590       -2.64860
H          5.19310       -3.16180       -1.16380
H          4.44360       -4.14580       -2.48900
H          4.15790       -4.59990       -0.77280
H          0.97040       -8.00730       -3.19670
H          1.92090       -7.18400       -1.88920
H          2.19130       -6.73070       -3.60780
