rmsd178.gzmat
 OpenBabel08211713413D

 42 44  0  0  0  0  0  0  0  0999 V2000
    0.0000    0.0000    0.0000 Br  0  0  0  0  0  0  0  0  0  0  0  0
    1.8941    0.0000    0.0000 C   0  0  0  0  0  0  0  0  0  0  0  0
    2.5729    0.0000    1.1998 C   0  0  0  0  0  0  0  0  0  0  0  0
    3.9752    0.0163    1.2175 C   0  0  0  0  0  0  0  0  0  0  0  0
    4.6880    0.0807   -0.0111 C   0  0  0  0  0  0  0  0  0  0  0  0
    6.0560    0.2276   -0.0067 N   0  0  0  0  0  0  0  0  0  0  0  0
    7.1299    0.4116   -1.3879 S   0  0  0  0  0  0  0  0  0  0  0  0
    8.4334    0.3141   -0.7876 O   0  0  0  0  0  0  0  0  0  0  0  0
    6.6852   -0.4833   -2.4234 O   0  0  0  0  0  0  0  0  0  0  0  0
    6.8163    2.0542   -1.8930 C   0  0  0  0  0  0  0  0  0  0  0  0
    7.2688    3.1233   -1.1193 C   0  0  0  0  0  0  0  0  0  0  0  0
    7.0053    4.4309   -1.5164 C   0  0  0  0  0  0  0  0  0  0  0  0
    6.2938    4.6791   -2.6947 C   0  0  0  0  0  0  0  0  0  0  0  0
    5.8497    3.6045   -3.4720 C   0  0  0  0  0  0  0  0  0  0  0  0
    6.1113    2.2974   -3.0724 C   0  0  0  0  0  0  0  0  0  0  0  0
    6.0022    6.0782   -3.1108 C   0  0  0  0  0  0  0  0  0  0  0  0
    3.9552    0.0138   -1.2278 C   0  0  0  0  0  0  0  0  0  0  0  0
    2.5769   -0.0168   -1.2205 C   0  0  0  0  0  0  0  0  0  0  0  0
    4.6620   -0.0248    2.5162 C   0  0  0  0  0  0  0  0  0  0  0  0
    5.8329    0.2740    2.6488 O   0  0  0  0  0  0  0  0  0  0  0  0
    3.8847   -0.4636    3.7055 C   0  0  0  0  0  0  0  0  0  0  0  0
    3.7273    0.4082    4.7811 C   0  0  0  0  0  0  0  0  0  0  0  0
    3.0073   -0.0065    5.9006 C   0  0  0  0  0  0  0  0  0  0  0  0
    2.4658   -1.2902    5.9454 C   0  0  0  0  0  0  0  0  0  0  0  0
    2.6428   -2.1652    4.8734 C   0  0  0  0  0  0  0  0  0  0  0  0
    3.3519   -1.7523    3.7481 C   0  0  0  0  0  0  0  0  0  0  0  0
    2.0256   -0.0100    2.1494 H   0  0  0  0  0  0  0  0  0  0  0  0
    6.5128    0.2104    0.9274 H   0  0  0  0  0  0  0  0  0  0  0  0
    7.8382    2.9537   -0.1979 H   0  0  0  0  0  0  0  0  0  0  0  0
    7.3538    5.2627   -0.9078 H   0  0  0  0  0  0  0  0  0  0  0  0
    5.2984    3.7901   -4.3910 H   0  0  0  0  0  0  0  0  0  0  0  0
    5.7610    1.4694   -3.7017 H   0  0  0  0  0  0  0  0  0  0  0  0
    5.8937    6.1831   -4.1997 H   0  0  0  0  0  0  0  0  0  0  0  0
    6.7881    6.7825   -2.8006 H   0  0  0  0  0  0  0  0  0  0  0  0
    5.0603    6.4328   -2.6603 H   0  0  0  0  0  0  0  0  0  0  0  0
    4.4740   -0.0486   -2.1860 H   0  0  0  0  0  0  0  0  0  0  0  0
    2.0286   -0.0587   -2.1645 H   0  0  0  0  0  0  0  0  0  0  0  0
    4.1686    1.4042    4.7472 H   0  0  0  0  0  0  0  0  0  0  0  0
    2.8744    0.6714    6.7416 H   0  0  0  0  0  0  0  0  0  0  0  0
    1.9048   -1.6125    6.8210 H   0  0  0  0  0  0  0  0  0  0  0  0
    2.2274   -3.1705    4.9153 H   0  0  0  0  0  0  0  0  0  0  0  0
    3.4921   -2.4314    2.9069 H   0  0  0  0  0  0  0  0  0  0  0  0
  1  2  1  0  0  0  0
  2  3  2  0  0  0  0
  3  4  1  0  0  0  0
  3 27  1  0  0  0  0
  4 19  1  0  0  0  0
  5  6  1  0  0  0  0
  5  4  2  0  0  0  0
  6 28  1  0  0  0  0
  7  8  2  0  0  0  0
  7  6  1  0  0  0  0
  9  7  2  0  0  0  0
 10  7  1  0  0  0  0
 10 11  2  0  0  0  0
 11 29  1  0  0  0  0
 12 11  1  0  0  0  0
 12 30  1  0  0  0  0
 13 12  2  0  0  0  0
 14 15  2  0  0  0  0
 14 13  1  0  0  0  0
 15 10  1  0  0  0  0
 16 34  1  0  0  0  0
 16 13  1  0  0  0  0
 16 35  1  0  0  0  0
 17 18  2  0  0  0  0
 17  5  1  0  0  0  0
 18  2  1  0  0  0  0
 19 20  2  0  0  0  0
 19 21  1  0  0  0  0
 21 26  2  0  0  0  0
 21 22  1  0  0  0  0
 22 23  2  0  0  0  0
 23 24  1  0  0  0  0
 23 39  1  0  0  0  0
 24 40  1  0  0  0  0
 25 41  1  0  0  0  0
 25 24  2  0  0  0  0
 26 25  1  0  0  0  0
 31 14  1  0  0  0  0
 32 15  1  0  0  0  0
 33 16  1  0  0  0  0
 36 17  1  0  0  0  0
 37 18  1  0  0  0  0
 38 22  1  0  0  0  0
 42 26  1  0  0  0  0
M  END
$$$$
