rmsd192.gzmat
 OpenBabel08211713413D

 42 44  0  0  0  0  0  0  0  0999 V2000
    0.0000    0.0000    0.0000 Br  0  0  0  0  0  0  0  0  0  0  0  0
    1.8942    0.0000    0.0000 C   0  0  0  0  0  0  0  0  0  0  0  0
    2.5722    0.0000    1.2004 C   0  0  0  0  0  0  0  0  0  0  0  0
    3.9743    0.0093    1.2177 C   0  0  0  0  0  0  0  0  0  0  0  0
    4.6883    0.0725   -0.0104 C   0  0  0  0  0  0  0  0  0  0  0  0
    6.0578    0.2152   -0.0020 N   0  0  0  0  0  0  0  0  0  0  0  0
    7.1613    0.2479   -1.3705 S   0  0  0  0  0  0  0  0  0  0  0  0
    8.4384    0.0191   -0.7493 O   0  0  0  0  0  0  0  0  0  0  0  0
    6.6311   -0.6145   -2.3934 O   0  0  0  0  0  0  0  0  0  0  0  0
    7.0529    1.9035   -1.9164 C   0  0  0  0  0  0  0  0  0  0  0  0
    7.6092    2.9285   -1.1500 C   0  0  0  0  0  0  0  0  0  0  0  0
    7.5328    4.2465   -1.5888 C   0  0  0  0  0  0  0  0  0  0  0  0
    6.9036    4.5490   -2.8010 C   0  0  0  0  0  0  0  0  0  0  0  0
    6.3494    3.5190   -3.5668 C   0  0  0  0  0  0  0  0  0  0  0  0
    6.4239    2.2011   -3.1252 C   0  0  0  0  0  0  0  0  0  0  0  0
    6.8229    5.9623   -3.2620 C   0  0  0  0  0  0  0  0  0  0  0  0
    3.9563    0.0168   -1.2274 C   0  0  0  0  0  0  0  0  0  0  0  0
    2.5779   -0.0129   -1.2204 C   0  0  0  0  0  0  0  0  0  0  0  0
    4.6614   -0.0340    2.5168 C   0  0  0  0  0  0  0  0  0  0  0  0
    5.8204    0.3093    2.6531 O   0  0  0  0  0  0  0  0  0  0  0  0
    3.9117   -0.5228    3.7032 C   0  0  0  0  0  0  0  0  0  0  0  0
    3.8804    0.2635    4.8538 C   0  0  0  0  0  0  0  0  0  0  0  0
    3.2052   -0.1963    5.9834 C   0  0  0  0  0  0  0  0  0  0  0  0
    2.5781   -1.4408    5.9616 C   0  0  0  0  0  0  0  0  0  0  0  0
    2.6237   -2.2301    4.8121 C   0  0  0  0  0  0  0  0  0  0  0  0
    3.2919   -1.7728    3.6791 C   0  0  0  0  0  0  0  0  0  0  0  0
    2.0253   -0.0040    2.1500 H   0  0  0  0  0  0  0  0  0  0  0  0
    6.5047    0.2165    0.9369 H   0  0  0  0  0  0  0  0  0  0  0  0
    8.1163    2.7139   -0.2024 H   0  0  0  0  0  0  0  0  0  0  0  0
    7.9664    5.0441   -0.9891 H   0  0  0  0  0  0  0  0  0  0  0  0
    5.8602    3.7462   -4.5113 H   0  0  0  0  0  0  0  0  0  0  0  0
    5.9887    1.4077   -3.7456 H   0  0  0  0  0  0  0  0  0  0  0  0
    6.6138    6.0507   -4.3374 H   0  0  0  0  0  0  0  0  0  0  0  0
    7.7560    6.5144   -3.0735 H   0  0  0  0  0  0  0  0  0  0  0  0
    6.0202    6.5026   -2.7336 H   0  0  0  0  0  0  0  0  0  0  0  0
    4.4741   -0.0308   -2.1871 H   0  0  0  0  0  0  0  0  0  0  0  0
    2.0308   -0.0487   -2.1651 H   0  0  0  0  0  0  0  0  0  0  0  0
    4.3888    1.2284    4.8689 H   0  0  0  0  0  0  0  0  0  0  0  0
    3.1759    0.4143    6.8835 H   0  0  0  0  0  0  0  0  0  0  0  0
    2.0537   -1.8001    6.8453 H   0  0  0  0  0  0  0  0  0  0  0  0
    2.1386   -3.2044    4.7998 H   0  0  0  0  0  0  0  0  0  0  0  0
    3.3348   -2.3888    2.7807 H   0  0  0  0  0  0  0  0  0  0  0  0
  1  2  1  0  0  0  0
  2  3  2  0  0  0  0
  3  4  1  0  0  0  0
  3 27  1  0  0  0  0
  4 19  1  0  0  0  0
  5  6  1  0  0  0  0
  5  4  2  0  0  0  0
  6 28  1  0  0  0  0
  7  8  2  0  0  0  0
  7  6  1  0  0  0  0
  9  7  2  0  0  0  0
 10  7  1  0  0  0  0
 10 11  2  0  0  0  0
 11 29  1  0  0  0  0
 12 11  1  0  0  0  0
 12 30  1  0  0  0  0
 13 12  2  0  0  0  0
 14 15  2  0  0  0  0
 14 13  1  0  0  0  0
 15 10  1  0  0  0  0
 16 34  1  0  0  0  0
 16 13  1  0  0  0  0
 16 35  1  0  0  0  0
 17 18  2  0  0  0  0
 17  5  1  0  0  0  0
 18  2  1  0  0  0  0
 19 20  2  0  0  0  0
 19 21  1  0  0  0  0
 21 22  1  0  0  0  0
 22 38  1  0  0  0  0
 22 23  2  0  0  0  0
 23 39  1  0  0  0  0
 24 23  1  0  0  0  0
 24 40  1  0  0  0  0
 25 24  2  0  0  0  0
 26 21  2  0  0  0  0
 26 25  1  0  0  0  0
 31 14  1  0  0  0  0
 32 15  1  0  0  0  0
 33 16  1  0  0  0  0
 36 17  1  0  0  0  0
 37 18  1  0  0  0  0
 41 25  1  0  0  0  0
 42 26  1  0  0  0  0
M  END
$$$$
