rmsd60.gzmat
 OpenBabel08211713413D

 42 44  0  0  0  0  0  0  0  0999 V2000
    0.0000    0.0000    0.0000 Br  0  0  0  0  0  0  0  0  0  0  0  0
    1.8940    0.0000    0.0000 C   0  0  0  0  0  0  0  0  0  0  0  0
    2.5720    0.0000    1.2007 C   0  0  0  0  0  0  0  0  0  0  0  0
    3.9737   -0.0059    1.2196 C   0  0  0  0  0  0  0  0  0  0  0  0
    4.6871   -0.0832   -0.0079 C   0  0  0  0  0  0  0  0  0  0  0  0
    6.0558   -0.2303   -0.0041 N   0  0  0  0  0  0  0  0  0  0  0  0
    7.1025   -0.6104   -1.3665 S   0  0  0  0  0  0  0  0  0  0  0  0
    6.6655    0.1649   -2.4971 O   0  0  0  0  0  0  0  0  0  0  0  0
    8.4197   -0.4845   -0.8020 O   0  0  0  0  0  0  0  0  0  0  0  0
    6.7302   -2.2929   -1.6520 C   0  0  0  0  0  0  0  0  0  0  0  0
    5.8522   -2.6526   -2.6754 C   0  0  0  0  0  0  0  0  0  0  0  0
    5.5312   -3.9905   -2.8798 C   0  0  0  0  0  0  0  0  0  0  0  0
    6.0921   -4.9808   -2.0658 C   0  0  0  0  0  0  0  0  0  0  0  0
    6.9829   -4.6174   -1.0518 C   0  0  0  0  0  0  0  0  0  0  0  0
    7.3025   -3.2778   -0.8476 C   0  0  0  0  0  0  0  0  0  0  0  0
    5.7293   -6.4088   -2.2783 C   0  0  0  0  0  0  0  0  0  0  0  0
    3.9560   -0.0157   -1.2253 C   0  0  0  0  0  0  0  0  0  0  0  0
    2.5778    0.0180   -1.2202 C   0  0  0  0  0  0  0  0  0  0  0  0
    4.6632    0.0501    2.5178 C   0  0  0  0  0  0  0  0  0  0  0  0
    5.8188   -0.3046    2.6555 O   0  0  0  0  0  0  0  0  0  0  0  0
    3.9211    0.5619    3.6988 C   0  0  0  0  0  0  0  0  0  0  0  0
    3.2210    1.7674    3.6319 C   0  0  0  0  0  0  0  0  0  0  0  0
    2.5484    2.2363    4.7573 C   0  0  0  0  0  0  0  0  0  0  0  0
    2.5814    1.5046    5.9447 C   0  0  0  0  0  0  0  0  0  0  0  0
    3.2945    0.3087    6.0123 C   0  0  0  0  0  0  0  0  0  0  0  0
    3.9727   -0.1624    4.8896 C   0  0  0  0  0  0  0  0  0  0  0  0
    2.0240   -0.0026    2.1499 H   0  0  0  0  0  0  0  0  0  0  0  0
    6.5147   -0.1994    0.9269 H   0  0  0  0  0  0  0  0  0  0  0  0
    5.4100   -1.8943   -3.3325 H   0  0  0  0  0  0  0  0  0  0  0  0
    4.8414   -4.2684   -3.6739 H   0  0  0  0  0  0  0  0  0  0  0  0
    7.4276   -5.3819   -0.4185 H   0  0  0  0  0  0  0  0  0  0  0  0
    8.0099   -3.0166   -0.0512 H   0  0  0  0  0  0  0  0  0  0  0  0
    6.3916   -7.1044   -1.7440 H   0  0  0  0  0  0  0  0  0  0  0  0
    5.7639   -6.6898   -3.3415 H   0  0  0  0  0  0  0  0  0  0  0  0
    4.7041   -6.6110   -1.9267 H   0  0  0  0  0  0  0  0  0  0  0  0
    4.4776    0.0488   -2.1835 H   0  0  0  0  0  0  0  0  0  0  0  0
    2.0312    0.0623   -2.1648 H   0  0  0  0  0  0  0  0  0  0  0  0
    3.2036    2.3407    2.7043 H   0  0  0  0  0  0  0  0  0  0  0  0
    1.9973    3.1739    4.7093 H   0  0  0  0  0  0  0  0  0  0  0  0
    2.0518    1.8715    6.8227 H   0  0  0  0  0  0  0  0  0  0  0  0
    3.3276   -0.2553    6.9424 H   0  0  0  0  0  0  0  0  0  0  0  0
    4.5483   -1.0878    4.9387 H   0  0  0  0  0  0  0  0  0  0  0  0
  1  2  1  0  0  0  0
  2  3  2  0  0  0  0
  3  4  1  0  0  0  0
  3 27  1  0  0  0  0
  4 19  1  0  0  0  0
  5  6  1  0  0  0  0
  5  4  2  0  0  0  0
  6 28  1  0  0  0  0
  7  9  2  0  0  0  0
  7  6  1  0  0  0  0
  8  7  2  0  0  0  0
 10  7  1  0  0  0  0
 10 15  2  0  0  0  0
 11 10  1  0  0  0  0
 12 11  2  0  0  0  0
 12 13  1  0  0  0  0
 13 14  2  0  0  0  0
 14 15  1  0  0  0  0
 14 31  1  0  0  0  0
 15 32  1  0  0  0  0
 16 13  1  0  0  0  0
 16 35  1  0  0  0  0
 16 33  1  0  0  0  0
 17 18  2  0  0  0  0
 17  5  1  0  0  0  0
 18  2  1  0  0  0  0
 19 20  2  0  0  0  0
 19 21  1  0  0  0  0
 21 26  1  0  0  0  0
 22 21  2  0  0  0  0
 22 23  1  0  0  0  0
 23 24  2  0  0  0  0
 24 25  1  0  0  0  0
 24 40  1  0  0  0  0
 25 41  1  0  0  0  0
 26 42  1  0  0  0  0
 26 25  2  0  0  0  0
 29 11  1  0  0  0  0
 30 12  1  0  0  0  0
 34 16  1  0  0  0  0
 36 17  1  0  0  0  0
 37 18  1  0  0  0  0
 38 22  1  0  0  0  0
 39 23  1  0  0  0  0
M  END
$$$$
