42
rmsd19.gzmat
Br         0.00000        0.00000        0.00000
C          1.89410        0.00000        0.00000
C          2.57290        0.00000        1.20030
C          3.97450       -0.02600        1.21520
C          4.68790       -0.09680       -0.01150
N          6.05580       -0.26020       -0.00490
S          7.15290       -0.23030       -1.37920
O          6.66840        0.75550       -2.30860
O          8.44330       -0.13580       -0.75020
C          6.93950       -1.81560       -2.08090
C          7.48470       -2.93670       -1.45540
C          7.30120       -4.20140       -2.00780
C          6.57500       -4.35180       -3.19280
C          6.04380       -3.22270       -3.82560
C          6.22610       -1.96000       -3.27170
C          6.37570       -5.69940       -3.79260
C          3.95600       -0.02610       -1.22760
C          2.57740        0.01150       -1.22030
C          4.66130        0.02270        2.51510
O          5.80180       -0.36540        2.66970
C          3.91560        0.59470        3.66690
C          3.50210        1.92620        3.62390
C          2.82760        2.47100        4.71380
C          2.56360        1.68350        5.83450
C          2.98040        0.35380        5.87210
C          3.66840       -0.19250        4.78940
H          2.02820        0.01860        2.15100
H          6.50190       -0.30170        0.93230
H          8.06530       -2.84160       -0.53020
H          7.72550       -5.07390       -1.51560
H          5.48930       -3.33270       -4.75480
H          5.80560       -1.08840       -3.78890
H          7.06940       -5.86130       -4.63380
H          5.35760       -5.83070       -4.18860
H          6.54500       -6.51590       -3.07660
H          4.47300        0.02430       -2.18590
H          2.03060        0.05260       -2.16520
H          3.70960        2.53630        2.74490
H          2.50900        3.51130        4.69010
H          2.03410        2.11050        6.68450
H          2.77400       -0.25750        6.74830
H          4.01700       -1.22480        4.82160
