42
rmsd60.gzmat
Br         0.00000        0.00000        0.00000
C          1.89400        0.00000        0.00000
C          2.57200        0.00000        1.20070
C          3.97370       -0.00590        1.21960
C          4.68710       -0.08320       -0.00790
N          6.05580       -0.23030       -0.00410
S          7.10250       -0.61040       -1.36650
O          6.66550        0.16490       -2.49710
O          8.41970       -0.48450       -0.80200
C          6.73020       -2.29290       -1.65200
C          5.85220       -2.65260       -2.67540
C          5.53120       -3.99050       -2.87980
C          6.09210       -4.98080       -2.06580
C          6.98290       -4.61740       -1.05180
C          7.30250       -3.27780       -0.84760
C          5.72930       -6.40880       -2.27830
C          3.95600       -0.01570       -1.22530
C          2.57780        0.01800       -1.22020
C          4.66320        0.05010        2.51780
O          5.81880       -0.30460        2.65550
C          3.92110        0.56190        3.69880
C          3.22100        1.76740        3.63190
C          2.54840        2.23630        4.75730
C          2.58140        1.50460        5.94470
C          3.29450        0.30870        6.01230
C          3.97270       -0.16240        4.88960
H          2.02400       -0.00260        2.14990
H          6.51470       -0.19940        0.92690
H          5.41000       -1.89430       -3.33250
H          4.84140       -4.26840       -3.67390
H          7.42760       -5.38190       -0.41850
H          8.00990       -3.01660       -0.05120
H          6.39160       -7.10440       -1.74400
H          5.76390       -6.68980       -3.34150
H          4.70410       -6.61100       -1.92670
H          4.47760        0.04880       -2.18350
H          2.03120        0.06230       -2.16480
H          3.20360        2.34070        2.70430
H          1.99730        3.17390        4.70930
H          2.05180        1.87150        6.82270
H          3.32760       -0.25530        6.94240
H          4.54830       -1.08780        4.93870
