rmsd21.gzmat
 OpenBabel08211713413D

 42 44  0  0  0  0  0  0  0  0999 V2000
    0.0000    0.0000    0.0000 Br  0  0  0  0  0  0  0  0  0  0  0  0
    1.8944    0.0000    0.0000 C   0  0  0  0  0  0  0  0  0  0  0  0
    2.5736    0.0000    1.1990 C   0  0  0  0  0  0  0  0  0  0  0  0
    3.9766   -0.0072    1.2176 C   0  0  0  0  0  0  0  0  0  0  0  0
    4.6898   -0.0469   -0.0129 C   0  0  0  0  0  0  0  0  0  0  0  0
    6.0634   -0.1330   -0.0086 N   0  0  0  0  0  0  0  0  0  0  0  0
    7.1425   -0.4715   -1.3554 S   0  0  0  0  0  0  0  0  0  0  0  0
    6.5894    0.1359   -2.5368 O   0  0  0  0  0  0  0  0  0  0  0  0
    8.4362   -0.1157   -0.8366 O   0  0  0  0  0  0  0  0  0  0  0  0
    7.0180   -2.2084   -1.4869 C   0  0  0  0  0  0  0  0  0  0  0  0
    6.0708   -2.7821   -2.3355 C   0  0  0  0  0  0  0  0  0  0  0  0
    5.9574   -4.1661   -2.4183 C   0  0  0  0  0  0  0  0  0  0  0  0
    6.8005   -4.9870   -1.6618 C   0  0  0  0  0  0  0  0  0  0  0  0
    7.7583   -4.4080   -0.8236 C   0  0  0  0  0  0  0  0  0  0  0  0
    7.8647   -3.0231   -0.7355 C   0  0  0  0  0  0  0  0  0  0  0  0
    6.6909   -6.4681   -1.7635 C   0  0  0  0  0  0  0  0  0  0  0  0
    3.9544   -0.0030   -1.2290 C   0  0  0  0  0  0  0  0  0  0  0  0
    2.5766    0.0147   -1.2213 C   0  0  0  0  0  0  0  0  0  0  0  0
    4.6625    0.0077    2.5165 C   0  0  0  0  0  0  0  0  0  0  0  0
    5.8582   -0.1826    2.6309 O   0  0  0  0  0  0  0  0  0  0  0  0
    3.8558    0.2671    3.7395 C   0  0  0  0  0  0  0  0  0  0  0  0
    3.2951    1.5269    3.9474 C   0  0  0  0  0  0  0  0  0  0  0  0
    2.5625    1.7685    5.1074 C   0  0  0  0  0  0  0  0  0  0  0  0
    2.3920    0.7538    6.0490 C   0  0  0  0  0  0  0  0  0  0  0  0
    2.9606   -0.5014    5.8384 C   0  0  0  0  0  0  0  0  0  0  0  0
    3.7018   -0.7464    4.6833 C   0  0  0  0  0  0  0  0  0  0  0  0
    2.0250    0.0015    2.1480 H   0  0  0  0  0  0  0  0  0  0  0  0
    6.5179   -0.0526    0.9239 H   0  0  0  0  0  0  0  0  0  0  0  0
    5.4120   -2.1580   -2.9505 H   0  0  0  0  0  0  0  0  0  0  0  0
    5.2133   -4.6106   -3.0753 H   0  0  0  0  0  0  0  0  0  0  0  0
    8.4225   -5.0405   -0.2384 H   0  0  0  0  0  0  0  0  0  0  0  0
    8.6252   -2.5898   -0.0736 H   0  0  0  0  0  0  0  0  0  0  0  0
    7.3279   -6.8520   -2.5771 H   0  0  0  0  0  0  0  0  0  0  0  0
    5.6651   -6.8021   -1.9764 H   0  0  0  0  0  0  0  0  0  0  0  0
    7.0058   -6.9798   -0.8426 H   0  0  0  0  0  0  0  0  0  0  0  0
    4.4719    0.0575   -2.1911 H   0  0  0  0  0  0  0  0  0  0  0  0
    2.0275    0.0469   -2.1653 H   0  0  0  0  0  0  0  0  0  0  0  0
    3.4323    2.3171    3.2098 H   0  0  0  0  0  0  0  0  0  0  0  0
    2.1245    2.7503    5.2783 H   0  0  0  0  0  0  0  0  0  0  0  0
    1.8162    0.9445    6.9531 H   0  0  0  0  0  0  0  0  0  0  0  0
    2.8314   -1.2901    6.5770 H   0  0  0  0  0  0  0  0  0  0  0  0
    4.1626   -1.7201    4.5207 H   0  0  0  0  0  0  0  0  0  0  0  0
  1  2  1  0  0  0  0
  2  3  2  0  0  0  0
  3  4  1  0  0  0  0
  3 27  1  0  0  0  0
  4 19  1  0  0  0  0
  5  6  1  0  0  0  0
  5  4  2  0  0  0  0
  6 28  1  0  0  0  0
  7  9  2  0  0  0  0
  7  6  1  0  0  0  0
  8  7  2  0  0  0  0
 10  7  1  0  0  0  0
 10 15  2  0  0  0  0
 11 10  1  0  0  0  0
 12 11  2  0  0  0  0
 12 13  1  0  0  0  0
 13 14  2  0  0  0  0
 14 15  1  0  0  0  0
 14 31  1  0  0  0  0
 15 32  1  0  0  0  0
 16 13  1  0  0  0  0
 16 35  1  0  0  0  0
 17 18  2  0  0  0  0
 17  5  1  0  0  0  0
 18  2  1  0  0  0  0
 19 20  2  0  0  0  0
 19 21  1  0  0  0  0
 21 22  2  0  0  0  0
 21 26  1  0  0  0  0
 22 23  1  0  0  0  0
 23 39  1  0  0  0  0
 23 24  2  0  0  0  0
 24 40  1  0  0  0  0
 25 24  1  0  0  0  0
 25 41  1  0  0  0  0
 26 25  2  0  0  0  0
 29 11  1  0  0  0  0
 30 12  1  0  0  0  0
 33 16  1  0  0  0  0
 34 16  1  0  0  0  0
 36 17  1  0  0  0  0
 37 18  1  0  0  0  0
 38 22  1  0  0  0  0
 42 26  1  0  0  0  0
M  END
$$$$
