
     RDKit          3D

 42 44  0  0  0  0  0  0  0  0999 V2000
    0.1979    0.2066   -0.6701 Br  0  0  0  0  0  0  0  0  0  0  0  0
    2.0811   -0.0562   -0.5527 C   0  0  0  0  0  0  0  0  0  0  0  0
    2.7206    0.0687    0.6739 C   0  0  0  0  0  0  0  0  0  0  0  0
    4.1149   -0.1008    0.7832 C   0  0  0  0  0  0  0  0  0  0  0  0
    4.8667   -0.3875   -0.3920 C   0  0  0  0  0  0  0  0  0  0  0  0
    6.2543   -0.5190   -0.3254 N   0  0  0  0  0  0  0  0  0  0  0  0
    7.2894    0.1198   -1.5141 S   0  0  0  0  0  0  0  0  0  0  0  0
    8.5982    0.1152   -0.8706 O   0  0  0  0  0  0  0  0  0  0  0  0
    7.0512   -0.5748   -2.7791 O   0  0  0  0  0  0  0  0  0  0  0  0
    6.7122    1.8032   -1.6925 C   0  0  0  0  0  0  0  0  0  0  0  0
    6.6579    2.6256   -0.5616 C   0  0  0  0  0  0  0  0  0  0  0  0
    6.2087    3.9342   -0.7056 C   0  0  0  0  0  0  0  0  0  0  0  0
    5.8191    4.4383   -1.9608 C   0  0  0  0  0  0  0  0  0  0  0  0
    5.8873    3.5883   -3.0729 C   0  0  0  0  0  0  0  0  0  0  0  0
    6.3295    2.2689   -2.9479 C   0  0  0  0  0  0  0  0  0  0  0  0
    5.3385    5.8598   -2.0906 C   0  0  0  0  0  0  0  0  0  0  0  0
    4.1912   -0.5477   -1.6162 C   0  0  0  0  0  0  0  0  0  0  0  0
    2.8145   -0.3776   -1.6999 C   0  0  0  0  0  0  0  0  0  0  0  0
    4.7884    0.0975    2.0996 C   0  0  0  0  0  0  0  0  0  0  0  0
    5.9770    0.4101    2.1702 O   0  0  0  0  0  0  0  0  0  0  0  0
    4.0176   -0.0779    3.3701 C   0  0  0  0  0  0  0  0  0  0  0  0
    4.3845    0.7105    4.4740 C   0  0  0  0  0  0  0  0  0  0  0  0
    3.7404    0.5508    5.6988 C   0  0  0  0  0  0  0  0  0  0  0  0
    2.7435   -0.4207    5.8439 C   0  0  0  0  0  0  0  0  0  0  0  0
    2.3950   -1.2315    4.7604 C   0  0  0  0  0  0  0  0  0  0  0  0
    3.0233   -1.0587    3.5258 C   0  0  0  0  0  0  0  0  0  0  0  0
    2.1408    0.3339    1.5561 H   0  0  0  0  0  0  0  0  0  0  0  0
    6.6327   -0.2953    0.6015 H   0  0  0  0  0  0  0  0  0  0  0  0
    6.9414    2.2385    0.4193 H   0  0  0  0  0  0  0  0  0  0  0  0
    6.1563    4.5823    0.1732 H   0  0  0  0  0  0  0  0  0  0  0  0
    5.5859    3.9617   -4.0548 H   0  0  0  0  0  0  0  0  0  0  0  0
    6.3785    1.5994   -3.8075 H   0  0  0  0  0  0  0  0  0  0  0  0
    5.0505    6.0979   -3.1244 H   0  0  0  0  0  0  0  0  0  0  0  0
    6.1228    6.5711   -1.7834 H   0  0  0  0  0  0  0  0  0  0  0  0
    4.4659    6.0432   -1.4425 H   0  0  0  0  0  0  0  0  0  0  0  0
    4.7682   -0.8045   -2.5036 H   0  0  0  0  0  0  0  0  0  0  0  0
    2.3082   -0.4945   -2.6593 H   0  0  0  0  0  0  0  0  0  0  0  0
    5.1818    1.4451    4.3496 H   0  0  0  0  0  0  0  0  0  0  0  0
    4.0196    1.1793    6.5476 H   0  0  0  0  0  0  0  0  0  0  0  0
    2.2433   -0.5512    6.8065 H   0  0  0  0  0  0  0  0  0  0  0  0
    1.6327   -2.0051    4.8769 H   0  0  0  0  0  0  0  0  0  0  0  0
    2.7591   -1.7069    2.6890 H   0  0  0  0  0  0  0  0  0  0  0  0
  1  2  1  0
  2  3  2  0
  2 18  1  0
  3  4  1  0
  3 27  1  0
  4  5  2  0
  4 19  1  0
  5  6  1  0
  5 17  1  0
  7  6  1  0
  6 28  1  0
  7  8  2  0
  7  9  2  0
  7 10  1  0
 10 11  2  0
 10 15  1  0
 11 12  1  0
 11 29  1  0
 12 13  2  0
 12 30  1  0
 13 14  1  0
 13 16  1  0
 14 15  2  0
 14 31  1  0
 15 32  1  0
 16 33  1  0
 16 34  1  0
 16 35  1  0
 17 18  2  0
 17 36  1  0
 18 37  1  0
 19 20  2  0
 19 21  1  0
 21 22  2  0
 21 26  1  0
 22 23  1  0
 22 38  1  0
 23 24  2  0
 23 39  1  0
 24 25  1  0
 24 40  1  0
 25 26  2  0
 25 41  1  0
 26 42  1  0
M  END

