rmsd16.gzmat
 OpenBabel08211713413D

 42 44  0  0  0  0  0  0  0  0999 V2000
    0.0000    0.0000    0.0000 Br  0  0  0  0  0  0  0  0  0  0  0  0
    1.8943    0.0000    0.0000 C   0  0  0  0  0  0  0  0  0  0  0  0
    2.5729    0.0000    1.1999 C   0  0  0  0  0  0  0  0  0  0  0  0
    3.9752   -0.0017    1.2175 C   0  0  0  0  0  0  0  0  0  0  0  0
    4.6897    0.0511   -0.0114 C   0  0  0  0  0  0  0  0  0  0  0  0
    6.0625    0.1539   -0.0014 N   0  0  0  0  0  0  0  0  0  0  0  0
    7.1639    0.3747   -1.3549 S   0  0  0  0  0  0  0  0  0  0  0  0
    8.4325   -0.0311   -0.8113 O   0  0  0  0  0  0  0  0  0  0  0  0
    6.5836   -0.2495   -2.5142 O   0  0  0  0  0  0  0  0  0  0  0  0
    7.1402    2.1089   -1.5576 C   0  0  0  0  0  0  0  0  0  0  0  0
    6.2784    2.6986   -2.4819 C   0  0  0  0  0  0  0  0  0  0  0  0
    6.2448    4.0834   -2.6185 C   0  0  0  0  0  0  0  0  0  0  0  0
    7.0775    4.8868   -1.8341 C   0  0  0  0  0  0  0  0  0  0  0  0
    7.9487    4.2903   -0.9164 C   0  0  0  0  0  0  0  0  0  0  0  0
    7.9809    2.9065   -0.7804 C   0  0  0  0  0  0  0  0  0  0  0  0
    7.0502    6.3684   -1.9725 C   0  0  0  0  0  0  0  0  0  0  0  0
    3.9557    0.0058   -1.2276 C   0  0  0  0  0  0  0  0  0  0  0  0
    2.5774   -0.0154   -1.2206 C   0  0  0  0  0  0  0  0  0  0  0  0
    4.6617   -0.0399    2.5170 C   0  0  0  0  0  0  0  0  0  0  0  0
    5.8258    0.2895    2.6486 O   0  0  0  0  0  0  0  0  0  0  0  0
    3.9101   -0.5032    3.7125 C   0  0  0  0  0  0  0  0  0  0  0  0
    3.9296    0.2803    4.8659 C   0  0  0  0  0  0  0  0  0  0  0  0
    3.2567   -0.1560    6.0058 C   0  0  0  0  0  0  0  0  0  0  0  0
    2.5805   -1.3748    5.9922 C   0  0  0  0  0  0  0  0  0  0  0  0
    2.5760   -2.1622    4.8408 C   0  0  0  0  0  0  0  0  0  0  0  0
    3.2420   -1.7279    3.6974 C   0  0  0  0  0  0  0  0  0  0  0  0
    2.0257    0.0064    2.1492 H   0  0  0  0  0  0  0  0  0  0  0  0
    6.5091    0.1231    0.9366 H   0  0  0  0  0  0  0  0  0  0  0  0
    5.6228    2.0876   -3.1131 H   0  0  0  0  0  0  0  0  0  0  0  0
    5.5684    4.5406   -3.3369 H   0  0  0  0  0  0  0  0  0  0  0  0
    8.6014    4.9107   -0.3064 H   0  0  0  0  0  0  0  0  0  0  0  0
    8.6764    2.4592   -0.0595 H   0  0  0  0  0  0  0  0  0  0  0  0
    7.9752    6.7403   -2.4417 H   0  0  0  0  0  0  0  0  0  0  0  0
    6.9643    6.8683   -0.9952 H   0  0  0  0  0  0  0  0  0  0  0  0
    6.2139    6.7284   -2.5876 H   0  0  0  0  0  0  0  0  0  0  0  0
    4.4725   -0.0461   -2.1900 H   0  0  0  0  0  0  0  0  0  0  0  0
    2.0300   -0.0481   -2.1654 H   0  0  0  0  0  0  0  0  0  0  0  0
    4.4765    1.2240    4.8739 H   0  0  0  0  0  0  0  0  0  0  0  0
    3.2673    0.4521    6.9077 H   0  0  0  0  0  0  0  0  0  0  0  0
    2.0575   -1.7158    6.8842 H   0  0  0  0  0  0  0  0  0  0  0  0
    2.0525   -3.1164    4.8347 H   0  0  0  0  0  0  0  0  0  0  0  0
    3.2441   -2.3428    2.7969 H   0  0  0  0  0  0  0  0  0  0  0  0
  1  2  1  0  0  0  0
  2  3  2  0  0  0  0
  3  4  1  0  0  0  0
  3 27  1  0  0  0  0
  4 19  1  0  0  0  0
  5  6  1  0  0  0  0
  5  4  2  0  0  0  0
  6 28  1  0  0  0  0
  7  8  2  0  0  0  0
  7  6  1  0  0  0  0
  9  7  2  0  0  0  0
 10  7  1  0  0  0  0
 10 15  2  0  0  0  0
 11 10  1  0  0  0  0
 12 11  2  0  0  0  0
 12 13  1  0  0  0  0
 13 14  2  0  0  0  0
 14 15  1  0  0  0  0
 14 31  1  0  0  0  0
 15 32  1  0  0  0  0
 16 13  1  0  0  0  0
 16 34  1  0  0  0  0
 17 18  2  0  0  0  0
 17  5  1  0  0  0  0
 18  2  1  0  0  0  0
 19 20  2  0  0  0  0
 19 21  1  0  0  0  0
 21 22  1  0  0  0  0
 22 38  1  0  0  0  0
 22 23  2  0  0  0  0
 23 39  1  0  0  0  0
 24 23  1  0  0  0  0
 24 40  1  0  0  0  0
 25 24  2  0  0  0  0
 26 21  2  0  0  0  0
 26 25  1  0  0  0  0
 29 11  1  0  0  0  0
 30 12  1  0  0  0  0
 33 16  1  0  0  0  0
 35 16  1  0  0  0  0
 36 17  1  0  0  0  0
 37 18  1  0  0  0  0
 41 25  1  0  0  0  0
 42 26  1  0  0  0  0
M  END
$$$$
