42
rmsd192.gzmat
Br         0.00000        0.00000        0.00000
C          1.89420        0.00000        0.00000
C          2.57220        0.00000        1.20040
C          3.97430        0.00930        1.21770
C          4.68830        0.07250       -0.01040
N          6.05780        0.21520       -0.00200
S          7.16130        0.24790       -1.37050
O          8.43840        0.01910       -0.74930
O          6.63110       -0.61450       -2.39340
C          7.05290        1.90350       -1.91640
C          7.60920        2.92850       -1.15000
C          7.53280        4.24650       -1.58880
C          6.90360        4.54900       -2.80100
C          6.34940        3.51900       -3.56680
C          6.42390        2.20110       -3.12520
C          6.82290        5.96230       -3.26200
C          3.95630        0.01680       -1.22740
C          2.57790       -0.01290       -1.22040
C          4.66140       -0.03400        2.51680
O          5.82040        0.30930        2.65310
C          3.91170       -0.52280        3.70320
C          3.88040        0.26350        4.85380
C          3.20520       -0.19630        5.98340
C          2.57810       -1.44080        5.96160
C          2.62370       -2.23010        4.81210
C          3.29190       -1.77280        3.67910
H          2.02530       -0.00400        2.15000
H          6.50470        0.21650        0.93690
H          8.11630        2.71390       -0.20240
H          7.96640        5.04410       -0.98910
H          5.86020        3.74620       -4.51130
H          5.98870        1.40770       -3.74560
H          6.61380        6.05070       -4.33740
H          7.75600        6.51440       -3.07350
H          6.02020        6.50260       -2.73360
H          4.47410       -0.03080       -2.18710
H          2.03080       -0.04870       -2.16510
H          4.38880        1.22840        4.86890
H          3.17590        0.41430        6.88350
H          2.05370       -1.80010        6.84530
H          2.13860       -3.20440        4.79980
H          3.33480       -2.38880        2.78070
