42

Br         0.26960       -0.11360       -0.78210
C          2.14570        0.19830       -0.67110
C          2.79820        0.05830        0.54700
C          4.18810        0.26350        0.65070
C          4.92220        0.60260       -0.52170
N          6.30620        0.77080       -0.46190
S          7.34850        0.19030       -1.67420
O          7.08130        0.90980       -2.91940
O          8.66190        0.21440       -1.04060
C          6.81540       -1.50310       -1.89080
C          6.79040       -2.35430       -0.78030
C          6.37580       -3.67060       -0.95420
C          5.99190       -4.15400       -2.21930
C          6.02990       -3.27520       -3.31030
C          6.43730       -1.94790       -3.15510
C          5.54870       -5.58440       -2.38160
C          4.23280        0.77700       -1.73610
C          2.86070        0.57090       -1.81450
C          4.87730        0.04840        1.95630
O          6.07460       -0.23280        2.00970
C          4.11210        0.16790        3.23660
C          3.09250        1.11620        3.42620
C          2.46960        1.23810        4.66960
C          2.84890        0.40820        5.72800
C          3.87100       -0.53100        5.54930
C          4.50940       -0.63960        4.31600
H          2.23300       -0.24690        1.42570
H          6.69820        0.53380        0.45590
H          7.06960       -1.98390        0.20830
H          6.34650       -4.34140       -0.09150
H          5.73240       -3.63230       -4.29940
H          6.46250       -1.25630       -3.99810
H          6.35300       -6.28160       -2.09440
H          5.26270       -5.80520       -3.41970
H          4.68410       -5.80640       -1.73480
H          4.79540        1.07360       -2.62030
H          2.34370        0.69950       -2.76670
H          2.80380        1.77920        2.60930
H          1.68730        1.98680        4.81270
H          2.35310        0.49880        6.69740
H          4.17410       -1.17430        6.37860
H          5.32550       -1.34820        4.16580
