42
rmsd16.gzmat
Br         0.00000        0.00000        0.00000
C          1.89430        0.00000        0.00000
C          2.57290        0.00000        1.19990
C          3.97520       -0.00170        1.21750
C          4.68970        0.05110       -0.01140
N          6.06250        0.15390       -0.00140
S          7.16390        0.37470       -1.35490
O          8.43250       -0.03110       -0.81130
O          6.58360       -0.24950       -2.51420
C          7.14020        2.10890       -1.55760
C          6.27840        2.69860       -2.48190
C          6.24480        4.08340       -2.61850
C          7.07750        4.88680       -1.83410
C          7.94870        4.29030       -0.91640
C          7.98090        2.90650       -0.78040
C          7.05020        6.36840       -1.97250
C          3.95570        0.00580       -1.22760
C          2.57740       -0.01540       -1.22060
C          4.66170       -0.03990        2.51700
O          5.82580        0.28950        2.64860
C          3.91010       -0.50320        3.71250
C          3.92960        0.28030        4.86590
C          3.25670       -0.15600        6.00580
C          2.58050       -1.37480        5.99220
C          2.57600       -2.16220        4.84080
C          3.24200       -1.72790        3.69740
H          2.02570        0.00640        2.14920
H          6.50910        0.12310        0.93660
H          5.62280        2.08760       -3.11310
H          5.56840        4.54060       -3.33690
H          8.60140        4.91070       -0.30640
H          8.67640        2.45920       -0.05950
H          7.97520        6.74030       -2.44170
H          6.96430        6.86830       -0.99520
H          6.21390        6.72840       -2.58760
H          4.47250       -0.04610       -2.19000
H          2.03000       -0.04810       -2.16540
H          4.47650        1.22400        4.87390
H          3.26730        0.45210        6.90770
H          2.05750       -1.71580        6.88420
H          2.05250       -3.11640        4.83470
H          3.24410       -2.34280        2.79690
