40

S          0.14260       -0.06770        0.16240
O          1.62610       -0.09390        0.39080
O         -0.17930        0.14040       -1.45320
C         -0.38600       -1.84770        0.23800
H          0.10730       -2.37390       -0.59480
N         -0.17940       -2.41170        1.56150
C         -1.53520       -2.66170        1.78910
O         -2.11680       -3.18010        2.69860
C         -1.90580       -2.04570        0.42190
C          1.02000       -2.82360        2.18280
C          1.24950       -2.67030        3.49990
C          2.48590       -3.22940        4.14490
C          0.26890       -1.96670        4.39790
C          1.94900       -3.51310        1.20190
O          1.83090       -4.69530        0.91530
N          2.85020       -2.67190        0.62400
C          3.54000       -3.06570       -0.59850
C          2.65770       -2.81440       -1.80530
C          2.69970       -1.58420       -2.47440
C          1.79640       -1.30090       -3.50540
C          0.83120       -2.24670       -3.87230
C          0.78790       -3.48030       -3.21430
C          1.69630       -3.76400       -2.19090
H          0.40550       -0.43740       -1.99070
H         -2.36650       -2.75610       -0.27780
H         -2.50820       -1.12620        0.46960
H          3.05450       -2.42720        4.64580
H          3.14990       -3.73500        3.43120
H          2.21110       -3.95760        4.92770
H         -0.49120       -2.66750        4.78050
H         -0.27350       -1.17670        3.85770
H          0.78460       -1.51380        5.25840
H          2.66390       -1.67140        0.73660
H          3.78960       -4.13130       -0.51510
H          4.47460       -2.49150       -0.67600
H          3.43090       -0.83080       -2.17210
H          1.84860       -0.34130       -4.02620
H          0.12270       -2.02430       -4.67340
H          0.04220       -4.22600       -3.49990
H          1.64950       -4.71420       -1.65540
