40
rmsd146.gzmat
S          0.00000        0.00000        0.00000
O          1.47420        0.00000        0.00000
O         -0.41650        0.00000       -1.61390
C         -0.41750       -1.78890        0.26640
H          0.09660       -2.45230       -0.45320
N         -0.19280       -2.09060        1.71380
C         -1.54730       -2.50960        1.91290
O         -2.10730       -2.92980        2.87180
C         -1.92350       -2.10770        0.47080
C          0.96810       -2.69290        2.23510
C          1.24600       -2.71960        3.55520
C          2.48350       -3.37050        4.06770
C          0.34170       -2.11980        4.57190
C          1.87610       -3.32230        1.21920
O          1.82810       -4.50600        0.94590
N          2.79030       -2.47330        0.63070
C          3.51040       -2.94200       -0.56140
C          2.65650       -2.71680       -1.78560
C          2.79700       -1.55150       -2.53820
C          1.96360       -1.32670       -3.63290
C          0.98680       -2.26170       -3.97010
C          0.84750       -3.42760       -3.21760
C          1.68350       -3.65740       -2.12870
H          0.25740       -0.28170       -2.25680
H         -2.30290       -2.94190       -0.13260
H         -2.63750       -1.28430        0.38600
H          3.30780       -2.64390        4.14060
H          2.83400       -4.18950        3.41710
H          2.33760       -3.80600        5.06650
H          0.85890       -1.86800        5.50540
H         -0.47780       -2.81900        4.82120
H         -0.14430       -1.20180        4.20590
H          2.68130       -1.45970        0.71590
H          3.76410       -4.02590       -0.44460
H          4.47740       -2.39250       -0.62680
H          3.54740       -0.81040       -2.26390
H          2.08590       -0.42550       -4.23060
H          0.33780       -2.08680       -4.82640
H          0.08970       -4.16170       -3.48610
H          1.58060       -4.57100       -1.53530
