rmsd180.gzmat
 OpenBabel08211713413D

 40 40  0  0  1  0  0  0  0  0999 V2000
    0.0000    0.0000    0.0000 S   0  0  0  0  0  0  0  0  0  0  0  0
    1.4736    0.0000    0.0000 O   0  0  0  0  0  0  0  0  0  0  0  0
   -0.4263    0.0000   -1.6114 O   0  0  0  0  0  0  0  0  0  0  0  0
   -0.4185   -1.7899    0.2592 C   0  0  1  0  0  0  0  0  0  0  0  0
    0.1027   -2.4501   -0.4583 H   0  0  0  0  0  0  0  0  0  0  0  0
   -0.2150   -2.1092    1.7064 N   0  0  0  0  0  0  0  0  0  0  0  0
   -1.5747   -2.5255    1.8792 C   0  0  0  0  0  0  0  0  0  0  0  0
   -2.1524   -2.9608    2.8206 O   0  0  0  0  0  0  0  0  0  0  0  0
   -1.9292   -2.1015    0.4385 C   0  0  0  0  0  0  0  0  0  0  0  0
    0.9327   -2.7286    2.2379 C   0  0  0  0  0  0  0  0  0  0  0  0
    1.1739   -2.8055    3.5636 C   0  0  0  0  0  0  0  0  0  0  0  0
    2.3988   -3.4740    4.0842 C   0  0  0  0  0  0  0  0  0  0  0  0
    0.2412   -2.2469    4.5773 C   0  0  0  0  0  0  0  0  0  0  0  0
    1.8720   -3.3301    1.2338 C   0  0  0  0  0  0  0  0  0  0  0  0
    1.8595   -4.5154    0.9626 O   0  0  0  0  0  0  0  0  0  0  0  0
    2.7754   -2.4612    0.6591 N   0  0  0  0  0  0  0  0  0  0  0  0
    3.5244   -2.9152   -0.5213 C   0  0  0  0  0  0  0  0  0  0  0  0
    2.6727   -2.7305   -1.7537 C   0  0  0  0  0  0  0  0  0  0  0  0
    2.7924   -1.5778   -2.5289 C   0  0  0  0  0  0  0  0  0  0  0  0
    1.9525   -1.3881   -3.6254 C   0  0  0  0  0  0  0  0  0  0  0  0
    0.9904   -2.3454   -3.9422 C   0  0  0  0  0  0  0  0  0  0  0  0
    0.8748   -3.5005   -3.1694 C   0  0  0  0  0  0  0  0  0  0  0  0
    1.7175   -3.6957   -2.0788 C   0  0  0  0  0  0  0  0  0  0  0  0
    0.2234   -0.3243   -2.2582 H   0  0  0  0  0  0  0  0  0  0  0  0
   -2.3076   -2.9242   -0.1814 H   0  0  0  0  0  0  0  0  0  0  0  0
   -2.6370   -1.2721    0.3557 H   0  0  0  0  0  0  0  0  0  0  0  0
    3.2296   -2.7567    4.1733 H   0  0  0  0  0  0  0  0  0  0  0  0
    2.7468   -4.2905    3.4286 H   0  0  0  0  0  0  0  0  0  0  0  0
    2.2384   -3.9187    5.0766 H   0  0  0  0  0  0  0  0  0  0  0  0
   -0.6118   -2.9324    4.7384 H   0  0  0  0  0  0  0  0  0  0  0  0
   -0.1960   -1.2892    4.2548 H   0  0  0  0  0  0  0  0  0  0  0  0
    0.7183   -2.0818    5.5504 H   0  0  0  0  0  0  0  0  0  0  0  0
    2.6459   -1.4500    0.7421 H   0  0  0  0  0  0  0  0  0  0  0  0
    3.8157   -3.9879   -0.3914 H   0  0  0  0  0  0  0  0  0  0  0  0
    4.4719   -2.3327   -0.5834 H   0  0  0  0  0  0  0  0  0  0  0  0
    3.5308   -0.8188   -2.2709 H   0  0  0  0  0  0  0  0  0  0  0  0
    2.0575   -0.4961   -4.2401 H   0  0  0  0  0  0  0  0  0  0  0  0
    0.3353   -2.1968   -4.7986 H   0  0  0  0  0  0  0  0  0  0  0  0
    0.1302   -4.2535   -3.4224 H   0  0  0  0  0  0  0  0  0  0  0  0
    1.6323   -4.6007   -1.4695 H   0  0  0  0  0  0  0  0  0  0  0  0
  1  2  2  0  0  0  0
  1  4  1  0  0  0  0
  4  5  1  6  0  0  0
  4  9  1  0  0  0  0
  4  6  1  0  0  0  0
  6  7  1  0  0  0  0
  6 10  1  0  0  0  0
  7  8  2  0  0  0  0
  9  7  1  0  0  0  0
 10 11  2  0  0  0  0
 11 12  1  0  0  0  0
 11 13  1  0  0  0  0
 12 27  1  0  0  0  0
 12 29  1  0  0  0  0
 13 30  1  0  0  0  0
 13 32  1  0  0  0  0
 14 10  1  0  0  0  0
 15 14  2  0  0  0  0
 16 33  1  0  0  0  0
 16 14  1  0  0  0  0
 17 34  1  0  0  0  0
 17 16  1  0  0  0  0
 18 17  1  0  0  0  0
 19 36  1  0  0  0  0
 19 18  2  0  0  0  0
 20 19  1  0  0  0  0
 21 20  2  0  0  0  0
 21 22  1  0  0  0  0
 22 23  2  0  0  0  0
 23 18  1  0  0  0  0
 23 40  1  0  0  0  0
 24  3  1  0  0  0  0
 25  9  1  0  0  0  0
 26  9  1  0  0  0  0
 28 12  1  0  0  0  0
 31 13  1  0  0  0  0
 35 17  1  0  0  0  0
 37 20  1  0  0  0  0
 38 21  1  0  0  0  0
 39 22  1  0  0  0  0
M  RAD  1   3   2
M  END
$$$$
