40
rmsd122.gzmat
S          0.00000        0.00000        0.00000
O          1.47410        0.00000        0.00000
O         -0.42480        0.00000       -1.61120
C         -0.41640       -1.78970        0.26710
H          0.10440       -2.45410       -0.44620
N         -0.20450       -2.08820        1.71770
C         -1.56270       -2.50370        1.90430
O         -2.13340       -2.92270        2.85730
C         -1.92460       -2.10530        0.45810
C          0.94560       -2.70490        2.24600
C          1.21000       -2.74950        3.56880
C          2.43520       -3.43000        4.07290
C          0.30480       -2.14560        4.58120
C          1.86570       -3.33060        1.23880
O          1.82750       -4.51360        0.96340
N          2.78340       -2.47610        0.66370
C          3.52190       -2.93920       -0.51930
C          2.68640       -2.70580       -1.75440
C          1.72760       -3.64940       -2.12740
C          0.90720       -3.40950       -3.22640
C          1.04870       -2.23160       -3.95920
C          2.01250       -1.29410       -3.59220
C          2.82940       -1.52810       -2.48720
H          0.23170       -0.30800       -2.25890
H         -2.30110       -2.94110       -0.14470
H         -2.63620       -1.28080        0.36370
H          3.32530       -2.79540        3.93720
H          2.63200       -4.37490        3.53590
H          2.37040       -3.68070        5.14010
H         -0.55310       -2.81360        4.78260
H         -0.12770       -1.19440        4.23230
H          0.80260       -1.94930        5.53810
H          2.66590       -1.46300        0.74580
H          3.77420       -4.02360       -0.40430
H          4.49000       -2.38950       -0.56680
H          1.62410       -4.57370       -1.55120
H          0.16120       -4.14630       -3.51890
H          0.41380       -2.04970       -4.82450
H          2.13710       -0.38310       -4.17420
H          3.56730       -0.78390       -2.18830
