40
rmsd224.gzmat
S          0.00000        0.00000        0.00000
O          1.47400        0.00000        0.00000
O         -0.42060        0.00000       -1.61240
C         -0.41220       -1.79080        0.26350
H          0.12020       -2.45230       -0.44480
N         -0.21540       -2.09150        1.71530
C         -1.57160       -2.51910        1.88550
O         -2.14890       -2.94580        2.83090
C         -1.92060       -2.11570        0.43720
C          0.93510       -2.69330        2.26030
C          1.18520       -2.71800        3.58620
C          2.41040       -3.37130        4.12360
C          0.26180       -2.10980        4.58010
C          1.86430       -3.32900        1.26830
O          1.83890       -4.51860        1.01970
N          2.77290       -2.47960        0.67210
C          3.50840       -2.96420       -0.50430
C          2.64790       -2.80210       -1.73390
C          2.71440       -1.63230       -2.48990
C          1.87450       -1.46670       -3.58970
C          0.96660       -2.46770       -3.93120
C          0.90080       -3.63740       -3.17500
C          1.74090       -3.80600       -2.07760
H          0.23550       -0.31890       -2.25470
H         -2.28520       -2.94980       -0.17560
H         -2.63620       -1.29450        0.34080
H          3.24730       -2.65720        4.17060
H          2.74700       -4.21790        3.50100
H          2.25820       -3.76990        5.13630
H         -0.58630       -2.78830        4.78760
H         -0.18240       -1.17200        4.21160
H          0.74940       -1.88910        5.53660
H          2.65420       -1.46610        0.73820
H          3.79400       -4.03540       -0.35200
H          4.45930       -2.39050       -0.58850
H          3.41180       -0.84160       -2.21280
H          1.93850       -0.56030       -4.18880
H          0.31490       -2.34100       -4.79390
H          0.19710       -4.42230       -3.44690
H          1.68990       -4.71940       -1.47700
