rmsd186.gzmat
 OpenBabel08211713413D

 40 40  0  0  1  0  0  0  0  0999 V2000
    0.0000    0.0000    0.0000 S   0  0  0  0  0  0  0  0  0  0  0  0
    1.4741    0.0000    0.0000 O   0  0  0  0  0  0  0  0  0  0  0  0
   -0.4187    0.0000   -1.6133 O   0  0  0  0  0  0  0  0  0  0  0  0
   -0.4138   -1.7899    0.2678 C   0  0  1  0  0  0  0  0  0  0  0  0
    0.0981   -2.4505   -0.4559 H   0  0  0  0  0  0  0  0  0  0  0  0
   -0.1794   -2.0945    1.7133 N   0  0  0  0  0  0  0  0  0  0  0  0
   -1.5305   -2.5211    1.9185 C   0  0  0  0  0  0  0  0  0  0  0  0
   -2.0839   -2.9500    2.8774 O   0  0  0  0  0  0  0  0  0  0  0  0
   -1.9173   -2.1141    0.4804 C   0  0  0  0  0  0  0  0  0  0  0  0
    0.9880   -2.6926    2.2252 C   0  0  0  0  0  0  0  0  0  0  0  0
    1.2838   -2.7068    3.5416 C   0  0  0  0  0  0  0  0  0  0  0  0
    2.5263   -3.3565    4.0436 C   0  0  0  0  0  0  0  0  0  0  0  0
    0.3974   -2.0870    4.5619 C   0  0  0  0  0  0  0  0  0  0  0  0
    1.8875   -3.3256    1.2039 C   0  0  0  0  0  0  0  0  0  0  0  0
    1.8391   -4.5089    0.9305 O   0  0  0  0  0  0  0  0  0  0  0  0
    2.7994   -2.4762    0.6126 N   0  0  0  0  0  0  0  0  0  0  0  0
    3.5219   -2.9444   -0.5781 C   0  0  0  0  0  0  0  0  0  0  0  0
    2.6800   -2.6913   -1.8050 C   0  0  0  0  0  0  0  0  0  0  0  0
    2.8537   -1.5231   -2.5463 C   0  0  0  0  0  0  0  0  0  0  0  0
    2.0246   -1.2613   -3.6358 C   0  0  0  0  0  0  0  0  0  0  0  0
    1.0210   -2.1645   -3.9818 C   0  0  0  0  0  0  0  0  0  0  0  0
    0.8533   -3.3365   -3.2448 C   0  0  0  0  0  0  0  0  0  0  0  0
    1.6839   -3.6025   -2.1595 C   0  0  0  0  0  0  0  0  0  0  0  0
    0.2460   -0.3022   -2.2564 H   0  0  0  0  0  0  0  0  0  0  0  0
   -2.2989   -2.9470   -0.1237 H   0  0  0  0  0  0  0  0  0  0  0  0
   -2.6346   -1.2928    0.4043 H   0  0  0  0  0  0  0  0  0  0  0  0
    3.3501   -2.6285    4.1083 H   0  0  0  0  0  0  0  0  0  0  0  0
    2.8716   -4.1759    3.3910 H   0  0  0  0  0  0  0  0  0  0  0  0
    2.3901   -3.7915    5.0437 H   0  0  0  0  0  0  0  0  0  0  0  0
   -0.4691   -2.7404    4.7739 H   0  0  0  0  0  0  0  0  0  0  0  0
   -0.0209   -1.1289    4.2147 H   0  0  0  0  0  0  0  0  0  0  0  0
    0.9085   -1.8970    5.5135 H   0  0  0  0  0  0  0  0  0  0  0  0
    2.6903   -1.4626    0.6987 H   0  0  0  0  0  0  0  0  0  0  0  0
    3.7595   -4.0325   -0.4709 H   0  0  0  0  0  0  0  0  0  0  0  0
    4.4968   -2.4079   -0.6303 H   0  0  0  0  0  0  0  0  0  0  0  0
    3.6273   -0.8084   -2.2675 H   0  0  0  0  0  0  0  0  0  0  0  0
    2.1698   -0.3552   -4.2210 H   0  0  0  0  0  0  0  0  0  0  0  0
    0.3756   -1.9612   -4.8344 H   0  0  0  0  0  0  0  0  0  0  0  0
    0.0768   -4.0472   -3.5223 H   0  0  0  0  0  0  0  0  0  0  0  0
    1.5586   -4.5214   -1.5790 H   0  0  0  0  0  0  0  0  0  0  0  0
  1  2  2  0  0  0  0
  1  4  1  0  0  0  0
  4  5  1  6  0  0  0
  4  9  1  0  0  0  0
  4  6  1  0  0  0  0
  6  7  1  0  0  0  0
  6 10  1  0  0  0  0
  7  8  2  0  0  0  0
  9  7  1  0  0  0  0
 10 11  2  0  0  0  0
 11 12  1  0  0  0  0
 11 13  1  0  0  0  0
 12 27  1  0  0  0  0
 12 29  1  0  0  0  0
 13 30  1  0  0  0  0
 13 32  1  0  0  0  0
 14 10  1  0  0  0  0
 15 14  2  0  0  0  0
 16 33  1  0  0  0  0
 16 14  1  0  0  0  0
 17 34  1  0  0  0  0
 17 16  1  0  0  0  0
 18 17  1  0  0  0  0
 19 36  1  0  0  0  0
 19 18  2  0  0  0  0
 20 19  1  0  0  0  0
 21 20  2  0  0  0  0
 21 22  1  0  0  0  0
 22 23  2  0  0  0  0
 23 18  1  0  0  0  0
 23 40  1  0  0  0  0
 24  3  1  0  0  0  0
 25  9  1  0  0  0  0
 26  9  1  0  0  0  0
 28 12  1  0  0  0  0
 31 13  1  0  0  0  0
 35 17  1  0  0  0  0
 37 20  1  0  0  0  0
 38 21  1  0  0  0  0
 39 22  1  0  0  0  0
M  RAD  1   3   2
M  END
$$$$
