rmsd233.gzmat
 OpenBabel08211713413D

 40 40  0  0  1  0  0  0  0  0999 V2000
    0.0000    0.0000    0.0000 S   0  0  0  0  0  0  0  0  0  0  0  0
    1.4736    0.0000    0.0000 O   0  0  0  0  0  0  0  0  0  0  0  0
   -0.4204    0.0000   -1.6127 O   0  0  0  0  0  0  0  0  0  0  0  0
   -0.4242   -1.7871    0.2677 C   0  0  1  0  0  0  0  0  0  0  0  0
    0.0594   -2.4498   -0.4734 H   0  0  0  0  0  0  0  0  0  0  0  0
   -0.1576   -2.1063    1.7050 N   0  0  0  0  0  0  0  0  0  0  0  0
   -1.5091   -2.5145    1.9409 C   0  0  0  0  0  0  0  0  0  0  0  0
   -2.0462   -2.9417    2.9099 O   0  0  0  0  0  0  0  0  0  0  0  0
   -1.9263   -2.0917    0.5162 C   0  0  0  0  0  0  0  0  0  0  0  0
    1.0144   -2.7249    2.1796 C   0  0  0  0  0  0  0  0  0  0  0  0
    1.3379   -2.7824    3.4884 C   0  0  0  0  0  0  0  0  0  0  0  0
    2.5856   -3.4587    3.9405 C   0  0  0  0  0  0  0  0  0  0  0  0
    0.4779   -2.1885    4.5457 C   0  0  0  0  0  0  0  0  0  0  0  0
    1.8905   -3.3318    1.1228 C   0  0  0  0  0  0  0  0  0  0  0  0
    1.8181   -4.5032    0.8062 O   0  0  0  0  0  0  0  0  0  0  0  0
    2.8091   -2.4756    0.5529 N   0  0  0  0  0  0  0  0  0  0  0  0
    3.5151   -2.9131   -0.6588 C   0  0  0  0  0  0  0  0  0  0  0  0
    2.6687   -2.6137   -1.8720 C   0  0  0  0  0  0  0  0  0  0  0  0
    2.8726   -1.4434   -2.6018 C   0  0  0  0  0  0  0  0  0  0  0  0
    2.0472   -1.1484   -3.6858 C   0  0  0  0  0  0  0  0  0  0  0  0
    1.0169   -2.0191   -4.0363 C   0  0  0  0  0  0  0  0  0  0  0  0
    0.8153   -3.1909   -3.3072 C   0  0  0  0  0  0  0  0  0  0  0  0
    1.6422   -3.4905   -2.2283 C   0  0  0  0  0  0  0  0  0  0  0  0
    0.2531   -0.2698   -2.2614 H   0  0  0  0  0  0  0  0  0  0  0  0
   -2.3342   -2.9148   -0.0840 H   0  0  0  0  0  0  0  0  0  0  0  0
   -2.6337   -1.2597    0.4650 H   0  0  0  0  0  0  0  0  0  0  0  0
    3.4228   -2.7453    3.9924 H   0  0  0  0  0  0  0  0  0  0  0  0
    2.8984   -4.2713    3.2631 H   0  0  0  0  0  0  0  0  0  0  0  0
    2.4740   -3.9096    4.9365 H   0  0  0  0  0  0  0  0  0  0  0  0
   -0.4093   -2.8226    4.7279 H   0  0  0  0  0  0  0  0  0  0  0  0
    0.0912   -1.2008    4.2507 H   0  0  0  0  0  0  0  0  0  0  0  0
    0.9975   -2.0669    5.5032 H   0  0  0  0  0  0  0  0  0  0  0  0
    2.7147   -1.4643    0.6751 H   0  0  0  0  0  0  0  0  0  0  0  0
    3.7393   -4.0076   -0.5885 H   0  0  0  0  0  0  0  0  0  0  0  0
    4.4974   -2.3893   -0.7023 H   0  0  0  0  0  0  0  0  0  0  0  0
    3.6672   -0.7536   -2.3188 H   0  0  0  0  0  0  0  0  0  0  0  0
    2.2168   -0.2422   -4.2639 H   0  0  0  0  0  0  0  0  0  0  0  0
    0.3757   -1.7912   -4.8858 H   0  0  0  0  0  0  0  0  0  0  0  0
    0.0146   -3.8741   -3.5859 H   0  0  0  0  0  0  0  0  0  0  0  0
    1.4916   -4.4094   -1.6535 H   0  0  0  0  0  0  0  0  0  0  0  0
  1  2  2  0  0  0  0
  1  4  1  0  0  0  0
  4  5  1  6  0  0  0
  4  9  1  0  0  0  0
  4  6  1  0  0  0  0
  6  7  1  0  0  0  0
  6 10  1  0  0  0  0
  7  8  2  0  0  0  0
  9  7  1  0  0  0  0
 10 11  2  0  0  0  0
 11 12  1  0  0  0  0
 11 13  1  0  0  0  0
 12 27  1  0  0  0  0
 12 29  1  0  0  0  0
 13 30  1  0  0  0  0
 13 32  1  0  0  0  0
 14 10  1  0  0  0  0
 15 14  2  0  0  0  0
 16 33  1  0  0  0  0
 16 14  1  0  0  0  0
 17 34  1  0  0  0  0
 17 16  1  0  0  0  0
 18 17  1  0  0  0  0
 19 36  1  0  0  0  0
 19 18  2  0  0  0  0
 20 19  1  0  0  0  0
 21 20  2  0  0  0  0
 21 22  1  0  0  0  0
 22 23  2  0  0  0  0
 23 18  1  0  0  0  0
 23 40  1  0  0  0  0
 24  3  1  0  0  0  0
 25  9  1  0  0  0  0
 26  9  1  0  0  0  0
 28 12  1  0  0  0  0
 31 13  1  0  0  0  0
 35 17  1  0  0  0  0
 37 20  1  0  0  0  0
 38 21  1  0  0  0  0
 39 22  1  0  0  0  0
M  RAD  1   3   2
M  END
$$$$
