rmsd235.gzmat
 OpenBabel08211713403D

 29 30  0  0  1  0  0  0  0  0999 V2000
    0.0000    0.0000    0.0000 N   0  0  0  0  0  0  0  0  0  0  0  0
    1.4205    0.0000    0.0000 C   0  0  0  0  0  0  0  0  0  0  0  0
    1.8913    0.0000    1.2393 N   0  0  0  0  0  0  0  0  0  0  0  0
    0.7881   -0.0263    2.0880 C   0  0  0  0  0  0  0  0  0  0  0  0
   -0.4155   -0.0274    1.3207 C   0  0  1  0  0  0  0  0  0  0  0  0
   -1.7113    0.0963    1.7928 N   0  0  0  0  0  0  0  0  0  0  0  0
   -2.7685   -0.7517    1.2111 C   0  0  0  0  0  0  0  0  0  0  0  0
   -2.3847   -2.1977    1.0368 C   0  0  0  0  0  0  0  0  0  0  0  0
   -1.6348   -2.8598    2.0089 C   0  0  0  0  0  0  0  0  0  0  0  0
   -1.2691   -4.1902    1.8176 C   0  0  0  0  0  0  0  0  0  0  0  0
   -1.6591   -4.8636    0.6614 C   0  0  0  0  0  0  0  0  0  0  0  0
   -2.4299   -4.2091   -0.2981 C   0  0  0  0  0  0  0  0  0  0  0  0
   -2.7944   -2.8779   -0.1114 C   0  0  0  0  0  0  0  0  0  0  0  0
    0.8931   -0.0854    3.4982 N   0  0  0  0  0  0  0  0  0  0  0  0
    1.9696   -0.0397    4.0506 O   0  0  0  0  0  0  0  0  0  0  0  0
   -0.1769   -0.1963    4.1125 O   0  0  0  0  0  0  0  0  0  0  0  0
   -0.8291   -0.0333   -1.1867 C   0  0  0  0  0  0  0  0  0  0  0  0
    1.9993    0.0041   -0.9078 H   0  0  0  0  0  0  0  0  0  0  0  0
   -1.7292    0.1145    2.8308 H   0  0  0  0  0  0  0  0  0  0  0  0
   -3.0878   -0.2964    0.2446 H   0  0  0  0  0  0  0  0  0  0  0  0
   -3.6630   -0.6798    1.8827 H   0  0  0  0  0  0  0  0  0  0  0  0
   -1.3269   -2.3422    2.9203 H   0  0  0  0  0  0  0  0  0  0  0  0
   -0.6765   -4.7035    2.5754 H   0  0  0  0  0  0  0  0  0  0  0  0
   -1.3673   -5.9015    0.5104 H   0  0  0  0  0  0  0  0  0  0  0  0
   -2.7501   -4.7386   -1.1938 H   0  0  0  0  0  0  0  0  0  0  0  0
   -3.4067   -2.3784   -0.8590 H   0  0  0  0  0  0  0  0  0  0  0  0
   -0.2214    0.1484   -2.0924 H   0  0  0  0  0  0  0  0  0  0  0  0
   -1.6099    0.7516   -1.1437 H   0  0  0  0  0  0  0  0  0  0  0  0
   -1.3210   -1.0210   -1.3005 H   0  0  0  0  0  0  0  0  0  0  0  0
  1  2  1  0  0  0  0
  1  5  1  0  0  0  0
  2  3  2  0  0  0  0
  3  4  2  0  0  0  0
  4 14  1  0  0  0  0
  5  6  1  1  0  0  0
  5  4  1  0  0  0  0
  6 19  1  0  0  0  0
  7  6  1  0  0  0  0
  7 21  1  0  0  0  0
  8  7  1  0  0  0  0
  8  9  2  0  0  0  0
  9 22  1  0  0  0  0
 10  9  1  0  0  0  0
 10 23  1  0  0  0  0
 11 10  2  0  0  0  0
 12 13  2  0  0  0  0
 12 11  1  0  0  0  0
 13  8  1  0  0  0  0
 14 15  2  0  0  0  0
 14 16  2  0  0  0  0
 17 28  1  0  0  0  0
 17  1  1  0  0  0  0
 18  2  1  0  0  0  0
 20  7  1  0  0  0  0
 24 11  1  0  0  0  0
 25 12  1  0  0  0  0
 26 13  1  0  0  0  0
 27 17  1  0  0  0  0
 29 17  1  0  0  0  0
M  RAD  1   5   2
M  END
$$$$
