rmsd20.gzmat
 OpenBabel08211713403D

 29 30  0  0  1  0  0  0  0  0999 V2000
    0.0000    0.0000    0.0000 N   0  0  0  0  0  0  0  0  0  0  0  0
    1.4173    0.0000    0.0000 C   0  0  0  0  0  0  0  0  0  0  0  0
    1.8871    0.0000    1.2420 N   0  0  0  0  0  0  0  0  0  0  0  0
    0.7825    0.0209    2.0878 C   0  0  0  0  0  0  0  0  0  0  0  0
   -0.4171    0.0267    1.3203 C   0  0  2  0  0  0  0  0  0  0  0  0
   -1.7347   -0.0830    1.7561 N   0  0  0  0  0  0  0  0  0  0  0  0
   -2.6768    0.9702    1.3162 C   0  0  0  0  0  0  0  0  0  0  0  0
   -2.1985    2.3696    1.6013 C   0  0  0  0  0  0  0  0  0  0  0  0
   -2.2248    3.3292    0.5890 C   0  0  0  0  0  0  0  0  0  0  0  0
   -1.7647    4.6197    0.8433 C   0  0  0  0  0  0  0  0  0  0  0  0
   -1.2730    4.9506    2.1050 C   0  0  0  0  0  0  0  0  0  0  0  0
   -1.2565    3.9937    3.1183 C   0  0  0  0  0  0  0  0  0  0  0  0
   -1.7261    2.7064    2.8702 C   0  0  0  0  0  0  0  0  0  0  0  0
    0.8883    0.0533    3.5011 N   0  0  0  0  0  0  0  0  0  0  0  0
    1.9685    0.0851    4.0465 O   0  0  0  0  0  0  0  0  0  0  0  0
   -0.1830    0.0530    4.1208 O   0  0  0  0  0  0  0  0  0  0  0  0
   -0.8354   -0.0252   -1.1827 C   0  0  0  0  0  0  0  0  0  0  0  0
    2.0004   -0.0009   -0.9051 H   0  0  0  0  0  0  0  0  0  0  0  0
   -1.7651   -0.2262    2.7841 H   0  0  0  0  0  0  0  0  0  0  0  0
   -3.6463    0.7824    1.8434 H   0  0  0  0  0  0  0  0  0  0  0  0
   -2.8942    0.8271    0.2344 H   0  0  0  0  0  0  0  0  0  0  0  0
   -2.6049    3.0798   -0.3983 H   0  0  0  0  0  0  0  0  0  0  0  0
   -1.7886    5.3691    0.0543 H   0  0  0  0  0  0  0  0  0  0  0  0
   -0.9023    5.9554    2.2995 H   0  0  0  0  0  0  0  0  0  0  0  0
   -0.8739    4.2488    4.1069 H   0  0  0  0  0  0  0  0  0  0  0  0
   -1.7095    1.9644    3.6718 H   0  0  0  0  0  0  0  0  0  0  0  0
   -0.2877   -0.4669   -2.0366 H   0  0  0  0  0  0  0  0  0  0  0  0
   -1.1513    0.9968   -1.4690 H   0  0  0  0  0  0  0  0  0  0  0  0
   -1.7399   -0.6445   -1.0121 H   0  0  0  0  0  0  0  0  0  0  0  0
  1  2  1  0  0  0  0
  1  5  1  0  0  0  0
  2  3  2  0  0  0  0
  3  4  2  0  0  0  0
  4 14  1  0  0  0  0
  5  6  1  1  0  0  0
  5  4  1  0  0  0  0
  6 19  1  0  0  0  0
  7  8  1  0  0  0  0
  7  6  1  0  0  0  0
  7 20  1  0  0  0  0
  8 13  2  0  0  0  0
  9 10  2  0  0  0  0
  9  8  1  0  0  0  0
 10 11  1  0  0  0  0
 11 24  1  0  0  0  0
 11 12  2  0  0  0  0
 12 25  1  0  0  0  0
 13 12  1  0  0  0  0
 13 26  1  0  0  0  0
 14 15  2  0  0  0  0
 14 16  2  0  0  0  0
 17 29  1  0  0  0  0
 17  1  1  0  0  0  0
 18  2  1  0  0  0  0
 21  7  1  0  0  0  0
 22  9  1  0  0  0  0
 23 10  1  0  0  0  0
 27 17  1  0  0  0  0
 28 17  1  0  0  0  0
M  RAD  1   5   2
M  END
$$$$
