rmsd139.gzmat
 OpenBabel08211713403D

 29 30  0  0  1  0  0  0  0  0999 V2000
    0.0000    0.0000    0.0000 N   0  0  0  0  0  0  0  0  0  0  0  0
    1.4181    0.0000    0.0000 C   0  0  0  0  0  0  0  0  0  0  0  0
    1.8882    0.0000    1.2414 N   0  0  0  0  0  0  0  0  0  0  0  0
    0.7840    0.0237    2.0881 C   0  0  0  0  0  0  0  0  0  0  0  0
   -0.4166    0.0272    1.3203 C   0  0  2  0  0  0  0  0  0  0  0  0
   -1.7283   -0.0813    1.7666 N   0  0  0  0  0  0  0  0  0  0  0  0
   -2.6987    0.9196    1.2710 C   0  0  0  0  0  0  0  0  0  0  0  0
   -2.1701    2.3298    1.2689 C   0  0  0  0  0  0  0  0  0  0  0  0
   -2.3429    3.1307    0.1397 C   0  0  0  0  0  0  0  0  0  0  0  0
   -1.8302    4.4262    0.1222 C   0  0  0  0  0  0  0  0  0  0  0  0
   -1.1464    4.9226    1.2305 C   0  0  0  0  0  0  0  0  0  0  0  0
   -0.9836    4.1253    2.3622 C   0  0  0  0  0  0  0  0  0  0  0  0
   -1.5004    2.8326    2.3851 C   0  0  0  0  0  0  0  0  0  0  0  0
    0.8853    0.0698    3.5004 N   0  0  0  0  0  0  0  0  0  0  0  0
    1.9628    0.0738    4.0521 O   0  0  0  0  0  0  0  0  0  0  0  0
   -0.1888    0.1158    4.1143 O   0  0  0  0  0  0  0  0  0  0  0  0
   -0.8377    0.0128   -1.1809 C   0  0  0  0  0  0  0  0  0  0  0  0
    1.9997   -0.0035   -0.9060 H   0  0  0  0  0  0  0  0  0  0  0  0
   -1.7555   -0.1821    2.7992 H   0  0  0  0  0  0  0  0  0  0  0  0
   -3.6089    0.8552    1.9194 H   0  0  0  0  0  0  0  0  0  0  0  0
   -3.0343    0.6064    0.2560 H   0  0  0  0  0  0  0  0  0  0  0  0
   -2.8811    2.7541   -0.7265 H   0  0  0  0  0  0  0  0  0  0  0  0
   -1.9633    5.0504   -0.7597 H   0  0  0  0  0  0  0  0  0  0  0  0
   -0.7407    5.9329    1.2133 H   0  0  0  0  0  0  0  0  0  0  0  0
   -0.4497    4.5112    3.2313 H   0  0  0  0  0  0  0  0  0  0  0  0
   -1.3695    2.2151    3.2769 H   0  0  0  0  0  0  0  0  0  0  0  0
   -0.2515   -0.2594   -2.0779 H   0  0  0  0  0  0  0  0  0  0  0  0
   -1.2736    1.0181   -1.3478 H   0  0  0  0  0  0  0  0  0  0  0  0
   -1.6640   -0.7202   -1.0828 H   0  0  0  0  0  0  0  0  0  0  0  0
  1  2  1  0  0  0  0
  1  5  1  0  0  0  0
  2  3  2  0  0  0  0
  3  4  2  0  0  0  0
  4 14  1  0  0  0  0
  5  6  1  1  0  0  0
  5  4  1  0  0  0  0
  6 19  1  0  0  0  0
  7  6  1  0  0  0  0
  7 20  1  0  0  0  0
  8  7  1  0  0  0  0
  8 13  2  0  0  0  0
  9  8  1  0  0  0  0
 10  9  2  0  0  0  0
 10 11  1  0  0  0  0
 11 12  2  0  0  0  0
 12 13  1  0  0  0  0
 12 25  1  0  0  0  0
 13 26  1  0  0  0  0
 14 15  2  0  0  0  0
 14 16  2  0  0  0  0
 17 29  1  0  0  0  0
 17  1  1  0  0  0  0
 18  2  1  0  0  0  0
 21  7  1  0  0  0  0
 22  9  1  0  0  0  0
 23 10  1  0  0  0  0
 24 11  1  0  0  0  0
 27 17  1  0  0  0  0
 28 17  1  0  0  0  0
M  RAD  1   5   2
M  END
$$$$
