rmsd21.gzmat
 OpenBabel08211713403D

 29 30  0  0  1  0  0  0  0  0999 V2000
    0.0000    0.0000    0.0000 N   0  0  0  0  0  0  0  0  0  0  0  0
    1.4193    0.0000    0.0000 C   0  0  0  0  0  0  0  0  0  0  0  0
    1.8897    0.0000    1.2404 N   0  0  0  0  0  0  0  0  0  0  0  0
    0.7862   -0.0246    2.0882 C   0  0  0  0  0  0  0  0  0  0  0  0
   -0.4162   -0.0263    1.3204 C   0  0  1  0  0  0  0  0  0  0  0  0
   -1.7196    0.0908    1.7792 N   0  0  0  0  0  0  0  0  0  0  0  0
   -2.7375   -0.8333    1.2392 C   0  0  0  0  0  0  0  0  0  0  0  0
   -2.2745   -2.2605    1.1077 C   0  0  0  0  0  0  0  0  0  0  0  0
   -1.5012   -2.8528    2.1064 C   0  0  0  0  0  0  0  0  0  0  0  0
   -1.0481   -4.1605    1.9514 C   0  0  0  0  0  0  0  0  0  0  0  0
   -1.3810   -4.8847    0.8079 C   0  0  0  0  0  0  0  0  0  0  0  0
   -2.1778   -4.3024   -0.1763 C   0  0  0  0  0  0  0  0  0  0  0  0
   -2.6255   -2.9916   -0.0278 C   0  0  0  0  0  0  0  0  0  0  0  0
    0.8897   -0.0784    3.4992 N   0  0  0  0  0  0  0  0  0  0  0  0
    1.9675   -0.0745    4.0502 O   0  0  0  0  0  0  0  0  0  0  0  0
   -0.1831   -0.1422    4.1143 O   0  0  0  0  0  0  0  0  0  0  0  0
   -0.8343   -0.0246   -1.1833 C   0  0  0  0  0  0  0  0  0  0  0  0
    2.0000    0.0044   -0.9066 H   0  0  0  0  0  0  0  0  0  0  0  0
   -1.7432    0.1560    2.8150 H   0  0  0  0  0  0  0  0  0  0  0  0
   -3.0889   -0.4277    0.2620 H   0  0  0  0  0  0  0  0  0  0  0  0
   -3.6272   -0.7875    1.9181 H   0  0  0  0  0  0  0  0  0  0  0  0
   -1.2416   -2.2958    3.0097 H   0  0  0  0  0  0  0  0  0  0  0  0
   -0.4318   -4.6160    2.7272 H   0  0  0  0  0  0  0  0  0  0  0  0
   -1.0224   -5.9054    0.6853 H   0  0  0  0  0  0  0  0  0  0  0  0
   -2.4510   -4.8721   -1.0627 H   0  0  0  0  0  0  0  0  0  0  0  0
   -3.2544   -2.5483   -0.7961 H   0  0  0  0  0  0  0  0  0  0  0  0
   -1.3428   -1.0044   -1.2923 H   0  0  0  0  0  0  0  0  0  0  0  0
   -0.2276    0.1444   -2.0920 H   0  0  0  0  0  0  0  0  0  0  0  0
   -1.6038    0.7725   -1.1364 H   0  0  0  0  0  0  0  0  0  0  0  0
  1  2  1  0  0  0  0
  1  5  1  0  0  0  0
  2  3  2  0  0  0  0
  3  4  2  0  0  0  0
  4 14  1  0  0  0  0
  5  6  1  1  0  0  0
  5  4  1  0  0  0  0
  6 19  1  0  0  0  0
  7  6  1  0  0  0  0
  7 21  1  0  0  0  0
  8  7  1  0  0  0  0
  8  9  2  0  0  0  0
  9 22  1  0  0  0  0
 10  9  1  0  0  0  0
 10 23  1  0  0  0  0
 11 10  2  0  0  0  0
 12 13  2  0  0  0  0
 12 11  1  0  0  0  0
 13  8  1  0  0  0  0
 14 15  2  0  0  0  0
 14 16  2  0  0  0  0
 17 29  1  0  0  0  0
 17  1  1  0  0  0  0
 18  2  1  0  0  0  0
 20  7  1  0  0  0  0
 24 11  1  0  0  0  0
 25 12  1  0  0  0  0
 26 13  1  0  0  0  0
 27 17  1  0  0  0  0
 28 17  1  0  0  0  0
M  RAD  1   5   2
M  END
$$$$
