rmsd234.gzmat
 OpenBabel08211713403D

 29 30  0  0  1  0  0  0  0  0999 V2000
    0.0000    0.0000    0.0000 N   0  0  0  0  0  0  0  0  0  0  0  0
    1.4180    0.0000    0.0000 C   0  0  0  0  0  0  0  0  0  0  0  0
    1.8879    0.0000    1.2416 N   0  0  0  0  0  0  0  0  0  0  0  0
    0.7835    0.0235    2.0880 C   0  0  0  0  0  0  0  0  0  0  0  0
   -0.4171    0.0279    1.3201 C   0  0  2  0  0  0  0  0  0  0  0  0
   -1.7311   -0.0770    1.7634 N   0  0  0  0  0  0  0  0  0  0  0  0
   -2.6898    0.9411    1.2788 C   0  0  0  0  0  0  0  0  0  0  0  0
   -2.1546    2.3479    1.3281 C   0  0  0  0  0  0  0  0  0  0  0  0
   -2.2902    3.1794    0.2164 C   0  0  0  0  0  0  0  0  0  0  0  0
   -1.7647    4.4699    0.2465 C   0  0  0  0  0  0  0  0  0  0  0  0
   -1.1010    4.9288    1.3829 C   0  0  0  0  0  0  0  0  0  0  0  0
   -0.9785    4.1019    2.4983 C   0  0  0  0  0  0  0  0  0  0  0  0
   -1.5135    2.8165    2.4760 C   0  0  0  0  0  0  0  0  0  0  0  0
    0.8859    0.0657    3.5004 N   0  0  0  0  0  0  0  0  0  0  0  0
    1.9643    0.0827    4.0503 O   0  0  0  0  0  0  0  0  0  0  0  0
   -0.1877    0.0937    4.1163 O   0  0  0  0  0  0  0  0  0  0  0  0
   -0.8384    0.0070   -1.1806 C   0  0  0  0  0  0  0  0  0  0  0  0
    2.0001   -0.0032   -0.9060 H   0  0  0  0  0  0  0  0  0  0  0  0
   -1.7596   -0.1856    2.7955 H   0  0  0  0  0  0  0  0  0  0  0  0
   -3.6118    0.8599    1.9084 H   0  0  0  0  0  0  0  0  0  0  0  0
   -3.0092    0.6602    0.2494 H   0  0  0  0  0  0  0  0  0  0  0  0
   -2.8104    2.8320   -0.6727 H   0  0  0  0  0  0  0  0  0  0  0  0
   -1.8712    5.1195   -0.6200 H   0  0  0  0  0  0  0  0  0  0  0  0
   -0.6792    5.9325    1.3995 H   0  0  0  0  0  0  0  0  0  0  0  0
   -0.4596    4.4573    3.3890 H   0  0  0  0  0  0  0  0  0  0  0  0
   -1.4175    2.1771    3.3569 H   0  0  0  0  0  0  0  0  0  0  0  0
   -0.2641   -0.3148   -2.0690 H   0  0  0  0  0  0  0  0  0  0  0  0
   -1.2380    1.0218   -1.3777 H   0  0  0  0  0  0  0  0  0  0  0  0
   -1.6906   -0.6928   -1.0602 H   0  0  0  0  0  0  0  0  0  0  0  0
  1  2  1  0  0  0  0
  1  5  1  0  0  0  0
  2  3  2  0  0  0  0
  3  4  2  0  0  0  0
  4 14  1  0  0  0  0
  5  6  1  1  0  0  0
  5  4  1  0  0  0  0
  6 19  1  0  0  0  0
  7  8  1  0  0  0  0
  7  6  1  0  0  0  0
  7 20  1  0  0  0  0
  8 13  2  0  0  0  0
  9 10  2  0  0  0  0
  9  8  1  0  0  0  0
 10 11  1  0  0  0  0
 11 24  1  0  0  0  0
 11 12  2  0  0  0  0
 12 25  1  0  0  0  0
 13 12  1  0  0  0  0
 13 26  1  0  0  0  0
 14 15  2  0  0  0  0
 14 16  2  0  0  0  0
 17 29  1  0  0  0  0
 17  1  1  0  0  0  0
 18  2  1  0  0  0  0
 21  7  1  0  0  0  0
 22  9  1  0  0  0  0
 23 10  1  0  0  0  0
 27 17  1  0  0  0  0
 28 17  1  0  0  0  0
M  RAD  1   5   2
M  END
$$$$
