rmsd196.gzmat
 OpenBabel08211713403D

 29 30  0  0  1  0  0  0  0  0999 V2000
    0.0000    0.0000    0.0000 N   0  0  0  0  0  0  0  0  0  0  0  0
    1.4208    0.0000    0.0000 C   0  0  0  0  0  0  0  0  0  0  0  0
    1.8915    0.0000    1.2392 N   0  0  0  0  0  0  0  0  0  0  0  0
    0.7883    0.0256    2.0880 C   0  0  0  0  0  0  0  0  0  0  0  0
   -0.4158    0.0258    1.3209 C   0  0  2  0  0  0  0  0  0  0  0  0
   -1.7104   -0.1006    1.7934 N   0  0  0  0  0  0  0  0  0  0  0  0
   -2.7760    0.7344    1.2092 C   0  0  0  0  0  0  0  0  0  0  0  0
   -2.4039    2.1800    1.0073 C   0  0  0  0  0  0  0  0  0  0  0  0
   -1.6227    2.8557    1.9446 C   0  0  0  0  0  0  0  0  0  0  0  0
   -1.2729    4.1866    1.7281 C   0  0  0  0  0  0  0  0  0  0  0  0
   -1.7098    4.8469    0.5812 C   0  0  0  0  0  0  0  0  0  0  0  0
   -2.5073    4.1773   -0.3454 C   0  0  0  0  0  0  0  0  0  0  0  0
   -2.8573    2.8460   -0.1328 C   0  0  0  0  0  0  0  0  0  0  0  0
    0.8933    0.0783    3.4981 N   0  0  0  0  0  0  0  0  0  0  0  0
    1.9706    0.0480    4.0496 O   0  0  0  0  0  0  0  0  0  0  0  0
   -0.1777    0.1663    4.1141 O   0  0  0  0  0  0  0  0  0  0  0  0
   -0.8294    0.0373   -1.1861 C   0  0  0  0  0  0  0  0  0  0  0  0
    2.0000   -0.0063   -0.9075 H   0  0  0  0  0  0  0  0  0  0  0  0
   -1.7291   -0.1214    2.8313 H   0  0  0  0  0  0  0  0  0  0  0  0
   -3.6635    0.6698    1.8910 H   0  0  0  0  0  0  0  0  0  0  0  0
   -3.1033    0.2626    0.2531 H   0  0  0  0  0  0  0  0  0  0  0  0
   -1.2777    2.3484    2.8483 H   0  0  0  0  0  0  0  0  0  0  0  0
   -0.6561    4.7104    2.4590 H   0  0  0  0  0  0  0  0  0  0  0  0
   -1.4320    5.8858    0.4107 H   0  0  0  0  0  0  0  0  0  0  0  0
   -2.8583    4.6950   -1.2362 H   0  0  0  0  0  0  0  0  0  0  0  0
   -3.4912    2.3353   -0.8541 H   0  0  0  0  0  0  0  0  0  0  0  0
   -0.2218   -0.1458   -2.0909 H   0  0  0  0  0  0  0  0  0  0  0  0
   -1.3180    1.0263   -1.2995 H   0  0  0  0  0  0  0  0  0  0  0  0
   -1.6135   -0.7440   -1.1434 H   0  0  0  0  0  0  0  0  0  0  0  0
  1  2  1  0  0  0  0
  1  5  1  0  0  0  0
  2  3  2  0  0  0  0
  3  4  2  0  0  0  0
  4 14  1  0  0  0  0
  5  6  1  1  0  0  0
  5  4  1  0  0  0  0
  6 19  1  0  0  0  0
  7  6  1  0  0  0  0
  7 20  1  0  0  0  0
  8  7  1  0  0  0  0
  8  9  2  0  0  0  0
  9 22  1  0  0  0  0
 10  9  1  0  0  0  0
 10 23  1  0  0  0  0
 11 10  2  0  0  0  0
 12 13  2  0  0  0  0
 12 11  1  0  0  0  0
 13  8  1  0  0  0  0
 14 15  2  0  0  0  0
 14 16  2  0  0  0  0
 17 29  1  0  0  0  0
 17  1  1  0  0  0  0
 18  2  1  0  0  0  0
 21  7  1  0  0  0  0
 24 11  1  0  0  0  0
 25 12  1  0  0  0  0
 26 13  1  0  0  0  0
 27 17  1  0  0  0  0
 28 17  1  0  0  0  0
M  RAD  1   5   2
M  END
$$$$
