29
rmsd124.gzmat
N          0.00000        0.00000        0.00000
C          1.41890        0.00000        0.00000
N          1.88930        0.00000        1.24080
C          0.78530       -0.02470        2.08800
C         -0.41620       -0.02700        1.32040
N         -1.72340        0.08640        1.77490
C         -2.71830       -0.87590        1.25620
C         -2.22980       -2.30020        1.22610
C         -2.43300       -3.07510        0.08400
C         -1.95900       -4.38470        0.03980
C         -1.28450       -4.92090        1.13490
C         -1.09300       -4.14980        2.28040
C         -1.57080       -2.84280        2.32980
N          0.88860       -0.07670        3.49950
O          1.96690       -0.07510        4.04970
O         -0.18410       -0.13460        4.11520
C         -0.83490       -0.01900       -1.18300
H          1.99950        0.00360       -0.90640
H         -1.74610        0.16420        2.81000
H         -3.04400       -0.53260        0.24760
H         -3.62840       -0.79960        1.90430
H         -2.96510       -2.66750       -0.77180
H         -2.11430       -4.98800       -0.85250
H         -0.90770       -5.94170        1.09600
H         -0.56730       -4.56700        3.14000
H         -1.41820       -2.24600        3.23260
H         -0.23730        0.20600       -2.08610
H         -1.63600        0.74420       -1.10840
H         -1.30280       -1.01420       -1.32320
