rmsd170.gzmat
 OpenBabel08211713403D

 29 30  0  0  1  0  0  0  0  0999 V2000
    0.0000    0.0000    0.0000 N   0  0  0  0  0  0  0  0  0  0  0  0
    1.4182    0.0000    0.0000 C   0  0  0  0  0  0  0  0  0  0  0  0
    1.8884    0.0000    1.2411 N   0  0  0  0  0  0  0  0  0  0  0  0
    0.7844   -0.0240    2.0881 C   0  0  0  0  0  0  0  0  0  0  0  0
   -0.4166   -0.0277    1.3201 C   0  0  1  0  0  0  0  0  0  0  0  0
   -1.7276    0.0795    1.7685 N   0  0  0  0  0  0  0  0  0  0  0  0
   -2.7018   -0.9147    1.2676 C   0  0  0  0  0  0  0  0  0  0  0  0
   -2.1743   -2.3251    1.2427 C   0  0  0  0  0  0  0  0  0  0  0  0
   -2.3739   -3.1155    0.1105 C   0  0  0  0  0  0  0  0  0  0  0  0
   -1.8561   -4.4084    0.0663 C   0  0  0  0  0  0  0  0  0  0  0  0
   -1.1386   -4.9119    1.1497 C   0  0  0  0  0  0  0  0  0  0  0  0
   -0.9540   -4.1271    2.2870 C   0  0  0  0  0  0  0  0  0  0  0  0
   -1.4790   -2.8386    2.3385 C   0  0  0  0  0  0  0  0  0  0  0  0
    0.8867   -0.0732    3.5000 N   0  0  0  0  0  0  0  0  0  0  0  0
    1.9648   -0.0824    4.0507 O   0  0  0  0  0  0  0  0  0  0  0  0
   -0.1872   -0.1183    4.1147 O   0  0  0  0  0  0  0  0  0  0  0  0
   -0.8377   -0.0186   -1.1812 C   0  0  0  0  0  0  0  0  0  0  0  0
    1.9998    0.0032   -0.9060 H   0  0  0  0  0  0  0  0  0  0  0  0
   -1.7534    0.1745    2.8020 H   0  0  0  0  0  0  0  0  0  0  0  0
   -3.0442   -0.5882    0.2587 H   0  0  0  0  0  0  0  0  0  0  0  0
   -3.6078   -0.8580    1.9226 H   0  0  0  0  0  0  0  0  0  0  0  0
   -2.9377   -2.7332   -0.7368 H   0  0  0  0  0  0  0  0  0  0  0  0
   -2.0115   -5.0248   -0.8169 H   0  0  0  0  0  0  0  0  0  0  0  0
   -0.7247   -5.9181    1.1089 H   0  0  0  0  0  0  0  0  0  0  0  0
   -0.3950   -4.5191    3.1371 H   0  0  0  0  0  0  0  0  0  0  0  0
   -1.3342   -2.2322    3.2360 H   0  0  0  0  0  0  0  0  0  0  0  0
   -0.2506    0.2441   -2.0803 H   0  0  0  0  0  0  0  0  0  0  0  0
   -1.6609    0.7185   -1.0888 H   0  0  0  0  0  0  0  0  0  0  0  0
   -1.2772   -1.0237   -1.3410 H   0  0  0  0  0  0  0  0  0  0  0  0
  1  2  1  0  0  0  0
  1  5  1  0  0  0  0
  2  3  2  0  0  0  0
  3  4  2  0  0  0  0
  4 14  1  0  0  0  0
  5  6  1  1  0  0  0
  5  4  1  0  0  0  0
  6 19  1  0  0  0  0
  7  6  1  0  0  0  0
  7 21  1  0  0  0  0
  8  7  1  0  0  0  0
  8 13  2  0  0  0  0
  9  8  1  0  0  0  0
 10  9  2  0  0  0  0
 10 11  1  0  0  0  0
 11 12  2  0  0  0  0
 12 13  1  0  0  0  0
 12 25  1  0  0  0  0
 13 26  1  0  0  0  0
 14 15  2  0  0  0  0
 14 16  2  0  0  0  0
 17 28  1  0  0  0  0
 17  1  1  0  0  0  0
 18  2  1  0  0  0  0
 20  7  1  0  0  0  0
 22  9  1  0  0  0  0
 23 10  1  0  0  0  0
 24 11  1  0  0  0  0
 27 17  1  0  0  0  0
 29 17  1  0  0  0  0
M  RAD  1   5   2
M  END
$$$$
