29
rmsd21.gzmat
N          0.00000        0.00000        0.00000
C          1.41930        0.00000        0.00000
N          1.88970        0.00000        1.24040
C          0.78620       -0.02460        2.08820
C         -0.41620       -0.02630        1.32040
N         -1.71960        0.09080        1.77920
C         -2.73750       -0.83330        1.23920
C         -2.27450       -2.26050        1.10770
C         -1.50120       -2.85280        2.10640
C         -1.04810       -4.16050        1.95140
C         -1.38100       -4.88470        0.80790
C         -2.17780       -4.30240       -0.17630
C         -2.62550       -2.99160       -0.02780
N          0.88970       -0.07840        3.49920
O          1.96750       -0.07450        4.05020
O         -0.18310       -0.14220        4.11430
C         -0.83430       -0.02460       -1.18330
H          2.00000        0.00440       -0.90660
H         -1.74320        0.15600        2.81500
H         -3.08890       -0.42770        0.26200
H         -3.62720       -0.78750        1.91810
H         -1.24160       -2.29580        3.00970
H         -0.43180       -4.61600        2.72720
H         -1.02240       -5.90540        0.68530
H         -2.45100       -4.87210       -1.06270
H         -3.25440       -2.54830       -0.79610
H         -1.34280       -1.00440       -1.29230
H         -0.22760        0.14440       -2.09200
H         -1.60380        0.77250       -1.13640
