29
rmsd235.gzmat
N          0.00000        0.00000        0.00000
C          1.42050        0.00000        0.00000
N          1.89130        0.00000        1.23930
C          0.78810       -0.02630        2.08800
C         -0.41550       -0.02740        1.32070
N         -1.71130        0.09630        1.79280
C         -2.76850       -0.75170        1.21110
C         -2.38470       -2.19770        1.03680
C         -1.63480       -2.85980        2.00890
C         -1.26910       -4.19020        1.81760
C         -1.65910       -4.86360        0.66140
C         -2.42990       -4.20910       -0.29810
C         -2.79440       -2.87790       -0.11140
N          0.89310       -0.08540        3.49820
O          1.96960       -0.03970        4.05060
O         -0.17690       -0.19630        4.11250
C         -0.82910       -0.03330       -1.18670
H          1.99930        0.00410       -0.90780
H         -1.72920        0.11450        2.83080
H         -3.08780       -0.29640        0.24460
H         -3.66300       -0.67980        1.88270
H         -1.32690       -2.34220        2.92030
H         -0.67650       -4.70350        2.57540
H         -1.36730       -5.90150        0.51040
H         -2.75010       -4.73860       -1.19380
H         -3.40670       -2.37840       -0.85900
H         -0.22140        0.14840       -2.09240
H         -1.60990        0.75160       -1.14370
H         -1.32100       -1.02100       -1.30050
