rmsd11.gzmat
 OpenBabel08211713403D

 38 40  0  0  1  0  0  0  0  0999 V2000
    0.0000    0.0000    0.0000 S   0  0  2  0  0  0  0  0  0  0  0  0
    1.4954    0.0000    0.0000 O   0  0  0  0  0  0  0  0  0  0  0  0
   -0.4842    0.0000   -1.7205 C   0  0  0  0  0  0  0  0  0  0  0  0
    0.4817   -0.0757   -2.7175 C   0  0  0  0  0  0  0  0  0  0  0  0
    0.0977   -0.0643   -4.0576 C   0  0  0  0  0  0  0  0  0  0  0  0
   -1.2529    0.0261   -4.3972 C   0  0  0  0  0  0  0  0  0  0  0  0
   -2.2193    0.0919   -3.3863 C   0  0  0  0  0  0  0  0  0  0  0  0
   -1.8352    0.0796   -2.0497 C   0  0  0  0  0  0  0  0  0  0  0  0
   -1.6796    0.0574   -5.8246 C   0  0  0  0  0  0  0  0  0  0  0  0
   -0.4249    1.6935    0.3409 C   0  0  0  0  0  0  0  0  0  0  0  0
   -1.7598    1.8926    0.6478 O   0  0  0  0  0  0  0  0  0  0  0  0
   -1.9048    3.2435    0.8847 C   0  0  0  0  0  0  0  0  0  0  0  0
   -0.7086    3.8897    0.7446 C   0  0  0  0  0  0  0  0  0  0  0  0
    0.2597    2.8776    0.3888 C   0  0  0  0  0  0  0  0  0  0  0  0
    1.7067    3.1424    0.1154 C   0  0  1  0  0  0  0  0  0  0  0  0
    2.0126    4.1660    0.4572 H   0  0  0  0  0  0  0  0  0  0  0  0
    2.5193    2.3159    0.9020 O   0  0  0  0  0  0  0  0  0  0  0  0
    1.9852    2.9743   -1.3626 C   0  0  0  0  0  0  0  0  0  0  0  0
    1.1638    3.6060   -2.2981 C   0  0  0  0  0  0  0  0  0  0  0  0
    1.4029    3.4377   -3.6591 C   0  0  0  0  0  0  0  0  0  0  0  0
    2.4672    2.6456   -4.0884 C   0  0  0  0  0  0  0  0  0  0  0  0
    3.2954    2.0278   -3.1538 C   0  0  0  0  0  0  0  0  0  0  0  0
    3.0571    2.1933   -1.7900 C   0  0  0  0  0  0  0  0  0  0  0  0
    1.5492   -0.1251   -2.4636 H   0  0  0  0  0  0  0  0  0  0  0  0
    0.8577   -0.1117   -4.8348 H   0  0  0  0  0  0  0  0  0  0  0  0
   -3.2725    0.1593   -3.6475 H   0  0  0  0  0  0  0  0  0  0  0  0
   -2.6040    0.1443   -1.2772 H   0  0  0  0  0  0  0  0  0  0  0  0
   -2.3660   -0.7706   -6.0560 H   0  0  0  0  0  0  0  0  0  0  0  0
   -0.8360   -0.0188   -6.5239 H   0  0  0  0  0  0  0  0  0  0  0  0
   -2.2104    0.9920   -6.0625 H   0  0  0  0  0  0  0  0  0  0  0  0
   -2.9033    3.5222    1.1273 H   0  0  0  0  0  0  0  0  0  0  0  0
   -0.4931    4.9302    0.8683 H   0  0  0  0  0  0  0  0  0  0  0  0
    2.3581    1.3531    0.6914 H   0  0  0  0  0  0  0  0  0  0  0  0
    0.3306    4.2215   -1.9652 H   0  0  0  0  0  0  0  0  0  0  0  0
    0.7559    3.9217   -4.3868 H   0  0  0  0  0  0  0  0  0  0  0  0
    2.6517    2.5146   -5.1515 H   0  0  0  0  0  0  0  0  0  0  0  0
    4.1313    1.4156   -3.4852 H   0  0  0  0  0  0  0  0  0  0  0  0
    3.7051    1.7072   -1.0563 H   0  0  0  0  0  0  0  0  0  0  0  0
  1  2  2  6  0  0  0
  1 10  1  0  0  0  0
  3  1  1  0  0  0  0
  4 24  1  0  0  0  0
  4  3  2  0  0  0  0
  5  4  1  0  0  0  0
  6  5  2  0  0  0  0
  6  7  1  0  0  0  0
  7  8  2  0  0  0  0
  8  3  1  0  0  0  0
  8 27  1  0  0  0  0
  9  6  1  0  0  0  0
 10 14  2  0  0  0  0
 10 11  1  0  0  0  0
 11 12  1  0  0  0  0
 12 31  1  0  0  0  0
 13 32  1  0  0  0  0
 13 12  2  0  0  0  0
 14 13  1  0  0  0  0
 15 14  1  0  0  0  0
 15 16  1  1  0  0  0
 15 17  1  0  0  0  0
 18 15  1  0  0  0  0
 19 34  1  0  0  0  0
 19 18  2  0  0  0  0
 20 19  1  0  0  0  0
 21 20  2  0  0  0  0
 21 22  1  0  0  0  0
 22 23  2  0  0  0  0
 23 18  1  0  0  0  0
 23 38  1  0  0  0  0
 25  5  1  0  0  0  0
 26  7  1  0  0  0  0
 28  9  1  0  0  0  0
 29  9  1  0  0  0  0
 30  9  1  0  0  0  0
 33 17  1  0  0  0  0
 35 20  1  0  0  0  0
 36 21  1  0  0  0  0
 37 22  1  0  0  0  0
M  END
$$$$
