rmsd145.gzmat
 OpenBabel08211713403D

 38 40  0  0  1  0  0  0  0  0999 V2000
    0.0000    0.0000    0.0000 S   0  0  2  0  0  0  0  0  0  0  0  0
    1.4957    0.0000    0.0000 O   0  0  0  0  0  0  0  0  0  0  0  0
   -0.4647    0.0000   -1.7260 C   0  0  0  0  0  0  0  0  0  0  0  0
    0.5073   -0.2111   -2.6978 C   0  0  0  0  0  0  0  0  0  0  0  0
    0.1522   -0.2114   -4.0457 C   0  0  0  0  0  0  0  0  0  0  0  0
   -1.1735    0.0126   -4.4199 C   0  0  0  0  0  0  0  0  0  0  0  0
   -2.1465    0.2169   -3.4345 C   0  0  0  0  0  0  0  0  0  0  0  0
   -1.7926    0.2099   -2.0893 C   0  0  0  0  0  0  0  0  0  0  0  0
   -1.5631    0.0347   -5.8582 C   0  0  0  0  0  0  0  0  0  0  0  0
   -0.4288    1.6888    0.3519 C   0  0  0  0  0  0  0  0  0  0  0  0
   -1.7413    1.8702    0.7531 O   0  0  0  0  0  0  0  0  0  0  0  0
   -1.8870    3.2192    0.9997 C   0  0  0  0  0  0  0  0  0  0  0  0
   -0.7126    3.8813    0.7748 C   0  0  0  0  0  0  0  0  0  0  0  0
    0.2407    2.8823    0.3495 C   0  0  0  0  0  0  0  0  0  0  0  0
    1.6614    3.1652   -0.0231 C   0  0  1  0  0  0  0  0  0  0  0  0
    1.9700    4.2009    0.2795 H   0  0  0  0  0  0  0  0  0  0  0  0
    2.5379    2.3695    0.7250 O   0  0  0  0  0  0  0  0  0  0  0  0
    1.8511    2.9781   -1.5128 C   0  0  0  0  0  0  0  0  0  0  0  0
    0.9488    3.5587   -2.4062 C   0  0  0  0  0  0  0  0  0  0  0  0
    1.1182    3.3847   -3.7768 C   0  0  0  0  0  0  0  0  0  0  0  0
    2.1907    2.6347   -4.2580 C   0  0  0  0  0  0  0  0  0  0  0  0
    3.0961    2.0643   -3.3658 C   0  0  0  0  0  0  0  0  0  0  0  0
    2.9288    2.2370   -1.9930 C   0  0  0  0  0  0  0  0  0  0  0  0
    1.5593   -0.3564   -2.4189 H   0  0  0  0  0  0  0  0  0  0  0  0
    0.9165   -0.3704   -4.8028 H   0  0  0  0  0  0  0  0  0  0  0  0
   -3.1814    0.3855   -3.7222 H   0  0  0  0  0  0  0  0  0  0  0  0
   -2.5653    0.3813   -1.3376 H   0  0  0  0  0  0  0  0  0  0  0  0
   -2.1644   -0.8501   -6.1175 H   0  0  0  0  0  0  0  0  0  0  0  0
   -0.6969    0.0447   -6.5342 H   0  0  0  0  0  0  0  0  0  0  0  0
   -2.1684    0.9209   -6.1008 H   0  0  0  0  0  0  0  0  0  0  0  0
   -2.8697    3.4848    1.3120 H   0  0  0  0  0  0  0  0  0  0  0  0
   -0.5013    4.9241    0.8852 H   0  0  0  0  0  0  0  0  0  0  0  0
    2.3696    1.3979    0.5639 H   0  0  0  0  0  0  0  0  0  0  0  0
    0.1078    4.1394   -2.0323 H   0  0  0  0  0  0  0  0  0  0  0  0
    0.4113    3.8318   -4.4711 H   0  0  0  0  0  0  0  0  0  0  0  0
    2.3202    2.4980   -5.3284 H   0  0  0  0  0  0  0  0  0  0  0  0
    3.9373    1.4834   -3.7374 H   0  0  0  0  0  0  0  0  0  0  0  0
    3.6374    1.7885   -1.2921 H   0  0  0  0  0  0  0  0  0  0  0  0
  1  2  2  6  0  0  0
  1 10  1  0  0  0  0
  3  1  1  0  0  0  0
  4 24  1  0  0  0  0
  4  3  2  0  0  0  0
  5  4  1  0  0  0  0
  6  5  2  0  0  0  0
  6  7  1  0  0  0  0
  7  8  2  0  0  0  0
  8  3  1  0  0  0  0
  8 27  1  0  0  0  0
  9  6  1  0  0  0  0
 10 11  1  0  0  0  0
 11 12  1  0  0  0  0
 12 31  1  0  0  0  0
 13 32  1  0  0  0  0
 13 12  2  0  0  0  0
 14 10  2  0  0  0  0
 14 13  1  0  0  0  0
 15 16  1  1  0  0  0
 15 14  1  0  0  0  0
 15 17  1  0  0  0  0
 18 15  1  0  0  0  0
 19 34  1  0  0  0  0
 19 18  2  0  0  0  0
 20 19  1  0  0  0  0
 21 20  2  0  0  0  0
 21 22  1  0  0  0  0
 22 23  2  0  0  0  0
 23 18  1  0  0  0  0
 23 38  1  0  0  0  0
 25  5  1  0  0  0  0
 26  7  1  0  0  0  0
 28  9  1  0  0  0  0
 29  9  1  0  0  0  0
 30  9  1  0  0  0  0
 33 17  1  0  0  0  0
 35 20  1  0  0  0  0
 36 21  1  0  0  0  0
 37 22  1  0  0  0  0
M  END
$$$$
