rmsd121.gzmat
 OpenBabel08211713403D

 38 40  0  0  1  0  0  0  0  0999 V2000
    0.0000    0.0000    0.0000 S   0  0  2  0  0  0  0  0  0  0  0  0
    1.4962    0.0000    0.0000 O   0  0  0  0  0  0  0  0  0  0  0  0
   -0.4534    0.0000   -1.7295 C   0  0  0  0  0  0  0  0  0  0  0  0
    0.5252   -0.2594   -2.6846 C   0  0  0  0  0  0  0  0  0  0  0  0
    0.1847   -0.2899   -4.0344 C   0  0  0  0  0  0  0  0  0  0  0  0
   -1.1341   -0.0552   -4.4306 C   0  0  0  0  0  0  0  0  0  0  0  0
   -2.1093    0.2129   -3.4647 C   0  0  0  0  0  0  0  0  0  0  0  0
   -1.7688    0.2409   -2.1151 C   0  0  0  0  0  0  0  0  0  0  0  0
   -1.4901   -0.0735   -5.8776 C   0  0  0  0  0  0  0  0  0  0  0  0
   -0.4280    1.6832    0.3750 C   0  0  0  0  0  0  0  0  0  0  0  0
   -1.7267    1.8530    0.8234 O   0  0  0  0  0  0  0  0  0  0  0  0
   -1.8666    3.1963    1.1023 C   0  0  0  0  0  0  0  0  0  0  0  0
   -0.7014    3.8661    0.8524 C   0  0  0  0  0  0  0  0  0  0  0  0
    0.2386    2.8786    0.3743 C   0  0  0  0  0  0  0  0  0  0  0  0
    1.6450    3.1744   -0.0377 C   0  0  1  0  0  0  0  0  0  0  0  0
    1.9532    4.2099    0.2668 H   0  0  0  0  0  0  0  0  0  0  0  0
    2.5495    2.3786    0.6774 O   0  0  0  0  0  0  0  0  0  0  0  0
    1.8060    3.0038   -1.5325 C   0  0  0  0  0  0  0  0  0  0  0  0
    0.8304    3.4866   -2.4065 C   0  0  0  0  0  0  0  0  0  0  0  0
    0.9882    3.3276   -3.7808 C   0  0  0  0  0  0  0  0  0  0  0  0
    2.1249    2.6969   -4.2847 C   0  0  0  0  0  0  0  0  0  0  0  0
    3.1028    2.2245   -3.4117 C   0  0  0  0  0  0  0  0  0  0  0  0
    2.9443    2.3759   -2.0354 C   0  0  0  0  0  0  0  0  0  0  0  0
    1.5697   -0.4234   -2.3885 H   0  0  0  0  0  0  0  0  0  0  0  0
    0.9522   -0.4832   -4.7802 H   0  0  0  0  0  0  0  0  0  0  0  0
   -3.1351    0.4069   -3.7681 H   0  0  0  0  0  0  0  0  0  0  0  0
   -2.5436    0.4630   -1.3789 H   0  0  0  0  0  0  0  0  0  0  0  0
   -2.5554   -0.2785   -6.0491 H   0  0  0  0  0  0  0  0  0  0  0  0
   -0.9250   -0.8350   -6.4346 H   0  0  0  0  0  0  0  0  0  0  0  0
   -1.2673    0.8986   -6.3458 H   0  0  0  0  0  0  0  0  0  0  0  0
   -2.8382    3.4529    1.4536 H   0  0  0  0  0  0  0  0  0  0  0  0
   -0.4874    4.9069    0.9789 H   0  0  0  0  0  0  0  0  0  0  0  0
    2.3786    1.4067    0.5205 H   0  0  0  0  0  0  0  0  0  0  0  0
   -0.0584    3.9792   -2.0175 H   0  0  0  0  0  0  0  0  0  0  0  0
    0.2218    3.6927   -4.4604 H   0  0  0  0  0  0  0  0  0  0  0  0
    2.2481    2.5768   -5.3579 H   0  0  0  0  0  0  0  0  0  0  0  0
    3.9940    1.7376   -3.8016 H   0  0  0  0  0  0  0  0  0  0  0  0
    3.7069    2.0002   -1.3489 H   0  0  0  0  0  0  0  0  0  0  0  0
  1  2  2  6  0  0  0
  1 10  1  0  0  0  0
  3  1  1  0  0  0  0
  4 24  1  0  0  0  0
  4  3  2  0  0  0  0
  5  4  1  0  0  0  0
  6  5  2  0  0  0  0
  6  7  1  0  0  0  0
  7  8  2  0  0  0  0
  8  3  1  0  0  0  0
  8 27  1  0  0  0  0
  9  6  1  0  0  0  0
 10 11  1  0  0  0  0
 11 12  1  0  0  0  0
 12 31  1  0  0  0  0
 13 32  1  0  0  0  0
 13 12  2  0  0  0  0
 14 10  2  0  0  0  0
 14 13  1  0  0  0  0
 15 16  1  1  0  0  0
 15 14  1  0  0  0  0
 15 17  1  0  0  0  0
 18 15  1  0  0  0  0
 19 34  1  0  0  0  0
 19 18  2  0  0  0  0
 20 19  1  0  0  0  0
 21 20  2  0  0  0  0
 21 22  1  0  0  0  0
 22 23  2  0  0  0  0
 23 18  1  0  0  0  0
 23 38  1  0  0  0  0
 25  5  1  0  0  0  0
 26  7  1  0  0  0  0
 28  9  1  0  0  0  0
 29  9  1  0  0  0  0
 30  9  1  0  0  0  0
 33 17  1  0  0  0  0
 35 20  1  0  0  0  0
 36 21  1  0  0  0  0
 37 22  1  0  0  0  0
M  END
$$$$
