38
rmsd228.gzmat
S          0.00000        0.00000        0.00000
O          1.49580        0.00000        0.00000
C         -0.46600        0.00000       -1.72580
C         -1.80130        0.15180       -2.08680
C         -2.15420        0.17280       -3.43370
C         -1.17130        0.04520       -4.41920
C          0.16460       -0.12510       -4.04670
C          0.51710       -0.14490       -2.69990
C         -1.53070        0.10510       -5.86390
C         -0.42450        1.69170        0.34690
O         -1.73960        1.87620        0.73750
C         -1.88480        3.22580        0.98200
C         -0.70690        3.88510        0.76650
C          0.24770        2.88390        0.34940
C          1.67020        3.16790       -0.01430
H          1.97840        4.20070        0.29830
O          2.54430        2.36530        0.72880
C          1.86860        2.99300       -1.50420
C          0.96460        3.56710       -2.39950
C          1.14070        3.39710       -3.76990
C          2.22210        2.65780       -4.24790
C          3.13240        2.09840       -3.35360
C          2.95840        2.26760       -1.98130
H         -2.58340        0.26740       -1.33410
H         -3.19620        0.29640       -3.71720
H          0.93420       -0.22560       -4.80880
H          1.57350       -0.25370       -2.42020
H         -1.11670       -0.74840       -6.42070
H         -1.13050        1.01990       -6.32950
H         -2.61480        0.10510       -6.03640
H         -2.86930        3.49410        1.28640
H         -0.49390        4.92760        0.87880
H          2.36990        1.39530        0.56730
H          0.11740        4.14030       -2.02820
H          0.43250        3.83950       -4.46630
H          2.35500        2.52120       -5.31790
H          3.98320        1.53090       -3.72420
H          3.67200        1.82990       -1.27880
