rmsd218.gzmat
 OpenBabel08211713403D

 38 40  0  0  1  0  0  0  0  0999 V2000
    0.0000    0.0000    0.0000 S   0  0  2  0  0  0  0  0  0  0  0  0
    1.4958    0.0000    0.0000 O   0  0  0  0  0  0  0  0  0  0  0  0
   -0.4591    0.0000   -1.7277 C   0  0  0  0  0  0  0  0  0  0  0  0
    0.5226   -0.1872   -2.6950 C   0  0  0  0  0  0  0  0  0  0  0  0
    0.1773   -0.1711   -4.0450 C   0  0  0  0  0  0  0  0  0  0  0  0
   -1.1484    0.0435   -4.4250 C   0  0  0  0  0  0  0  0  0  0  0  0
   -2.1322    0.2146   -3.4444 C   0  0  0  0  0  0  0  0  0  0  0  0
   -1.7879    0.1936   -2.0969 C   0  0  0  0  0  0  0  0  0  0  0  0
   -1.5207    0.1179   -5.8656 C   0  0  0  0  0  0  0  0  0  0  0  0
   -0.4313    1.6902    0.3439 C   0  0  0  0  0  0  0  0  0  0  0  0
   -1.7473    1.8698    0.7339 O   0  0  0  0  0  0  0  0  0  0  0  0
   -1.8986    3.2193    0.9738 C   0  0  0  0  0  0  0  0  0  0  0  0
   -0.7239    3.8833    0.7567 C   0  0  0  0  0  0  0  0  0  0  0  0
    0.2351    2.8853    0.3411 C   0  0  0  0  0  0  0  0  0  0  0  0
    1.6562    3.1745   -0.0225 C   0  0  1  0  0  0  0  0  0  0  0  0
    1.9587    4.2076    0.2957 H   0  0  0  0  0  0  0  0  0  0  0  0
    2.5331    2.3726    0.7189 O   0  0  0  0  0  0  0  0  0  0  0  0
    1.8638    3.0096   -1.5122 C   0  0  0  0  0  0  0  0  0  0  0  0
    0.9369    3.5363   -2.4127 C   0  0  0  0  0  0  0  0  0  0  0  0
    1.1354    3.3865   -3.7826 C   0  0  0  0  0  0  0  0  0  0  0  0
    2.2614    2.7140   -4.2556 C   0  0  0  0  0  0  0  0  0  0  0  0
    3.1921    2.1986   -3.3556 C   0  0  0  0  0  0  0  0  0  0  0  0
    2.9959    2.3476   -1.9840 C   0  0  0  0  0  0  0  0  0  0  0  0
    1.5737   -0.3269   -2.4101 H   0  0  0  0  0  0  0  0  0  0  0  0
    0.9483   -0.3087   -4.7999 H   0  0  0  0  0  0  0  0  0  0  0  0
   -3.1668    0.3719   -3.7386 H   0  0  0  0  0  0  0  0  0  0  0  0
   -2.5684    0.3424   -1.3485 H   0  0  0  0  0  0  0  0  0  0  0  0
   -2.4060   -0.4921   -6.0938 H   0  0  0  0  0  0  0  0  0  0  0  0
   -0.7158   -0.2224   -6.5312 H   0  0  0  0  0  0  0  0  0  0  0  0
   -1.7583    1.1551   -6.1519 H   0  0  0  0  0  0  0  0  0  0  0  0
   -2.8844    3.4836    1.2773 H   0  0  0  0  0  0  0  0  0  0  0  0
   -0.5164    4.9271    0.8693 H   0  0  0  0  0  0  0  0  0  0  0  0
    2.3691    1.4022    0.5465 H   0  0  0  0  0  0  0  0  0  0  0  0
    0.0545    4.0575   -2.0473 H   0  0  0  0  0  0  0  0  0  0  0  0
    0.4091    3.7944   -4.4810 H   0  0  0  0  0  0  0  0  0  0  0  0
    2.4147    2.5963   -5.3254 H   0  0  0  0  0  0  0  0  0  0  0  0
    4.0766    1.6817   -3.7213 H   0  0  0  0  0  0  0  0  0  0  0  0
    3.7248    1.9464   -1.2755 H   0  0  0  0  0  0  0  0  0  0  0  0
  1  2  2  6  0  0  0
  1 10  1  0  0  0  0
  3  1  1  0  0  0  0
  4 24  1  0  0  0  0
  4  3  2  0  0  0  0
  5  4  1  0  0  0  0
  6  5  2  0  0  0  0
  6  7  1  0  0  0  0
  7  8  2  0  0  0  0
  8  3  1  0  0  0  0
  8 27  1  0  0  0  0
  9  6  1  0  0  0  0
 10 11  1  0  0  0  0
 11 12  1  0  0  0  0
 12 31  1  0  0  0  0
 13 32  1  0  0  0  0
 13 12  2  0  0  0  0
 14 10  2  0  0  0  0
 14 13  1  0  0  0  0
 15 16  1  1  0  0  0
 15 14  1  0  0  0  0
 15 17  1  0  0  0  0
 18 15  1  0  0  0  0
 19 34  1  0  0  0  0
 19 18  2  0  0  0  0
 20 19  1  0  0  0  0
 21 20  2  0  0  0  0
 21 22  1  0  0  0  0
 22 23  2  0  0  0  0
 23 18  1  0  0  0  0
 23 38  1  0  0  0  0
 25  5  1  0  0  0  0
 26  7  1  0  0  0  0
 28  9  1  0  0  0  0
 29  9  1  0  0  0  0
 30  9  1  0  0  0  0
 33 17  1  0  0  0  0
 35 20  1  0  0  0  0
 36 21  1  0  0  0  0
 37 22  1  0  0  0  0
M  END
$$$$
