rmsd150.gzmat
 OpenBabel08211713403D

 38 40  0  0  1  0  0  0  0  0999 V2000
    0.0000    0.0000    0.0000 S   0  0  2  0  0  0  0  0  0  0  0  0
    1.4962    0.0000    0.0000 O   0  0  0  0  0  0  0  0  0  0  0  0
   -0.4579    0.0000   -1.7281 C   0  0  0  0  0  0  0  0  0  0  0  0
   -1.7752    0.2433   -2.1047 C   0  0  0  0  0  0  0  0  0  0  0  0
   -2.1163    0.2546   -3.4544 C   0  0  0  0  0  0  0  0  0  0  0  0
   -1.1408    0.0200   -4.4278 C   0  0  0  0  0  0  0  0  0  0  0  0
    0.1769   -0.2360   -4.0397 C   0  0  0  0  0  0  0  0  0  0  0  0
    0.5188   -0.2403   -2.6902 C   0  0  0  0  0  0  0  0  0  0  0  0
   -1.4904    0.0548   -5.8759 C   0  0  0  0  0  0  0  0  0  0  0  0
   -0.4276    1.6887    0.3528 C   0  0  0  0  0  0  0  0  0  0  0  0
   -1.7355    1.8670    0.7696 O   0  0  0  0  0  0  0  0  0  0  0  0
   -1.8808    3.2154    1.0203 C   0  0  0  0  0  0  0  0  0  0  0  0
   -0.7100    3.8800    0.7832 C   0  0  0  0  0  0  0  0  0  0  0  0
    0.2395    2.8837    0.3440 C   0  0  0  0  0  0  0  0  0  0  0  0
    1.6535    3.1710   -0.0493 C   0  0  1  0  0  0  0  0  0  0  0  0
    1.9633    4.2079    0.2480 H   0  0  0  0  0  0  0  0  0  0  0  0
    2.5446    2.3787    0.6853 O   0  0  0  0  0  0  0  0  0  0  0  0
    1.8248    2.9857   -1.5415 C   0  0  0  0  0  0  0  0  0  0  0  0
    2.9139    2.2691   -2.0334 C   0  0  0  0  0  0  0  0  0  0  0  0
    3.0760    2.1092   -3.4085 C   0  0  0  0  0  0  0  0  0  0  0  0
    2.1522    2.6650   -4.2912 C   0  0  0  0  0  0  0  0  0  0  0  0
    1.0635    3.3831   -3.7978 C   0  0  0  0  0  0  0  0  0  0  0  0
    0.9013    3.5473   -2.4248 C   0  0  0  0  0  0  0  0  0  0  0  0
   -2.5512    0.4379   -1.3622 H   0  0  0  0  0  0  0  0  0  0  0  0
   -3.1433    0.4538   -3.7505 H   0  0  0  0  0  0  0  0  0  0  0  0
    0.9411   -0.4168   -4.7928 H   0  0  0  0  0  0  0  0  0  0  0  0
    1.5628   -0.4134   -2.3985 H   0  0  0  0  0  0  0  0  0  0  0  0
   -1.1244   -0.8387   -6.4032 H   0  0  0  0  0  0  0  0  0  0  0  0
   -1.0353    0.9292   -6.3680 H   0  0  0  0  0  0  0  0  0  0  0  0
   -2.5722    0.1121   -6.0535 H   0  0  0  0  0  0  0  0  0  0  0  0
   -2.8603    3.4784    1.3447 H   0  0  0  0  0  0  0  0  0  0  0  0
   -0.4986    4.9230    0.8937 H   0  0  0  0  0  0  0  0  0  0  0  0
    2.3704    1.4062    0.5373 H   0  0  0  0  0  0  0  0  0  0  0  0
    3.6363    1.8313   -1.3395 H   0  0  0  0  0  0  0  0  0  0  0  0
    3.9285    1.5518   -3.7901 H   0  0  0  0  0  0  0  0  0  0  0  0
    2.2798    2.5413   -5.3634 H   0  0  0  0  0  0  0  0  0  0  0  0
    0.3393    3.8141   -4.4846 H   0  0  0  0  0  0  0  0  0  0  0  0
    0.0495    4.1062   -2.0422 H   0  0  0  0  0  0  0  0  0  0  0  0
  1  2  2  6  0  0  0
  1 10  1  0  0  0  0
  3  1  1  0  0  0  0
  4  3  1  0  0  0  0
  4 24  1  0  0  0  0
  5  4  2  0  0  0  0
  6  7  2  0  0  0  0
  6  5  1  0  0  0  0
  7  8  1  0  0  0  0
  8 27  1  0  0  0  0
  8  3  2  0  0  0  0
  9  6  1  0  0  0  0
 10 11  1  0  0  0  0
 11 12  1  0  0  0  0
 12 31  1  0  0  0  0
 13 32  1  0  0  0  0
 13 12  2  0  0  0  0
 14 10  2  0  0  0  0
 14 13  1  0  0  0  0
 15 16  1  1  0  0  0
 15 14  1  0  0  0  0
 15 17  1  0  0  0  0
 18 15  1  0  0  0  0
 19 18  1  0  0  0  0
 19 34  1  0  0  0  0
 20 19  2  0  0  0  0
 21 22  2  0  0  0  0
 21 20  1  0  0  0  0
 22 23  1  0  0  0  0
 23 38  1  0  0  0  0
 23 18  2  0  0  0  0
 25  5  1  0  0  0  0
 26  7  1  0  0  0  0
 28  9  1  0  0  0  0
 29  9  1  0  0  0  0
 30  9  1  0  0  0  0
 33 17  1  0  0  0  0
 35 20  1  0  0  0  0
 36 21  1  0  0  0  0
 37 22  1  0  0  0  0
M  END
$$$$
