38
rmsd135.gzmat
S          0.00000        0.00000        0.00000
O          1.49600        0.00000        0.00000
C         -0.45820        0.00000       -1.72820
C         -1.76950        0.27450       -2.10750
C         -2.11330        0.26810       -3.45550
C         -1.14680       -0.01350       -4.42760
C          0.16310       -0.29750       -4.03790
C          0.50840       -0.28420       -2.68720
C         -1.51880        0.01050       -5.87030
C         -0.42530        1.68550        0.36780
O         -1.72580        1.86140        0.80850
C         -1.86480        3.20760        1.07440
C         -0.69760        3.87310        0.82290
C          0.24360        2.87940        0.35970
C          1.65250        3.16800       -0.05080
H          1.96350        4.20560        0.24340
O          2.55320        2.37790        0.67380
C          1.80680        2.98370       -1.54480
C          0.86820        3.54180       -2.41450
C          1.00920        3.37560       -3.78940
C          2.09170        2.65930       -4.29830
C          3.03260        2.11030       -3.42970
C          2.89260        2.27320       -2.05230
H         -2.53680        0.50750       -1.36710
H         -3.13430        0.49030       -3.75590
H          0.92220       -0.51530       -4.78590
H          1.54860       -0.47930       -2.39630
H         -0.72950       -0.39160       -6.52010
H         -1.71710        1.04080       -6.20600
H         -2.42670       -0.57580       -6.07010
H         -2.83750        3.46900        1.41930
H         -0.48310        4.91490        0.93700
H          2.37690        1.40520        0.53170
H          0.02150        4.09930       -2.02000
H          0.27270        3.80150       -4.46560
H          2.20120        2.53250       -5.37230
H          3.87980        1.55420       -3.82540
H          3.62880        1.84370       -1.36860
