38
rmsd218.gzmat
S          0.00000        0.00000        0.00000
O          1.49580        0.00000        0.00000
C         -0.45910        0.00000       -1.72770
C          0.52260       -0.18720       -2.69500
C          0.17730       -0.17110       -4.04500
C         -1.14840        0.04350       -4.42500
C         -2.13220        0.21460       -3.44440
C         -1.78790        0.19360       -2.09690
C         -1.52070        0.11790       -5.86560
C         -0.43130        1.69020        0.34390
O         -1.74730        1.86980        0.73390
C         -1.89860        3.21930        0.97380
C         -0.72390        3.88330        0.75670
C          0.23510        2.88530        0.34110
C          1.65620        3.17450       -0.02250
H          1.95870        4.20760        0.29570
O          2.53310        2.37260        0.71890
C          1.86380        3.00960       -1.51220
C          0.93690        3.53630       -2.41270
C          1.13540        3.38650       -3.78260
C          2.26140        2.71400       -4.25560
C          3.19210        2.19860       -3.35560
C          2.99590        2.34760       -1.98400
H          1.57370       -0.32690       -2.41010
H          0.94830       -0.30870       -4.79990
H         -3.16680        0.37190       -3.73860
H         -2.56840        0.34240       -1.34850
H         -2.40600       -0.49210       -6.09380
H         -0.71580       -0.22240       -6.53120
H         -1.75830        1.15510       -6.15190
H         -2.88440        3.48360        1.27730
H         -0.51640        4.92710        0.86930
H          2.36910        1.40220        0.54650
H          0.05450        4.05750       -2.04730
H          0.40910        3.79440       -4.48100
H          2.41470        2.59630       -5.32540
H          4.07660        1.68170       -3.72130
H          3.72480        1.94640       -1.27550
