rmsd91.gzmat
 OpenBabel08211713393D

 46 47  0  0  1  0  0  0  0  0999 V2000
    0.0000    0.0000    0.0000 S   0  0  0  0  0  0  0  0  0  0  0  0
    1.6591    0.0000    0.0000 C   0  0  0  0  0  0  0  0  0  0  0  0
    2.4201    0.0000    1.1102 N   0  0  0  0  0  0  0  0  0  0  0  0
    3.8730   -0.0373    0.8535 C   0  0  0  0  0  0  0  0  0  0  0  0
    3.9999    0.0266   -0.6832 C   0  0  0  0  0  0  0  0  0  0  0  0
    2.5509   -0.0474   -1.2293 C   0  0  2  0  0  0  0  0  0  0  0  0
    2.4015   -1.0504   -1.7254 H   0  0  0  0  0  0  0  0  0  0  0  0
    2.2007    1.0458   -2.2545 C   0  0  2  0  0  0  0  0  0  0  0  0
    1.1281    0.8949   -2.5560 H   0  0  0  0  0  0  0  0  0  0  0  0
    3.0785    0.9292   -3.5143 C   0  0  0  0  0  0  0  0  0  0  0  0
    2.7782   -0.3200   -4.3116 C   0  0  0  0  0  0  0  0  0  0  0  0
    2.8085   -1.4198   -3.8193 O   0  0  0  0  0  0  0  0  0  0  0  0
    2.4964   -0.1163   -5.7544 C   0  0  0  0  0  0  0  0  0  0  0  0
    1.2044    0.1983   -6.1821 C   0  0  0  0  0  0  0  0  0  0  0  0
    0.9588    0.3757   -7.5455 C   0  0  0  0  0  0  0  0  0  0  0  0
    1.9934    0.2356   -8.4702 C   0  0  0  0  0  0  0  0  0  0  0  0
    3.2814   -0.0894   -8.0356 C   0  0  0  0  0  0  0  0  0  0  0  0
    3.5356   -0.2721   -6.6777 C   0  0  0  0  0  0  0  0  0  0  0  0
    4.9032   -0.6389   -6.2090 C   0  0  0  0  0  0  0  0  0  0  0  0
    1.7352    0.4188   -9.9274 C   0  0  0  0  0  0  0  0  0  0  0  0
    0.0941    0.3461   -5.1993 C   0  0  0  0  0  0  0  0  0  0  0  0
    2.3384    2.4573   -1.6751 C   0  0  0  0  0  0  0  0  0  0  0  0
    1.9296    0.0103    2.4796 C   0  0  0  0  0  0  0  0  0  0  0  0
    4.3739    0.8186    1.3497 H   0  0  0  0  0  0  0  0  0  0  0  0
    4.3089   -0.9721    1.2662 H   0  0  0  0  0  0  0  0  0  0  0  0
    4.5050    0.9538   -0.9992 H   0  0  0  0  0  0  0  0  0  0  0  0
    4.6057   -0.8072   -1.0760 H   0  0  0  0  0  0  0  0  0  0  0  0
    4.1520    0.9239   -3.2393 H   0  0  0  0  0  0  0  0  0  0  0  0
    2.9399    1.8314   -4.1448 H   0  0  0  0  0  0  0  0  0  0  0  0
   -0.0445    0.6179   -7.8867 H   0  0  0  0  0  0  0  0  0  0  0  0
    4.0813   -0.2068   -8.7607 H   0  0  0  0  0  0  0  0  0  0  0  0
    5.3237    0.1285   -5.5441 H   0  0  0  0  0  0  0  0  0  0  0  0
    5.6150   -0.7753   -7.0337 H   0  0  0  0  0  0  0  0  0  0  0  0
    4.8827   -1.5879   -5.6451 H   0  0  0  0  0  0  0  0  0  0  0  0
    2.4595    1.1092  -10.3830 H   0  0  0  0  0  0  0  0  0  0  0  0
    0.7339    0.8189  -10.1353 H   0  0  0  0  0  0  0  0  0  0  0  0
    1.8173   -0.5391  -10.4643 H   0  0  0  0  0  0  0  0  0  0  0  0
    0.2043    1.2680   -4.6070 H   0  0  0  0  0  0  0  0  0  0  0  0
    0.0615   -0.4978   -4.4886 H   0  0  0  0  0  0  0  0  0  0  0  0
   -0.8940    0.3898   -5.6772 H   0  0  0  0  0  0  0  0  0  0  0  0
    1.9651    3.2117   -2.3775 H   0  0  0  0  0  0  0  0  0  0  0  0
    3.3748    2.7102   -1.4352 H   0  0  0  0  0  0  0  0  0  0  0  0
    1.7525    2.5694   -0.7539 H   0  0  0  0  0  0  0  0  0  0  0  0
    1.4222    0.9694    2.7082 H   0  0  0  0  0  0  0  0  0  0  0  0
    2.7522   -0.1297    3.1985 H   0  0  0  0  0  0  0  0  0  0  0  0
    1.1878   -0.8003    2.6406 H   0  0  0  0  0  0  0  0  0  0  0  0
  1  2  2  0  0  0  0
  2  3  1  0  0  0  0
  3 23  1  0  0  0  0
  4  3  1  0  0  0  0
  4 25  1  0  0  0  0
  4 24  1  0  0  0  0
  5  4  1  0  0  0  0
  6  7  1  6  0  0  0
  6  5  1  0  0  0  0
  6  2  1  0  0  0  0
  8  9  1  6  0  0  0
  8 22  1  0  0  0  0
  8  6  1  0  0  0  0
 10 28  1  0  0  0  0
 10  8  1  0  0  0  0
 11 12  2  0  0  0  0
 11 10  1  0  0  0  0
 13 11  1  0  0  0  0
 14 13  1  0  0  0  0
 14 21  1  0  0  0  0
 15 14  2  0  0  0  0
 16 17  2  0  0  0  0
 16 15  1  0  0  0  0
 17 18  1  0  0  0  0
 18 19  1  0  0  0  0
 18 13  2  0  0  0  0
 19 34  1  0  0  0  0
 19 32  1  0  0  0  0
 20 16  1  0  0  0  0
 21 38  1  0  0  0  0
 21 39  1  0  0  0  0
 22 42  1  0  0  0  0
 22 43  1  0  0  0  0
 23 46  1  0  0  0  0
 23 44  1  0  0  0  0
 23 45  1  0  0  0  0
 26  5  1  0  0  0  0
 27  5  1  0  0  0  0
 29 10  1  0  0  0  0
 30 15  1  0  0  0  0
 31 17  1  0  0  0  0
 33 19  1  0  0  0  0
 35 20  1  0  0  0  0
 36 20  1  0  0  0  0
 37 20  1  0  0  0  0
 40 21  1  0  0  0  0
 41 22  1  0  0  0  0
M  END
$$$$
