
     RDKit          3D

 46 47  0  0  0  0  0  0  0  0999 V2000
   -0.1551    0.4655   -0.4752 S   0  0  0  0  0  0  0  0  0  0  0  0
    1.4650    0.1890   -0.2420 C   0  0  0  0  0  0  0  0  0  0  0  0
    2.1206    0.1805    0.9361 N   0  0  0  0  0  0  0  0  0  0  0  0
    3.5657    0.0108    0.8222 C   0  0  0  0  0  0  0  0  0  0  0  0
    3.7703   -0.4572   -0.6253 C   0  0  0  0  0  0  0  0  0  0  0  0
    2.4703   -0.0594   -1.3584 C   0  0  2  0  0  0  0  0  0  0  0  0
    2.1029   -0.9019   -1.9560 H   0  0  0  0  0  0  0  0  0  0  0  0
    2.5709    1.1678   -2.2940 C   0  0  2  0  0  0  0  0  0  0  0  0
    1.5412    1.3692   -2.6328 H   0  0  0  0  0  0  0  0  0  0  0  0
    3.4331    0.8729   -3.5424 C   0  0  0  0  0  0  0  0  0  0  0  0
    2.8118   -0.2334   -4.3789 C   0  0  0  0  0  0  0  0  0  0  0  0
    3.0818   -1.3985   -4.1566 O   0  0  0  0  0  0  0  0  0  0  0  0
    1.7784    0.1637   -5.4013 C   0  0  0  0  0  0  0  0  0  0  0  0
    0.4485   -0.3049   -5.2658 C   0  0  0  0  0  0  0  0  0  0  0  0
   -0.4982    0.0981   -6.2115 C   0  0  0  0  0  0  0  0  0  0  0  0
   -0.1675    0.9179   -7.2989 C   0  0  0  0  0  0  0  0  0  0  0  0
    1.1600    1.3309   -7.4309 C   0  0  0  0  0  0  0  0  0  0  0  0
    2.1411    0.9734   -6.4960 C   0  0  0  0  0  0  0  0  0  0  0  0
    3.5625    1.4404   -6.7198 C   0  0  0  0  0  0  0  0  0  0  0  0
   -1.2210    1.3263   -8.2966 C   0  0  0  0  0  0  0  0  0  0  0  0
    0.0280   -1.2014   -4.1267 C   0  0  0  0  0  0  0  0  0  0  0  0
    3.0734    2.4214   -1.5733 C   0  0  0  0  0  0  0  0  0  0  0  0
    1.5184    0.4557    2.2184 C   0  0  0  0  0  0  0  0  0  0  0  0
    4.0726    0.9702    1.0361 H   0  0  0  0  0  0  0  0  0  0  0  0
    3.9204   -0.7190    1.5689 H   0  0  0  0  0  0  0  0  0  0  0  0
    4.6705   -0.0163   -1.0743 H   0  0  0  0  0  0  0  0  0  0  0  0
    3.8964   -1.5482   -0.6608 H   0  0  0  0  0  0  0  0  0  0  0  0
    4.4449    0.5551   -3.2445 H   0  0  0  0  0  0  0  0  0  0  0  0
    3.5164    1.8020   -4.1211 H   0  0  0  0  0  0  0  0  0  0  0  0
   -1.5293   -0.2503   -6.1009 H   0  0  0  0  0  0  0  0  0  0  0  0
    1.4479    1.9426   -8.2910 H   0  0  0  0  0  0  0  0  0  0  0  0
    3.7499    2.4201   -6.2477 H   0  0  0  0  0  0  0  0  0  0  0  0
    3.7623    1.5603   -7.7948 H   0  0  0  0  0  0  0  0  0  0  0  0
    4.3054    0.7342   -6.3216 H   0  0  0  0  0  0  0  0  0  0  0  0
   -0.7886    1.8925   -9.1343 H   0  0  0  0  0  0  0  0  0  0  0  0
   -1.9902    1.9591   -7.8227 H   0  0  0  0  0  0  0  0  0  0  0  0
   -1.7404    0.4469   -8.7111 H   0  0  0  0  0  0  0  0  0  0  0  0
    0.0279   -0.6662   -3.1612 H   0  0  0  0  0  0  0  0  0  0  0  0
    0.7042   -2.0614   -4.0316 H   0  0  0  0  0  0  0  0  0  0  0  0
   -0.9935   -1.5738   -4.2873 H   0  0  0  0  0  0  0  0  0  0  0  0
    3.0556    3.2913   -2.2477 H   0  0  0  0  0  0  0  0  0  0  0  0
    4.1108    2.3014   -1.2200 H   0  0  0  0  0  0  0  0  0  0  0  0
    2.4365    2.6606   -0.7081 H   0  0  0  0  0  0  0  0  0  0  0  0
    1.8736    1.4226    2.6170 H   0  0  0  0  0  0  0  0  0  0  0  0
    1.7799   -0.3350    2.9408 H   0  0  0  0  0  0  0  0  0  0  0  0
    0.4291    0.4987    2.0869 H   0  0  0  0  0  0  0  0  0  0  0  0
  1  2  2  0
  2  3  1  0
  2  6  1  0
  3  4  1  0
  3 23  1  0
  4  5  1  0
  4 24  1  0
  4 25  1  0
  5  6  1  0
  5 26  1  0
  5 27  1  0
  6  7  1  6
  6  8  1  0
  8  9  1  6
  8 10  1  0
  8 22  1  0
 10 11  1  0
 10 28  1  0
 10 29  1  0
 11 12  2  0
 11 13  1  0
 13 14  2  0
 13 18  1  0
 14 15  1  0
 14 21  1  0
 15 16  2  0
 15 30  1  0
 16 17  1  0
 16 20  1  0
 17 18  2  0
 17 31  1  0
 18 19  1  0
 19 32  1  0
 19 33  1  0
 19 34  1  0
 20 35  1  0
 20 36  1  0
 20 37  1  0
 21 38  1  0
 21 39  1  0
 21 40  1  0
 22 41  1  0
 22 42  1  0
 22 43  1  0
 23 44  1  0
 23 45  1  0
 23 46  1  0
M  END

