46
rmsd100.gzmat
S          0.00000        0.00000        0.00000
C          1.65850        0.00000        0.00000
N          2.42020        0.00000        1.10960
C          3.87250       -0.04830        0.85230
C          3.99870       -0.02650       -0.68540
C          2.54780       -0.03780       -1.23110
H          2.36940       -1.01480       -1.76530
C          2.22860        1.10610       -2.21110
H          1.14540        1.01460       -2.49970
C          3.08070        0.98970       -3.48790
C          2.64930       -0.18310       -4.34070
O          2.69080       -1.31720       -3.93520
C          2.21430        0.15120       -5.71940
C          0.87260        0.43070       -5.98750
C          0.48870        0.75730       -7.29050
C          1.43390        0.79650       -8.31460
C          2.77290        0.50420       -8.04060
C          3.16450        0.17080       -6.74550
C          4.58730       -0.16860       -6.45340
C          1.02560        1.13360       -9.70900
C         -0.14820        0.38810       -4.90340
C          2.43740        2.48870       -1.58650
C          1.92780       -0.00450        2.47830
H          4.37470        0.82100        1.32370
H          4.30760       -0.97110        1.29050
H          4.55230        0.86300       -1.02610
H          4.55910       -0.90080       -1.05660
H          4.15180        0.87430       -3.23200
H          3.01190        1.93290       -4.06680
H         -0.55410        0.97570       -7.50600
H          3.50690        0.53190       -8.84080
H          5.05900        0.59190       -5.81540
H          5.19790       -0.25320       -7.36210
H          4.66590       -1.13570       -5.92820
H          1.62630        1.95870      -10.11800
H         -0.02800        1.43450       -9.78460
H          1.16230        0.26990      -10.37810
H         -0.11370        1.29910       -4.28520
H          0.00070       -0.47220       -4.22800
H         -1.17350        0.30500       -5.29050
H          2.09530        3.28290       -2.26080
H          3.48640        2.68430       -1.34820
H          1.86460        2.59700       -0.65650
H          1.27270        0.87120        2.66350
H          2.75820        0.02700        3.20110
H          1.32360       -0.91380        2.67740
