
     RDKit          3D

 46 47  0  0  0  0  0  0  0  0999 V2000
    0.0204    0.9057   -0.3110 S   0  0  0  0  0  0  0  0  0  0  0  0
    1.5943    0.4044   -0.1417 C   0  0  0  0  0  0  0  0  0  0  0  0
    2.1935   -0.0034    0.9963 N   0  0  0  0  0  0  0  0  0  0  0  0
    3.5529   -0.5034    0.8008 C   0  0  0  0  0  0  0  0  0  0  0  0
    3.9502    0.0696   -0.5622 C   0  0  0  0  0  0  0  0  0  0  0  0
    2.6005    0.2516   -1.2763 C   0  0  2  0  0  0  0  0  0  0  0  0
    2.3396   -0.7101   -1.7482 H   0  0  0  0  0  0  0  0  0  0  0  0
    2.5197    1.3413   -2.3569 C   0  0  2  0  0  0  0  0  0  0  0  0
    1.4678    1.3596   -2.6866 H   0  0  0  0  0  0  0  0  0  0  0  0
    3.4046    0.9975   -3.5787 C   0  0  0  0  0  0  0  0  0  0  0  0
    2.9317   -0.2882   -4.2316 C   0  0  0  0  0  0  0  0  0  0  0  0
    3.3519   -1.3667   -3.8554 O   0  0  0  0  0  0  0  0  0  0  0  0
    1.8452   -0.1781   -5.2707 C   0  0  0  0  0  0  0  0  0  0  0  0
    2.1081    0.4639   -6.4965 C   0  0  0  0  0  0  0  0  0  0  0  0
    1.0839    0.5533   -7.4490 C   0  0  0  0  0  0  0  0  0  0  0  0
   -0.1915    0.0375   -7.2087 C   0  0  0  0  0  0  0  0  0  0  0  0
   -0.4231   -0.6072   -5.9860 C   0  0  0  0  0  0  0  0  0  0  0  0
    0.5721   -0.7413   -5.0142 C   0  0  0  0  0  0  0  0  0  0  0  0
    0.2598   -1.4535   -3.7199 C   0  0  0  0  0  0  0  0  0  0  0  0
   -1.2930    0.1558   -8.2308 C   0  0  0  0  0  0  0  0  0  0  0  0
    3.4692    1.0332   -6.8290 C   0  0  0  0  0  0  0  0  0  0  0  0
    2.8486    2.7404   -1.8303 C   0  0  0  0  0  0  0  0  0  0  0  0
    1.5324   -0.1544    2.2702 C   0  0  0  0  0  0  0  0  0  0  0  0
    4.2038   -0.1734    1.6264 H   0  0  0  0  0  0  0  0  0  0  0  0
    3.5490   -1.6105    0.8035 H   0  0  0  0  0  0  0  0  0  0  0  0
    4.4504    1.0400   -0.4254 H   0  0  0  0  0  0  0  0  0  0  0  0
    4.6269   -0.5916   -1.1188 H   0  0  0  0  0  0  0  0  0  0  0  0
    4.4532    0.8692   -3.2660 H   0  0  0  0  0  0  0  0  0  0  0  0
    3.3502    1.8370   -4.2844 H   0  0  0  0  0  0  0  0  0  0  0  0
    1.2954    1.0342   -8.4085 H   0  0  0  0  0  0  0  0  0  0  0  0
   -1.4119   -1.0298   -5.7851 H   0  0  0  0  0  0  0  0  0  0  0  0
    1.0282   -2.2026   -3.4860 H   0  0  0  0  0  0  0  0  0  0  0  0
   -0.7138   -1.9595   -3.7833 H   0  0  0  0  0  0  0  0  0  0  0  0
    0.2038   -0.7509   -2.8706 H   0  0  0  0  0  0  0  0  0  0  0  0
   -2.1268    0.7662   -7.8453 H   0  0  0  0  0  0  0  0  0  0  0  0
   -1.7100   -0.8326   -8.4845 H   0  0  0  0  0  0  0  0  0  0  0  0
   -0.9355    0.6226   -9.1601 H   0  0  0  0  0  0  0  0  0  0  0  0
    4.2863    0.4783   -6.3454 H   0  0  0  0  0  0  0  0  0  0  0  0
    3.5563    2.0882   -6.5174 H   0  0  0  0  0  0  0  0  0  0  0  0
    3.6448    1.0041   -7.9144 H   0  0  0  0  0  0  0  0  0  0  0  0
    2.6530    3.4970   -2.6057 H   0  0  0  0  0  0  0  0  0  0  0  0
    3.9072    2.8351   -1.5393 H   0  0  0  0  0  0  0  0  0  0  0  0
    2.2211    2.9843   -0.9603 H   0  0  0  0  0  0  0  0  0  0  0  0
    1.3970   -1.2225    2.5178 H   0  0  0  0  0  0  0  0  0  0  0  0
    0.5470    0.3259    2.2077 H   0  0  0  0  0  0  0  0  0  0  0  0
    2.1312    0.3148    3.0677 H   0  0  0  0  0  0  0  0  0  0  0  0
  1  2  2  0
  2  3  1  0
  2  6  1  0
  3  4  1  0
  3 23  1  0
  4  5  1  0
  4 24  1  0
  4 25  1  0
  5  6  1  0
  5 26  1  0
  5 27  1  0
  6  7  1  6
  6  8  1  0
  8  9  1  6
  8 10  1  0
  8 22  1  0
 10 11  1  0
 10 28  1  0
 10 29  1  0
 11 12  2  0
 11 13  1  0
 13 14  2  0
 13 18  1  0
 14 15  1  0
 14 21  1  0
 15 16  2  0
 15 30  1  0
 16 17  1  0
 16 20  1  0
 17 18  2  0
 17 31  1  0
 18 19  1  0
 19 32  1  0
 19 33  1  0
 19 34  1  0
 20 35  1  0
 20 36  1  0
 20 37  1  0
 21 38  1  0
 21 39  1  0
 21 40  1  0
 22 41  1  0
 22 42  1  0
 22 43  1  0
 23 44  1  0
 23 45  1  0
 23 46  1  0
M  END

