46

S          0.06060        0.34210        0.11170
C          1.70890        0.09290        0.06310
N          2.52250       -0.02050        1.12730
C          3.93360       -0.22550        0.81120
C          3.95630       -0.43760       -0.70850
C          2.53930       -0.05410       -1.20660
H          2.10500       -0.90840       -1.74650
C          2.45760        1.15530       -2.19560
H          3.43670        1.19220       -2.70130
C          2.22070        2.52910       -1.55670
C          3.31090        3.10040       -0.68440
O          4.34870        2.51420       -0.43980
C          3.05550        4.49340       -0.16020
C          3.57450        5.59230       -0.87090
C          3.32220        6.88230       -0.39100
C          2.57810        7.10290        0.77460
C          2.09660        5.98910        1.47240
C          2.32170        4.68130        1.02560
C          1.82550        3.50040        1.82200
C          2.28630        8.50280        1.25270
C          4.40810        5.38010       -2.11130
C          1.37650        0.90650       -3.25560
C          2.09580        0.01730        2.50600
H          4.51150        0.66290        1.11400
H          4.31440       -1.09300        1.37640
H          4.73070        0.18190       -1.17310
H          4.16550       -1.49110       -0.94450
H          1.28070        2.52990       -0.97890
H          2.04580        3.27890       -2.34930
H          3.72370        7.73840       -0.94110
H          1.53200        6.13940        2.39720
H          1.10070        2.88500        1.26440
H          1.33860        3.82550        2.75220
H          2.66240        2.83830        2.09160
H          2.15310        8.53730        2.34450
H          1.35760        8.88930        0.79760
H          3.09510        9.19870        0.98270
H          3.86110        4.80830       -2.87930
H          5.31920        4.80680       -1.87930
H          4.70790        6.33800       -2.55900
H          1.34530        1.72510       -3.99240
H          0.38810        0.82680       -2.77850
H          1.56790       -0.03150       -3.80040
H          2.24560       -0.96760        2.98130
H          1.03020        0.27870        2.53520
H          2.68180        0.76400        3.06520
