46

S         -0.00160        0.30850        0.07630
C          1.64800        0.13100        0.03380
N          2.44900       -0.20870        1.06660
C          3.84740       -0.40310        0.68990
C          3.95540        0.31870       -0.65570
C          2.52380        0.24800       -1.20890
H          2.41250       -0.71940       -1.72540
C          2.09740        1.34690       -2.19360
H          1.04930        1.12180       -2.44290
C          2.92830        1.34290       -3.49480
C          3.02350        0.02990       -4.26320
O          3.49690       -0.96160       -3.73530
C          2.63900        0.01530       -5.71670
C          1.35410        0.41980       -6.13730
C          1.04680        0.38060       -7.50370
C          1.97970       -0.02630       -8.46100
C          3.24560       -0.43070       -8.01730
C          3.59080       -0.43660       -6.66340
C          4.96180       -0.91630       -6.25110
C          1.64450       -0.03560       -9.93030
C          0.28350        0.84550       -5.16020
C          2.11900        2.74980       -1.57850
C          1.98740       -0.56540        2.38620
H          4.51280        0.00610        1.46730
H          4.06630       -1.48480        0.60140
H          4.25850        1.36420       -0.49240
H          4.67730       -0.15170       -1.33560
H          3.97560        1.59760       -3.24910
H          2.56710        2.14280       -4.15590
H          0.04350        0.67330       -7.82580
H          3.98710       -0.76170       -8.75040
H          5.46770       -0.19810       -5.58680
H          5.59910       -1.07320       -7.13300
H          4.89400       -1.85930       -5.68980
H          2.24980        0.70600      -10.47850
H          0.58490        0.20000      -10.10590
H          1.85560       -1.01850      -10.38180
H          0.45130        1.86710       -4.78200
H          0.23200        0.18110       -4.28520
H         -0.70410        0.83680       -5.64230
H          1.71180        3.48790       -2.28740
H          3.14170        3.07240       -1.32360
H          1.50160        2.78370       -0.66960
H          0.92810       -0.28770        2.46770
H          2.57720       -0.03560        3.15200
H          2.08840       -1.65210        2.55830
