rmsd99.gzmat
 OpenBabel08211713393D

 46 47  0  0  1  0  0  0  0  0999 V2000
    0.0000    0.0000    0.0000 S   0  0  0  0  0  0  0  0  0  0  0  0
    1.6586    0.0000    0.0000 C   0  0  0  0  0  0  0  0  0  0  0  0
    2.4217    0.0000    1.1083 N   0  0  0  0  0  0  0  0  0  0  0  0
    3.8740   -0.0167    0.8483 C   0  0  0  0  0  0  0  0  0  0  0  0
    3.9954   -0.0920   -0.6881 C   0  0  0  0  0  0  0  0  0  0  0  0
    2.5454   -0.0304   -1.2333 C   0  0  2  0  0  0  0  0  0  0  0  0
    2.3305   -0.9763   -1.8072 H   0  0  0  0  0  0  0  0  0  0  0  0
    2.2677    1.1653   -2.1641 C   0  0  2  0  0  0  0  0  0  0  0  0
    1.1764    1.1395   -2.4361 H   0  0  0  0  0  0  0  0  0  0  0  0
    3.0916    1.0465   -3.4587 C   0  0  0  0  0  0  0  0  0  0  0  0
    2.5377   -0.0458   -4.3485 C   0  0  0  0  0  0  0  0  0  0  0  0
    2.5908   -1.2081   -4.0347 O   0  0  0  0  0  0  0  0  0  0  0  0
    1.9560    0.4103   -5.6342 C   0  0  0  0  0  0  0  0  0  0  0  0
    0.5809    0.6256   -5.7507 C   0  0  0  0  0  0  0  0  0  0  0  0
    0.0638    1.0901   -6.9627 C   0  0  0  0  0  0  0  0  0  0  0  0
    0.9075    1.3165   -8.0493 C   0  0  0  0  0  0  0  0  0  0  0  0
    2.2790    1.0747   -7.9316 C   0  0  0  0  0  0  0  0  0  0  0  0
    2.8065    0.6193   -6.7253 C   0  0  0  0  0  0  0  0  0  0  0  0
    4.2699    0.3583   -6.5963 C   0  0  0  0  0  0  0  0  0  0  0  0
    0.3511    1.7982   -9.3465 C   0  0  0  0  0  0  0  0  0  0  0  0
   -0.3369    0.3786   -4.6039 C   0  0  0  0  0  0  0  0  0  0  0  0
    2.5538    2.5119   -1.4943 C   0  0  0  0  0  0  0  0  0  0  0  0
    1.9298   -0.0010    2.4771 C   0  0  0  0  0  0  0  0  0  0  0  0
    4.3440    0.9018    1.2567 H   0  0  0  0  0  0  0  0  0  0  0  0
    4.3455   -0.8883    1.3466 H   0  0  0  0  0  0  0  0  0  0  0  0
    4.6145    0.7298   -1.0811 H   0  0  0  0  0  0  0  0  0  0  0  0
    4.4865   -1.0273   -1.0068 H   0  0  0  0  0  0  0  0  0  0  0  0
    4.1525    0.8299   -3.2292 H   0  0  0  0  0  0  0  0  0  0  0  0
    3.0909    2.0182   -3.9921 H   0  0  0  0  0  0  0  0  0  0  0  0
   -1.0037    1.2712   -7.0585 H   0  0  0  0  0  0  0  0  0  0  0  0
    2.9322    1.2398   -8.7835 H   0  0  0  0  0  0  0  0  0  0  0  0
    4.7510    1.0952   -5.9373 H   0  0  0  0  0  0  0  0  0  0  0  0
    4.7944    0.3987   -7.5602 H   0  0  0  0  0  0  0  0  0  0  0  0
    4.4642   -0.6411   -6.1733 H   0  0  0  0  0  0  0  0  0  0  0  0
    1.0108    2.5306   -9.8322 H   0  0  0  0  0  0  0  0  0  0  0  0
   -0.6316    2.2761   -9.2337 H   0  0  0  0  0  0  0  0  0  0  0  0
    0.2237    0.9597  -10.0494 H   0  0  0  0  0  0  0  0  0  0  0  0
   -0.3865    1.2522   -3.9340 H   0  0  0  0  0  0  0  0  0  0  0  0
   -0.0228   -0.4843   -3.9920 H   0  0  0  0  0  0  0  0  0  0  0  0
   -1.3664    0.1681   -4.9259 H   0  0  0  0  0  0  0  0  0  0  0  0
    2.2180    3.3444   -2.1245 H   0  0  0  0  0  0  0  0  0  0  0  0
    3.6176    2.6581   -1.2898 H   0  0  0  0  0  0  0  0  0  0  0  0
    2.0201    2.6041   -0.5401 H   0  0  0  0  0  0  0  0  0  0  0  0
    1.3318    0.9105    2.6824 H   0  0  0  0  0  0  0  0  0  0  0  0
    2.7602   -0.0420    3.1993 H   0  0  0  0  0  0  0  0  0  0  0  0
    1.2676   -0.8739    2.6566 H   0  0  0  0  0  0  0  0  0  0  0  0
  1  2  2  0  0  0  0
  2  3  1  0  0  0  0
  3 23  1  0  0  0  0
  4  3  1  0  0  0  0
  4 24  1  0  0  0  0
  4 25  1  0  0  0  0
  5  4  1  0  0  0  0
  6  7  1  6  0  0  0
  6  5  1  0  0  0  0
  6  2  1  0  0  0  0
  8  9  1  6  0  0  0
  8 22  1  0  0  0  0
  8  6  1  0  0  0  0
 10 28  1  0  0  0  0
 10  8  1  0  0  0  0
 11 12  2  0  0  0  0
 11 10  1  0  0  0  0
 13 11  1  0  0  0  0
 14 13  1  0  0  0  0
 14 21  1  0  0  0  0
 15 14  2  0  0  0  0
 16 17  2  0  0  0  0
 16 15  1  0  0  0  0
 17 18  1  0  0  0  0
 18 19  1  0  0  0  0
 18 13  2  0  0  0  0
 19 34  1  0  0  0  0
 19 32  1  0  0  0  0
 20 36  1  0  0  0  0
 20 16  1  0  0  0  0
 21 39  1  0  0  0  0
 21 38  1  0  0  0  0
 22 42  1  0  0  0  0
 22 43  1  0  0  0  0
 23 46  1  0  0  0  0
 23 44  1  0  0  0  0
 23 45  1  0  0  0  0
 26  5  1  0  0  0  0
 27  5  1  0  0  0  0
 29 10  1  0  0  0  0
 30 15  1  0  0  0  0
 31 17  1  0  0  0  0
 33 19  1  0  0  0  0
 35 20  1  0  0  0  0
 37 20  1  0  0  0  0
 40 21  1  0  0  0  0
 41 22  1  0  0  0  0
M  END
$$$$
