46
rmsd99.gzmat
S          0.00000        0.00000        0.00000
C          1.65860        0.00000        0.00000
N          2.42170        0.00000        1.10830
C          3.87400       -0.01670        0.84830
C          3.99540       -0.09200       -0.68810
C          2.54540       -0.03040       -1.23330
H          2.33050       -0.97630       -1.80720
C          2.26770        1.16530       -2.16410
H          1.17640        1.13950       -2.43610
C          3.09160        1.04650       -3.45870
C          2.53770       -0.04580       -4.34850
O          2.59080       -1.20810       -4.03470
C          1.95600        0.41030       -5.63420
C          0.58090        0.62560       -5.75070
C          0.06380        1.09010       -6.96270
C          0.90750        1.31650       -8.04930
C          2.27900        1.07470       -7.93160
C          2.80650        0.61930       -6.72530
C          4.26990        0.35830       -6.59630
C          0.35110        1.79820       -9.34650
C         -0.33690        0.37860       -4.60390
C          2.55380        2.51190       -1.49430
C          1.92980       -0.00100        2.47710
H          4.34400        0.90180        1.25670
H          4.34550       -0.88830        1.34660
H          4.61450        0.72980       -1.08110
H          4.48650       -1.02730       -1.00680
H          4.15250        0.82990       -3.22920
H          3.09090        2.01820       -3.99210
H         -1.00370        1.27120       -7.05850
H          2.93220        1.23980       -8.78350
H          4.75100        1.09520       -5.93730
H          4.79440        0.39870       -7.56020
H          4.46420       -0.64110       -6.17330
H          1.01080        2.53060       -9.83220
H         -0.63160        2.27610       -9.23370
H          0.22370        0.95970      -10.04940
H         -0.38650        1.25220       -3.93400
H         -0.02280       -0.48430       -3.99200
H         -1.36640        0.16810       -4.92590
H          2.21800        3.34440       -2.12450
H          3.61760        2.65810       -1.28980
H          2.02010        2.60410       -0.54010
H          1.33180        0.91050        2.68240
H          2.76020       -0.04200        3.19930
H          1.26760       -0.87390        2.65660
