
     RDKit          3D

 46 47  0  0  0  0  0  0  0  0999 V2000
    0.0748    0.2418    0.2011 S   0  0  0  0  0  0  0  0  0  0  0  0
    1.7284    0.0709    0.0959 C   0  0  0  0  0  0  0  0  0  0  0  0
    2.5897    0.0430    1.1309 N   0  0  0  0  0  0  0  0  0  0  0  0
    3.9943   -0.1231    0.7637 C   0  0  0  0  0  0  0  0  0  0  0  0
    3.9571   -0.4260   -0.7396 C   0  0  0  0  0  0  0  0  0  0  0  0
    2.5191   -0.0769   -1.1992 C   0  0  2  0  0  0  0  0  0  0  0  0
    2.0867   -0.9428   -1.7211 H   0  0  0  0  0  0  0  0  0  0  0  0
    2.3803    1.1258   -2.1902 C   0  0  2  0  0  0  0  0  0  0  0  0
    3.3303    1.1622   -2.7480 H   0  0  0  0  0  0  0  0  0  0  0  0
    2.1751    2.5028   -1.5460 C   0  0  0  0  0  0  0  0  0  0  0  0
    3.3360    3.0990   -0.7865 C   0  0  0  0  0  0  0  0  0  0  0  0
    4.4133    2.5403   -0.6852 O   0  0  0  0  0  0  0  0  0  0  0  0
    3.1299    4.4895   -0.2369 C   0  0  0  0  0  0  0  0  0  0  0  0
    3.8337    5.5556   -0.8410 C   0  0  0  0  0  0  0  0  0  0  0  0
    3.6366    6.8503   -0.3561 C   0  0  0  0  0  0  0  0  0  0  0  0
    2.7803    7.1145    0.7227 C   0  0  0  0  0  0  0  0  0  0  0  0
    2.1169    6.0380    1.3160 C   0  0  0  0  0  0  0  0  0  0  0  0
    2.2696    4.7236    0.8506 C   0  0  0  0  0  0  0  0  0  0  0  0
    1.5331    3.6000    1.5386 C   0  0  0  0  0  0  0  0  0  0  0  0
    2.5946    8.5245    1.2228 C   0  0  0  0  0  0  0  0  0  0  0  0
    4.7834    5.3069   -1.9877 C   0  0  0  0  0  0  0  0  0  0  0  0
    1.2441    0.8666   -3.1882 C   0  0  0  0  0  0  0  0  0  0  0  0
    2.2168    0.1230    2.5236 C   0  0  0  0  0  0  0  0  0  0  0  0
    4.5488    0.8030    0.9874 H   0  0  0  0  0  0  0  0  0  0  0  0
    4.4360   -0.9395    1.3596 H   0  0  0  0  0  0  0  0  0  0  0  0
    4.7117    0.1608   -1.2741 H   0  0  0  0  0  0  0  0  0  0  0  0
    4.1555   -1.4934   -0.9159 H   0  0  0  0  0  0  0  0  0  0  0  0
    1.2800    2.4997   -0.9040 H   0  0  0  0  0  0  0  0  0  0  0  0
    1.9383    3.2428   -2.3331 H   0  0  0  0  0  0  0  0  0  0  0  0
    4.1726    7.6785   -0.8292 H   0  0  0  0  0  0  0  0  0  0  0  0
    1.4606    6.2199    2.1719 H   0  0  0  0  0  0  0  0  0  0  0  0
    0.5656    3.3777    1.0595 H   0  0  0  0  0  0  0  0  0  0  0  0
    1.3245    3.8543    2.5881 H   0  0  0  0  0  0  0  0  0  0  0  0
    2.1081    2.6658    1.5254 H   0  0  0  0  0  0  0  0  0  0  0  0
    1.9324    8.5591    2.1000 H   0  0  0  0  0  0  0  0  0  0  0  0
    2.1549    9.1678    0.4423 H   0  0  0  0  0  0  0  0  0  0  0  0
    3.5587    8.9778    1.5063 H   0  0  0  0  0  0  0  0  0  0  0  0
    4.2913    4.7705   -2.8160 H   0  0  0  0  0  0  0  0  0  0  0  0
    5.6287    4.6799   -1.6675 H   0  0  0  0  0  0  0  0  0  0  0  0
    5.1778    6.2523   -2.3861 H   0  0  0  0  0  0  0  0  0  0  0  0
    1.1720    1.6796   -3.9284 H   0  0  0  0  0  0  0  0  0  0  0  0
    0.2826    0.7870   -2.6591 H   0  0  0  0  0  0  0  0  0  0  0  0
    1.4088   -0.0750   -3.7355 H   0  0  0  0  0  0  0  0  0  0  0  0
    2.4480   -0.8258    3.0381 H   0  0  0  0  0  0  0  0  0  0  0  0
    1.1385    0.3190    2.5849 H   0  0  0  0  0  0  0  0  0  0  0  0
    2.7754    0.9318    3.0223 H   0  0  0  0  0  0  0  0  0  0  0  0
  1  2  2  0
  2  3  1  0
  2  6  1  0
  3  4  1  0
  3 23  1  0
  4  5  1  0
  4 24  1  0
  4 25  1  0
  5  6  1  0
  5 26  1  0
  5 27  1  0
  6  7  1  6
  6  8  1  0
  8  9  1  6
  8 10  1  0
  8 22  1  0
 10 11  1  0
 10 28  1  0
 10 29  1  0
 11 12  2  0
 11 13  1  0
 13 14  2  0
 13 18  1  0
 14 15  1  0
 14 21  1  0
 15 16  2  0
 15 30  1  0
 16 17  1  0
 16 20  1  0
 17 18  2  0
 17 31  1  0
 18 19  1  0
 19 32  1  0
 19 33  1  0
 19 34  1  0
 20 35  1  0
 20 36  1  0
 20 37  1  0
 21 38  1  0
 21 39  1  0
 21 40  1  0
 22 41  1  0
 22 42  1  0
 22 43  1  0
 23 44  1  0
 23 45  1  0
 23 46  1  0
M  END

