46
rmsd21.gzmat
S          0.00000        0.00000        0.00000
C          1.65970        0.00000        0.00000
N          2.42040        0.00000        1.10890
C          3.87270       -0.05860        0.85180
C          3.99710       -0.09900       -0.68580
C          2.54760       -0.03940       -1.23320
H          2.33630       -0.98990       -1.79770
C          2.27140        1.15150       -2.17160
H          1.18180        1.12720       -2.44990
C          3.09810        1.03570       -3.46530
C          2.65010       -0.15750       -4.28330
O          3.02410       -1.27250       -4.01590
C          1.74740        0.12420       -5.42480
C          0.37650       -0.13130       -5.31740
C         -0.45750        0.15240       -6.40120
C          0.07310        0.65920       -7.58810
C          1.44620        0.88770       -7.69650
C          2.28630        0.62110       -6.61590
C          3.75550        0.85050       -6.74240
C         -0.83400        0.95550       -8.73410
C         -0.20870       -0.69360       -4.06960
C          2.55620        2.50050       -1.50550
C          1.92560        0.02310        2.47680
H          4.37430        0.82970        1.28730
H          4.30930       -0.96240        1.32620
H          4.60900        0.73670       -1.06050
H          4.50030       -1.02070       -1.02620
H          4.17580        0.94050       -3.23150
H          2.99080        1.96990       -4.05200
H         -1.52670       -0.02850       -6.32260
H          1.86070        1.26950       -8.62500
H          4.11060        1.61630       -6.03860
H          4.04690        1.18330       -7.74750
H          4.32010       -0.07370       -6.53800
H         -0.29130        1.20480       -9.65520
H         -1.49020        1.80880       -8.50410
H         -1.48460        0.09950       -8.96730
H         -0.40430        0.09440       -3.32220
H          0.45200       -1.43510       -3.59200
H         -1.16830       -1.20060       -4.24200
H          2.26180        3.33250       -2.15670
H          3.61390        2.63010       -1.26080
H          1.98680        2.61310       -0.57410
H          1.32550       -0.88460        2.69490
H          1.26430        0.89890        2.64190
H          2.75420        0.07600        3.20050
