rmsd27.gzmat
 OpenBabel08211713383D

 43 45  0  0  0  0  0  0  0  0999 V2000
    0.0000    0.0000    0.0000 S   0  0  0  0  0  0  0  0  0  0  0  0
    1.4416    0.0000    0.0000 O   0  0  0  0  0  0  0  0  0  0  0  0
   -0.7547    0.0000   -1.2253 O   0  0  0  0  0  0  0  0  0  0  0  0
   -0.5290   -1.4368    0.8664 N   0  0  0  0  0  0  0  0  0  0  0  0
   -1.9155   -1.8549    0.8001 C   0  0  0  0  0  0  0  0  0  0  0  0
   -2.1793   -2.9366    0.3620 O   0  0  0  0  0  0  0  0  0  0  0  0
   -2.9481   -0.9015    1.3577 C   0  0  0  0  0  0  0  0  0  0  0  0
   -2.9722    0.4866    0.7161 C   0  0  0  0  0  0  0  0  0  0  0  0
   -1.9433    1.3920    1.3292 C   0  0  0  0  0  0  0  0  0  0  0  0
   -2.3730    2.3905    2.2047 C   0  0  0  0  0  0  0  0  0  0  0  0
   -1.4468    3.2328    2.8276 C   0  0  0  0  0  0  0  0  0  0  0  0
   -2.0335    4.1446    3.6309 O   0  0  0  0  0  0  0  0  0  0  0  0
   -1.2113    5.0789    4.3208 C   0  0  0  0  0  0  0  0  0  0  0  0
   -0.0658    3.0637    2.5740 C   0  0  0  0  0  0  0  0  0  0  0  0
    0.7652    3.9371    3.2166 O   0  0  0  0  0  0  0  0  0  0  0  0
    2.1296    3.5447    3.3146 C   0  0  0  0  0  0  0  0  0  0  0  0
    0.3554    2.0827    1.6892 C   0  0  0  0  0  0  0  0  0  0  0  0
   -0.5805    1.2519    1.0674 C   0  0  0  0  0  0  0  0  0  0  0  0
    0.2823   -2.1638    1.7544 C   0  0  0  0  0  0  0  0  0  0  0  0
   -0.3941   -2.6807    2.8170 N   0  0  0  0  0  0  0  0  0  0  0  0
    0.2886   -3.3783    3.7374 C   0  0  0  0  0  0  0  0  0  0  0  0
    1.6760   -3.5716    3.6678 C   0  0  0  0  0  0  0  0  0  0  0  0
    2.3589   -3.0403    2.5697 C   0  0  0  0  0  0  0  0  0  0  0  0
    1.6707   -2.3352    1.5914 C   0  0  0  0  0  0  0  0  0  0  0  0
    2.3978   -4.3260    4.7249 C   0  0  0  0  0  0  0  0  0  0  0  0
   -2.7783   -0.8246    2.4585 H   0  0  0  0  0  0  0  0  0  0  0  0
   -3.9474   -1.3807    1.2509 H   0  0  0  0  0  0  0  0  0  0  0  0
   -2.8488    0.4197   -0.3927 H   0  0  0  0  0  0  0  0  0  0  0  0
   -3.9893    0.9205    0.8319 H   0  0  0  0  0  0  0  0  0  0  0  0
   -3.4314    2.5267    2.4230 H   0  0  0  0  0  0  0  0  0  0  0  0
   -1.9570    5.6823    4.8572 H   0  0  0  0  0  0  0  0  0  0  0  0
   -0.6464    5.6974    3.6147 H   0  0  0  0  0  0  0  0  0  0  0  0
   -0.5451    4.5673    5.0231 H   0  0  0  0  0  0  0  0  0  0  0  0
    2.5435    4.3093    3.9848 H   0  0  0  0  0  0  0  0  0  0  0  0
    2.6162    3.5931    2.3345 H   0  0  0  0  0  0  0  0  0  0  0  0
    2.2274    2.5495    3.7610 H   0  0  0  0  0  0  0  0  0  0  0  0
    1.4261    1.9609    1.4818 H   0  0  0  0  0  0  0  0  0  0  0  0
   -0.3108   -3.7847    4.5604 H   0  0  0  0  0  0  0  0  0  0  0  0
    3.4354   -3.1835    2.4775 H   0  0  0  0  0  0  0  0  0  0  0  0
    2.1999   -1.9324    0.7252 H   0  0  0  0  0  0  0  0  0  0  0  0
    1.7731   -4.5256    5.6064 H   0  0  0  0  0  0  0  0  0  0  0  0
    3.2839   -3.7799    5.0808 H   0  0  0  0  0  0  0  0  0  0  0  0
    2.7464   -5.3012    4.3492 H   0  0  0  0  0  0  0  0  0  0  0  0
  1  4  1  0  0  0  0
  1 18  1  0  0  0  0
  2  1  2  0  0  0  0
  3  1  2  0  0  0  0
  4 19  1  0  0  0  0
  5  4  1  0  0  0  0
  5  7  1  0  0  0  0
  6  5  2  0  0  0  0
  7 26  1  0  0  0  0
  8 29  1  0  0  0  0
  8  9  1  0  0  0  0
  8  7  1  0  0  0  0
  9 10  1  0  0  0  0
 10 30  1  0  0  0  0
 10 11  2  0  0  0  0
 11 12  1  0  0  0  0
 12 13  1  0  0  0  0
 13 31  1  0  0  0  0
 13 33  1  0  0  0  0
 14 11  1  0  0  0  0
 14 15  1  0  0  0  0
 15 16  1  0  0  0  0
 16 36  1  0  0  0  0
 16 34  1  0  0  0  0
 17 14  2  0  0  0  0
 18  9  2  0  0  0  0
 18 17  1  0  0  0  0
 19 20  2  0  0  0  0
 20 21  2  0  0  0  0
 21 38  1  0  0  0  0
 22 21  1  0  0  0  0
 22 25  1  0  0  0  0
 23 22  2  0  0  0  0
 24 19  1  0  0  0  0
 24 23  1  0  0  0  0
 25 42  1  0  0  0  0
 25 41  1  0  0  0  0
 27  7  1  0  0  0  0
 28  8  1  0  0  0  0
 32 13  1  0  0  0  0
 35 16  1  0  0  0  0
 37 17  1  0  0  0  0
 39 23  1  0  0  0  0
 40 24  1  0  0  0  0
 43 25  1  0  0  0  0
M  RAD  1  24   2
M  END
$$$$
