rmsd2.gzmat
 OpenBabel08211713383D

 43 45  0  0  0  0  0  0  0  0999 V2000
    0.0000    0.0000    0.0000 S   0  0  0  0  0  0  0  0  0  0  0  0
    1.4414    0.0000    0.0000 O   0  0  0  0  0  0  0  0  0  0  0  0
   -0.7572    0.0000   -1.2237 O   0  0  0  0  0  0  0  0  0  0  0  0
   -0.5292   -1.4356    0.8698 N   0  0  0  0  0  0  0  0  0  0  0  0
   -1.9161   -1.8583    0.7865 C   0  0  0  0  0  0  0  0  0  0  0  0
   -2.1689   -2.9335    0.3284 O   0  0  0  0  0  0  0  0  0  0  0  0
   -2.9552   -0.9155    1.3496 C   0  0  0  0  0  0  0  0  0  0  0  0
   -2.9734    0.4799    0.7236 C   0  0  0  0  0  0  0  0  0  0  0  0
   -1.9424    1.3755    1.3486 C   0  0  0  0  0  0  0  0  0  0  0  0
   -2.3691    2.3526    2.2489 C   0  0  0  0  0  0  0  0  0  0  0  0
   -1.4410    3.1818    2.8877 C   0  0  0  0  0  0  0  0  0  0  0  0
   -2.0225    4.0676    3.7227 O   0  0  0  0  0  0  0  0  0  0  0  0
   -1.2002    5.0071    4.4058 C   0  0  0  0  0  0  0  0  0  0  0  0
   -0.0623    3.0249    2.6195 C   0  0  0  0  0  0  0  0  0  0  0  0
    0.7755    3.8898    3.2661 O   0  0  0  0  0  0  0  0  0  0  0  0
    2.1080    3.4281    3.4602 C   0  0  0  0  0  0  0  0  0  0  0  0
    0.3563    2.0680    1.7071 C   0  0  0  0  0  0  0  0  0  0  0  0
   -0.5797    1.2448    1.0762 C   0  0  0  0  0  0  0  0  0  0  0  0
    0.2460   -2.0846    1.8444 C   0  0  0  0  0  0  0  0  0  0  0  0
   -0.4708   -2.5481    2.9056 N   0  0  0  0  0  0  0  0  0  0  0  0
    0.1800   -3.1775    3.8959 C   0  0  0  0  0  0  0  0  0  0  0  0
    1.5714   -3.3544    3.8978 C   0  0  0  0  0  0  0  0  0  0  0  0
    2.2965   -2.8744    2.8032 C   0  0  0  0  0  0  0  0  0  0  0  0
    1.6440   -2.2378    1.7564 C   0  0  0  0  0  0  0  0  0  0  0  0
    2.2522   -4.0399    5.0267 C   0  0  0  0  0  0  0  0  0  0  0  0
   -2.7901   -0.8525    2.4523 H   0  0  0  0  0  0  0  0  0  0  0  0
   -3.9535   -1.3926    1.2304 H   0  0  0  0  0  0  0  0  0  0  0  0
   -2.8493    0.4206   -0.3858 H   0  0  0  0  0  0  0  0  0  0  0  0
   -3.9891    0.9161    0.8433 H   0  0  0  0  0  0  0  0  0  0  0  0
   -3.4263    2.4806    2.4768 H   0  0  0  0  0  0  0  0  0  0  0  0
   -1.9444    5.6016    4.9541 H   0  0  0  0  0  0  0  0  0  0  0  0
   -0.6495    5.6337    3.6956 H   0  0  0  0  0  0  0  0  0  0  0  0
   -0.5205    4.5000    5.0979 H   0  0  0  0  0  0  0  0  0  0  0  0
    2.5198    4.1833    4.1418 H   0  0  0  0  0  0  0  0  0  0  0  0
    2.6569    3.4310    2.5127 H   0  0  0  0  0  0  0  0  0  0  0  0
    2.1234    2.4389    3.9282 H   0  0  0  0  0  0  0  0  0  0  0  0
    1.4263    1.9606    1.4880 H   0  0  0  0  0  0  0  0  0  0  0  0
   -0.4498   -3.5417    4.7158 H   0  0  0  0  0  0  0  0  0  0  0  0
    3.3781   -3.0068    2.7666 H   0  0  0  0  0  0  0  0  0  0  0  0
    2.2036   -1.8751    0.8911 H   0  0  0  0  0  0  0  0  0  0  0  0
    1.5996   -4.1652    5.9019 H   0  0  0  0  0  0  0  0  0  0  0  0
    3.1387   -3.4844    5.3668 H   0  0  0  0  0  0  0  0  0  0  0  0
    2.5932   -5.0457    4.7333 H   0  0  0  0  0  0  0  0  0  0  0  0
  1  4  1  0  0  0  0
  1 18  1  0  0  0  0
  2  1  2  0  0  0  0
  3  1  2  0  0  0  0
  4 19  1  0  0  0  0
  5  4  1  0  0  0  0
  5  7  1  0  0  0  0
  6  5  2  0  0  0  0
  7 26  1  0  0  0  0
  8 29  1  0  0  0  0
  8  9  1  0  0  0  0
  8  7  1  0  0  0  0
  9 10  1  0  0  0  0
 10 30  1  0  0  0  0
 10 11  2  0  0  0  0
 11 12  1  0  0  0  0
 12 13  1  0  0  0  0
 13 31  1  0  0  0  0
 13 33  1  0  0  0  0
 14 11  1  0  0  0  0
 14 15  1  0  0  0  0
 15 16  1  0  0  0  0
 16 36  1  0  0  0  0
 16 34  1  0  0  0  0
 17 14  2  0  0  0  0
 18  9  2  0  0  0  0
 18 17  1  0  0  0  0
 19 20  2  0  0  0  0
 20 21  2  0  0  0  0
 21 22  1  0  0  0  0
 21 38  1  0  0  0  0
 22 25  1  0  0  0  0
 23 22  2  0  0  0  0
 24 19  1  0  0  0  0
 24 23  1  0  0  0  0
 25 42  1  0  0  0  0
 25 41  1  0  0  0  0
 27  7  1  0  0  0  0
 28  8  1  0  0  0  0
 32 13  1  0  0  0  0
 35 16  1  0  0  0  0
 37 17  1  0  0  0  0
 39 23  1  0  0  0  0
 40 24  1  0  0  0  0
 43 25  1  0  0  0  0
M  RAD  1  24   2
M  END
$$$$
