43
rmsd19.gzmat
S          0.00000        0.00000        0.00000
O          1.44160        0.00000        0.00000
O         -0.75590        0.00000       -1.22440
N         -0.52400       -1.43730        0.87010
C         -1.90720       -1.86630        0.80740
O         -2.15690       -2.96010        0.39120
C         -2.95510       -0.91710        1.34310
C         -2.97120        0.47720        0.71500
C         -1.94350        1.37360        1.34380
C         -2.37280        2.34950        2.24460
C         -1.44620        3.17190        2.89390
O         -2.03230        4.05680        3.72690
C         -1.20910        4.95290        4.46500
C         -0.06590        3.01320        2.63220
O          0.76960        3.86550        3.29730
C          2.12210        3.43840        3.41920
C          0.35440        2.06160        1.71530
C         -0.58050        1.24290        1.07660
C          0.27280       -2.08410        1.83120
N         -0.41050       -2.50670        2.92980
C          0.26720       -3.12390        3.91010
C          1.65330       -3.33230        3.86110
C          2.34370       -2.89540        2.72630
C          1.66270       -2.26900        1.69170
C          2.36460       -4.00560        4.97850
H         -2.80710       -0.84910        2.44830
H         -3.95010       -1.39820        1.21090
H         -2.84350        0.41860       -0.39370
H         -3.98730        0.91410        0.83080
H         -3.43090        2.48170        2.46600
H         -1.95430        5.53460        5.02540
H         -0.63720        5.60190        3.79260
H         -0.54950        4.40580        5.14630
H          2.53790        4.17970        4.11360
H          2.63280        3.49460        2.45160
H          2.18550        2.43250        3.84630
H          1.42470        1.95350        1.49850
H         -0.33470       -3.44980        4.76560
H          3.41960       -3.05200        2.64980
H          2.19390       -1.93460        0.79770
H          1.71320       -4.19930        5.84180
H          3.20820       -3.40230        5.34510
H          2.77310       -4.97850        4.66180
