43
rmsd2.gzmat
S          0.00000        0.00000        0.00000
O          1.44140        0.00000        0.00000
O         -0.75720        0.00000       -1.22370
N         -0.52920       -1.43560        0.86980
C         -1.91610       -1.85830        0.78650
O         -2.16890       -2.93350        0.32840
C         -2.95520       -0.91550        1.34960
C         -2.97340        0.47990        0.72360
C         -1.94240        1.37550        1.34860
C         -2.36910        2.35260        2.24890
C         -1.44100        3.18180        2.88770
O         -2.02250        4.06760        3.72270
C         -1.20020        5.00710        4.40580
C         -0.06230        3.02490        2.61950
O          0.77550        3.88980        3.26610
C          2.10800        3.42810        3.46020
C          0.35630        2.06800        1.70710
C         -0.57970        1.24480        1.07620
C          0.24600       -2.08460        1.84440
N         -0.47080       -2.54810        2.90560
C          0.18000       -3.17750        3.89590
C          1.57140       -3.35440        3.89780
C          2.29650       -2.87440        2.80320
C          1.64400       -2.23780        1.75640
C          2.25220       -4.03990        5.02670
H         -2.79010       -0.85250        2.45230
H         -3.95350       -1.39260        1.23040
H         -2.84930        0.42060       -0.38580
H         -3.98910        0.91610        0.84330
H         -3.42630        2.48060        2.47680
H         -1.94440        5.60160        4.95410
H         -0.64950        5.63370        3.69560
H         -0.52050        4.50000        5.09790
H          2.51980        4.18330        4.14180
H          2.65690        3.43100        2.51270
H          2.12340        2.43890        3.92820
H          1.42630        1.96060        1.48800
H         -0.44980       -3.54170        4.71580
H          3.37810       -3.00680        2.76660
H          2.20360       -1.87510        0.89110
H          1.59960       -4.16520        5.90190
H          3.13870       -3.48440        5.36680
H          2.59320       -5.04570        4.73330
