
     RDKit          3D

 43 45  0  0  0  0  0  0  0  0999 V2000
    0.0458   -0.0518    0.2413 S   0  0  0  0  0  0  0  0  0  0  0  0
    1.4917   -0.1646    0.4101 O   0  0  0  0  0  0  0  0  0  0  0  0
   -0.5429    0.0452   -1.0920 O   0  0  0  0  0  0  0  0  0  0  0  0
   -0.6273   -1.4509    1.0177 N   0  0  0  0  0  0  0  0  0  0  0  0
   -2.0217   -1.6160    1.1749 C   0  0  0  0  0  0  0  0  0  0  0  0
   -2.4409   -2.4290    1.9656 O   0  0  0  0  0  0  0  0  0  0  0  0
   -2.9295   -0.8025    0.2691 C   0  0  0  0  0  0  0  0  0  0  0  0
   -2.9879    0.7470    0.4585 C   0  0  0  0  0  0  0  0  0  0  0  0
   -1.9805    1.4287    1.3613 C   0  0  0  0  0  0  0  0  0  0  0  0
   -2.4099    2.3786    2.2939 C   0  0  0  0  0  0  0  0  0  0  0  0
   -1.5322    3.0863    3.1227 C   0  0  0  0  0  0  0  0  0  0  0  0
   -2.0939    3.9455    4.0030 O   0  0  0  0  0  0  0  0  0  0  0  0
   -1.4866    5.1993    4.2871 C   0  0  0  0  0  0  0  0  0  0  0  0
   -0.1400    2.8267    3.0417 C   0  0  0  0  0  0  0  0  0  0  0  0
    0.6708    3.4801    3.9119 O   0  0  0  0  0  0  0  0  0  0  0  0
    2.0539    3.1990    3.8882 C   0  0  0  0  0  0  0  0  0  0  0  0
    0.3144    1.8927    2.1105 C   0  0  0  0  0  0  0  0  0  0  0  0
   -0.5946    1.2280    1.2863 C   0  0  0  0  0  0  0  0  0  0  0  0
    0.2317   -2.0957    1.9724 C   0  0  0  0  0  0  0  0  0  0  0  0
    0.3910   -1.4939    3.1434 N   0  0  0  0  0  0  0  0  0  0  0  0
    1.1870   -2.0709    4.0426 C   0  0  0  0  0  0  0  0  0  0  0  0
    1.8666   -3.2799    3.8286 C   0  0  0  0  0  0  0  0  0  0  0  0
    1.6846   -3.8922    2.5800 C   0  0  0  0  0  0  0  0  0  0  0  0
    0.8591   -3.2952    1.6318 C   0  0  0  0  0  0  0  0  0  0  0  0
    2.7458   -3.8875    4.8876 C   0  0  0  0  0  0  0  0  0  0  0  0
   -3.9276   -1.2233    0.4406 H   0  0  0  0  0  0  0  0  0  0  0  0
   -2.6332   -1.0235   -0.7644 H   0  0  0  0  0  0  0  0  0  0  0  0
   -2.9024    1.2028   -0.5398 H   0  0  0  0  0  0  0  0  0  0  0  0
   -3.9846    1.0076    0.8390 H   0  0  0  0  0  0  0  0  0  0  0  0
   -3.4731    2.6012    2.4038 H   0  0  0  0  0  0  0  0  0  0  0  0
   -2.2851    5.8388    4.6889 H   0  0  0  0  0  0  0  0  0  0  0  0
   -1.0811    5.6625    3.3720 H   0  0  0  0  0  0  0  0  0  0  0  0
   -0.6789    5.1052    5.0257 H   0  0  0  0  0  0  0  0  0  0  0  0
    2.5109    3.8179    4.6711 H   0  0  0  0  0  0  0  0  0  0  0  0
    2.5059    3.4562    2.9140 H   0  0  0  0  0  0  0  0  0  0  0  0
    2.2535    2.1347    4.1031 H   0  0  0  0  0  0  0  0  0  0  0  0
    1.3671    1.6314    2.0296 H   0  0  0  0  0  0  0  0  0  0  0  0
    1.2994   -1.5482    5.0002 H   0  0  0  0  0  0  0  0  0  0  0  0
    2.1918   -4.8335    2.3513 H   0  0  0  0  0  0  0  0  0  0  0  0
    0.6955   -3.7337    0.6471 H   0  0  0  0  0  0  0  0  0  0  0  0
    2.7951   -3.2503    5.7825 H   0  0  0  0  0  0  0  0  0  0  0  0
    3.7736   -4.0339    4.5172 H   0  0  0  0  0  0  0  0  0  0  0  0
    2.3687   -4.8760    5.1977 H   0  0  0  0  0  0  0  0  0  0  0  0
  1  2  2  0
  1  3  2  0
  1  4  1  0
  1 18  1  0
  4  5  1  0
  4 19  1  0
  5  6  2  0
  5  7  1  0
  7  8  1  0
  7 26  1  0
  7 27  1  0
  8  9  1  0
  8 28  1  0
  8 29  1  0
  9 10  2  0
  9 18  1  0
 10 11  1  0
 10 30  1  0
 11 12  1  0
 11 14  2  0
 12 13  1  0
 13 31  1  0
 13 32  1  0
 13 33  1  0
 14 15  1  0
 14 17  1  0
 15 16  1  0
 16 34  1  0
 16 35  1  0
 16 36  1  0
 17 18  2  0
 17 37  1  0
 19 20  2  0
 19 24  1  0
 20 21  1  0
 21 22  2  0
 21 38  1  0
 22 23  1  0
 22 25  1  0
 23 24  2  0
 23 39  1  0
 24 40  1  0
 25 41  1  0
 25 42  1  0
 25 43  1  0
M  END

