rmsd20.gzmat
 OpenBabel08211713383D

 43 45  0  0  0  0  0  0  0  0999 V2000
    0.0000    0.0000    0.0000 S   0  0  0  0  0  0  0  0  0  0  0  0
    1.4417    0.0000    0.0000 O   0  0  0  0  0  0  0  0  0  0  0  0
   -0.7543    0.0000   -1.2257 O   0  0  0  0  0  0  0  0  0  0  0  0
   -0.5215   -1.4398    0.8668 N   0  0  0  0  0  0  0  0  0  0  0  0
   -1.9030   -1.8690    0.8222 C   0  0  0  0  0  0  0  0  0  0  0  0
   -2.1567   -2.9715    0.4296 O   0  0  0  0  0  0  0  0  0  0  0  0
   -2.9485   -0.9122    1.3503 C   0  0  0  0  0  0  0  0  0  0  0  0
   -2.9699    0.4750    0.7071 C   0  0  0  0  0  0  0  0  0  0  0  0
   -1.9467    1.3796    1.3308 C   0  0  0  0  0  0  0  0  0  0  0  0
   -2.3812    2.3636    2.2195 C   0  0  0  0  0  0  0  0  0  0  0  0
   -1.4577    3.1912    2.8665 C   0  0  0  0  0  0  0  0  0  0  0  0
   -2.0488    4.0867    3.6841 O   0  0  0  0  0  0  0  0  0  0  0  0
   -1.2287    4.9642    4.4470 C   0  0  0  0  0  0  0  0  0  0  0  0
   -0.0760    3.0286    2.6157 C   0  0  0  0  0  0  0  0  0  0  0  0
    0.7543    3.8907    3.2750 O   0  0  0  0  0  0  0  0  0  0  0  0
    2.0969    3.4503    3.4467 C   0  0  0  0  0  0  0  0  0  0  0  0
    0.3497    2.0675    1.7108 C   0  0  0  0  0  0  0  0  0  0  0  0
   -0.5821    1.2452    1.0728 C   0  0  0  0  0  0  0  0  0  0  0  0
    0.3054   -2.1428    1.7624 C   0  0  0  0  0  0  0  0  0  0  0  0
   -0.3398   -2.5930    2.8727 N   0  0  0  0  0  0  0  0  0  0  0  0
    0.3647   -3.2601    3.7996 C   0  0  0  0  0  0  0  0  0  0  0  0
    1.7444   -3.4864    3.6874 C   0  0  0  0  0  0  0  0  0  0  0  0
    2.3951   -3.0234    2.5401 C   0  0  0  0  0  0  0  0  0  0  0  0
    1.6830   -2.3518    1.5552 C   0  0  0  0  0  0  0  0  0  0  0  0
    2.4902   -4.2019    4.7550 C   0  0  0  0  0  0  0  0  0  0  0  0
   -2.7984   -0.8306    2.4543 H   0  0  0  0  0  0  0  0  0  0  0  0
   -3.9443   -1.3948    1.2276 H   0  0  0  0  0  0  0  0  0  0  0  0
   -2.8395    0.4064   -0.4007 H   0  0  0  0  0  0  0  0  0  0  0  0
   -3.9883    0.9082    0.8157 H   0  0  0  0  0  0  0  0  0  0  0  0
   -3.4406    2.4981    2.4334 H   0  0  0  0  0  0  0  0  0  0  0  0
   -1.9772    5.5427    5.0066 H   0  0  0  0  0  0  0  0  0  0  0  0
   -0.6439    5.6181    3.7903 H   0  0  0  0  0  0  0  0  0  0  0  0
   -0.5813    4.4028    5.1282 H   0  0  0  0  0  0  0  0  0  0  0  0
    2.4949    4.1866    4.1569 H   0  0  0  0  0  0  0  0  0  0  0  0
    2.6396    3.5035    2.4969 H   0  0  0  0  0  0  0  0  0  0  0  0
    2.1386    2.4435    3.8745 H   0  0  0  0  0  0  0  0  0  0  0  0
    1.4214    1.9558    1.5030 H   0  0  0  0  0  0  0  0  0  0  0  0
   -0.2097   -3.6140    4.6632 H   0  0  0  0  0  0  0  0  0  0  0  0
    3.4640   -3.1948    2.4145 H   0  0  0  0  0  0  0  0  0  0  0  0
    2.1830   -1.9982    0.6511 H   0  0  0  0  0  0  0  0  0  0  0  0
    1.8683   -4.4206    5.6341 H   0  0  0  0  0  0  0  0  0  0  0  0
    3.3495   -3.6146    5.1117 H   0  0  0  0  0  0  0  0  0  0  0  0
    2.8830   -5.1646    4.3915 H   0  0  0  0  0  0  0  0  0  0  0  0
  1  4  1  0  0  0  0
  1 18  1  0  0  0  0
  2  1  2  0  0  0  0
  3  1  2  0  0  0  0
  4 19  1  0  0  0  0
  5  4  1  0  0  0  0
  5  7  1  0  0  0  0
  6  5  2  0  0  0  0
  7 26  1  0  0  0  0
  8 29  1  0  0  0  0
  8  9  1  0  0  0  0
  8  7  1  0  0  0  0
  9 10  1  0  0  0  0
 10 30  1  0  0  0  0
 10 11  2  0  0  0  0
 11 12  1  0  0  0  0
 12 13  1  0  0  0  0
 13 31  1  0  0  0  0
 13 33  1  0  0  0  0
 14 11  1  0  0  0  0
 14 15  1  0  0  0  0
 15 16  1  0  0  0  0
 16 36  1  0  0  0  0
 16 34  1  0  0  0  0
 17 14  2  0  0  0  0
 18  9  2  0  0  0  0
 18 17  1  0  0  0  0
 19 20  2  0  0  0  0
 20 21  2  0  0  0  0
 21 38  1  0  0  0  0
 22 21  1  0  0  0  0
 22 25  1  0  0  0  0
 23 22  2  0  0  0  0
 24 19  1  0  0  0  0
 24 23  1  0  0  0  0
 25 42  1  0  0  0  0
 25 41  1  0  0  0  0
 27  7  1  0  0  0  0
 28  8  1  0  0  0  0
 32 13  1  0  0  0  0
 35 16  1  0  0  0  0
 37 17  1  0  0  0  0
 39 23  1  0  0  0  0
 40 24  1  0  0  0  0
 43 25  1  0  0  0  0
M  RAD  1  24   2
M  END
$$$$
