rmsd29.gzmat
 OpenBabel08211713383D

 43 45  0  0  0  0  0  0  0  0999 V2000
    0.0000    0.0000    0.0000 S   0  0  0  0  0  0  0  0  0  0  0  0
    1.4417    0.0000    0.0000 O   0  0  0  0  0  0  0  0  0  0  0  0
   -0.7547    0.0000   -1.2253 O   0  0  0  0  0  0  0  0  0  0  0  0
   -0.5316   -1.4350    0.8677 N   0  0  0  0  0  0  0  0  0  0  0  0
   -1.9194   -1.8504    0.7912 C   0  0  0  0  0  0  0  0  0  0  0  0
   -2.1849   -2.9237    0.3344 O   0  0  0  0  0  0  0  0  0  0  0  0
   -2.9468   -0.8997    1.3625 C   0  0  0  0  0  0  0  0  0  0  0  0
   -2.9737    0.4894    0.7228 C   0  0  0  0  0  0  0  0  0  0  0  0
   -1.9400    1.3906    1.3342 C   0  0  0  0  0  0  0  0  0  0  0  0
   -2.3652    2.3814    2.2216 C   0  0  0  0  0  0  0  0  0  0  0  0
   -1.4363    3.2167    2.8482 C   0  0  0  0  0  0  0  0  0  0  0  0
   -2.0195    4.1175    3.6667 O   0  0  0  0  0  0  0  0  0  0  0  0
   -1.1926    4.9974    4.4190 C   0  0  0  0  0  0  0  0  0  0  0  0
   -0.0558    3.0563    2.5800 C   0  0  0  0  0  0  0  0  0  0  0  0
    0.7707    3.9230    3.2354 O   0  0  0  0  0  0  0  0  0  0  0  0
    2.1635    3.6399    3.1761 C   0  0  0  0  0  0  0  0  0  0  0  0
    0.3605    2.0818    1.6866 C   0  0  0  0  0  0  0  0  0  0  0  0
   -0.5788    1.2522    1.0668 C   0  0  0  0  0  0  0  0  0  0  0  0
    0.2751   -2.1739    1.7495 C   0  0  0  0  0  0  0  0  0  0  0  0
   -0.4079   -2.7090    2.7993 N   0  0  0  0  0  0  0  0  0  0  0  0
    0.2661   -3.4381    3.7014 C   0  0  0  0  0  0  0  0  0  0  0  0
    1.6502   -3.6518    3.6247 C   0  0  0  0  0  0  0  0  0  0  0  0
    2.3427   -3.0856    2.5506 C   0  0  0  0  0  0  0  0  0  0  0  0
    1.6644   -2.3431    1.5933 C   0  0  0  0  0  0  0  0  0  0  0  0
    2.3533   -4.4703    4.6464 C   0  0  0  0  0  0  0  0  0  0  0  0
   -2.7643   -0.8236    2.4613 H   0  0  0  0  0  0  0  0  0  0  0  0
   -3.9472   -1.3775    1.2656 H   0  0  0  0  0  0  0  0  0  0  0  0
   -2.8568    0.4234   -0.3866 H   0  0  0  0  0  0  0  0  0  0  0  0
   -3.9890    0.9257    0.8460 H   0  0  0  0  0  0  0  0  0  0  0  0
   -3.4226    2.5139    2.4470 H   0  0  0  0  0  0  0  0  0  0  0  0
   -1.9356    5.5702    4.9917 H   0  0  0  0  0  0  0  0  0  0  0  0
   -0.6216    5.6567    3.7558 H   0  0  0  0  0  0  0  0  0  0  0  0
   -0.5319    4.4377    5.0893 H   0  0  0  0  0  0  0  0  0  0  0  0
    2.5817    4.3951    3.8546 H   0  0  0  0  0  0  0  0  0  0  0  0
    2.5456    3.7888    2.1606 H   0  0  0  0  0  0  0  0  0  0  0  0
    2.3825    2.6323    3.5447 H   0  0  0  0  0  0  0  0  0  0  0  0
    1.4292    1.9596    1.4694 H   0  0  0  0  0  0  0  0  0  0  0  0
   -0.3373   -3.8556    4.5153 H   0  0  0  0  0  0  0  0  0  0  0  0
    3.4187   -3.2335    2.4588 H   0  0  0  0  0  0  0  0  0  0  0  0
    2.2008   -1.9138    0.7441 H   0  0  0  0  0  0  0  0  0  0  0  0
    1.7296   -4.6779    5.5268 H   0  0  0  0  0  0  0  0  0  0  0  0
    3.2661   -3.9763    5.0099 H   0  0  0  0  0  0  0  0  0  0  0  0
    2.6554   -5.4456    4.2322 H   0  0  0  0  0  0  0  0  0  0  0  0
  1  4  1  0  0  0  0
  1 18  1  0  0  0  0
  2  1  2  0  0  0  0
  3  1  2  0  0  0  0
  4 19  1  0  0  0  0
  5  4  1  0  0  0  0
  5  7  1  0  0  0  0
  6  5  2  0  0  0  0
  7 26  1  0  0  0  0
  8 29  1  0  0  0  0
  8  9  1  0  0  0  0
  8  7  1  0  0  0  0
  9 10  1  0  0  0  0
 10 30  1  0  0  0  0
 10 11  2  0  0  0  0
 11 12  1  0  0  0  0
 12 13  1  0  0  0  0
 13 31  1  0  0  0  0
 13 33  1  0  0  0  0
 14 11  1  0  0  0  0
 14 15  1  0  0  0  0
 16 15  1  0  0  0  0
 16 36  1  0  0  0  0
 16 34  1  0  0  0  0
 17 14  2  0  0  0  0
 18  9  2  0  0  0  0
 18 17  1  0  0  0  0
 19 20  2  0  0  0  0
 20 21  2  0  0  0  0
 21 38  1  0  0  0  0
 22 21  1  0  0  0  0
 22 25  1  0  0  0  0
 23 22  2  0  0  0  0
 24 19  1  0  0  0  0
 24 23  1  0  0  0  0
 25 42  1  0  0  0  0
 25 41  1  0  0  0  0
 27  7  1  0  0  0  0
 28  8  1  0  0  0  0
 32 13  1  0  0  0  0
 35 16  1  0  0  0  0
 37 17  1  0  0  0  0
 39 23  1  0  0  0  0
 40 24  1  0  0  0  0
 43 25  1  0  0  0  0
M  RAD  1  24   2
M  END
$$$$
