43
rmsd29.gzmat
S          0.00000        0.00000        0.00000
O          1.44170        0.00000        0.00000
O         -0.75470        0.00000       -1.22530
N         -0.53160       -1.43500        0.86770
C         -1.91940       -1.85040        0.79120
O         -2.18490       -2.92370        0.33440
C         -2.94680       -0.89970        1.36250
C         -2.97370        0.48940        0.72280
C         -1.94000        1.39060        1.33420
C         -2.36520        2.38140        2.22160
C         -1.43630        3.21670        2.84820
O         -2.01950        4.11750        3.66670
C         -1.19260        4.99740        4.41900
C         -0.05580        3.05630        2.58000
O          0.77070        3.92300        3.23540
C          2.16350        3.63990        3.17610
C          0.36050        2.08180        1.68660
C         -0.57880        1.25220        1.06680
C          0.27510       -2.17390        1.74950
N         -0.40790       -2.70900        2.79930
C          0.26610       -3.43810        3.70140
C          1.65020       -3.65180        3.62470
C          2.34270       -3.08560        2.55060
C          1.66440       -2.34310        1.59330
C          2.35330       -4.47030        4.64640
H         -2.76430       -0.82360        2.46130
H         -3.94720       -1.37750        1.26560
H         -2.85680        0.42340       -0.38660
H         -3.98900        0.92570        0.84600
H         -3.42260        2.51390        2.44700
H         -1.93560        5.57020        4.99170
H         -0.62160        5.65670        3.75580
H         -0.53190        4.43770        5.08930
H          2.58170        4.39510        3.85460
H          2.54560        3.78880        2.16060
H          2.38250        2.63230        3.54470
H          1.42920        1.95960        1.46940
H         -0.33730       -3.85560        4.51530
H          3.41870       -3.23350        2.45880
H          2.20080       -1.91380        0.74410
H          1.72960       -4.67790        5.52680
H          3.26610       -3.97630        5.00990
H          2.65540       -5.44560        4.23220
