
     RDKit          3D

 43 45  0  0  0  0  0  0  0  0999 V2000
   -0.1579   -0.0285   -0.2493 S   0  0  0  0  0  0  0  0  0  0  0  0
    1.2969   -0.1278   -0.2961 O   0  0  0  0  0  0  0  0  0  0  0  0
   -0.9443    0.1462   -1.4661 O   0  0  0  0  0  0  0  0  0  0  0  0
   -0.7104   -1.4567    0.5687 N   0  0  0  0  0  0  0  0  0  0  0  0
   -2.0564   -1.6176    0.9537 C   0  0  0  0  0  0  0  0  0  0  0  0
   -2.3488   -2.4328    1.7995 O   0  0  0  0  0  0  0  0  0  0  0  0
   -3.0921   -0.7802    0.2247 C   0  0  0  0  0  0  0  0  0  0  0  0
   -3.1194    0.7566    0.4994 C   0  0  0  0  0  0  0  0  0  0  0  0
   -1.9775    1.3893    1.2663 C   0  0  0  0  0  0  0  0  0  0  0  0
   -2.2433    2.2642    2.3251 C   0  0  0  0  0  0  0  0  0  0  0  0
   -1.2393    2.9303    3.0373 C   0  0  0  0  0  0  0  0  0  0  0  0
   -1.6486    3.7762    4.0088 O   0  0  0  0  0  0  0  0  0  0  0  0
   -0.9444    3.8711    5.2410 C   0  0  0  0  0  0  0  0  0  0  0  0
    0.1179    2.7260    2.6775 C   0  0  0  0  0  0  0  0  0  0  0  0
    1.0585    3.4287    3.3561 O   0  0  0  0  0  0  0  0  0  0  0  0
    2.4193    3.2244    3.0388 C   0  0  0  0  0  0  0  0  0  0  0  0
    0.4106    1.8288    1.6482 C   0  0  0  0  0  0  0  0  0  0  0  0
   -0.6235    1.1909    0.9585 C   0  0  0  0  0  0  0  0  0  0  0  0
    0.3014   -2.2233    1.2409 C   0  0  0  0  0  0  0  0  0  0  0  0
    0.9207   -3.1481    0.5263 N   0  0  0  0  0  0  0  0  0  0  0  0
    1.8805   -3.8601    1.1180 C   0  0  0  0  0  0  0  0  0  0  0  0
    2.2709   -3.6954    2.4551 C   0  0  0  0  0  0  0  0  0  0  0  0
    1.5922   -2.7133    3.1931 C   0  0  0  0  0  0  0  0  0  0  0  0
    0.5939   -1.9613    2.5843 C   0  0  0  0  0  0  0  0  0  0  0  0
    3.3593   -4.5341    3.0675 C   0  0  0  0  0  0  0  0  0  0  0  0
   -4.0530   -1.2161    0.5236 H   0  0  0  0  0  0  0  0  0  0  0  0
   -2.9516   -0.9505   -0.8500 H   0  0  0  0  0  0  0  0  0  0  0  0
   -3.1864    1.2650   -0.4746 H   0  0  0  0  0  0  0  0  0  0  0  0
   -4.0432    0.9950    1.0435 H   0  0  0  0  0  0  0  0  0  0  0  0
   -3.2724    2.4586    2.6334 H   0  0  0  0  0  0  0  0  0  0  0  0
   -1.6560    4.2928    5.9644 H   0  0  0  0  0  0  0  0  0  0  0  0
   -0.0649    4.5242    5.1605 H   0  0  0  0  0  0  0  0  0  0  0  0
   -0.6210    2.8769    5.5925 H   0  0  0  0  0  0  0  0  0  0  0  0
    2.9957    3.8792    3.7048 H   0  0  0  0  0  0  0  0  0  0  0  0
    2.6361    3.4934    1.9904 H   0  0  0  0  0  0  0  0  0  0  0  0
    2.7235    2.1763    3.2076 H   0  0  0  0  0  0  0  0  0  0  0  0
    1.4350    1.6120    1.3524 H   0  0  0  0  0  0  0  0  0  0  0  0
    2.3775   -4.6158    0.4979 H   0  0  0  0  0  0  0  0  0  0  0  0
    1.8477   -2.5409    4.2424 H   0  0  0  0  0  0  0  0  0  0  0  0
    0.0420   -1.1917    3.1251 H   0  0  0  0  0  0  0  0  0  0  0  0
    3.7817   -5.2386    2.3365 H   0  0  0  0  0  0  0  0  0  0  0  0
    2.9783   -5.1192    3.9207 H   0  0  0  0  0  0  0  0  0  0  0  0
    4.1817   -3.9053    3.4467 H   0  0  0  0  0  0  0  0  0  0  0  0
  1  2  2  0
  1  3  2  0
  1  4  1  0
  1 18  1  0
  4  5  1  0
  4 19  1  0
  5  6  2  0
  5  7  1  0
  7  8  1  0
  7 26  1  0
  7 27  1  0
  8  9  1  0
  8 28  1  0
  8 29  1  0
  9 10  2  0
  9 18  1  0
 10 11  1  0
 10 30  1  0
 11 12  1  0
 11 14  2  0
 12 13  1  0
 13 31  1  0
 13 32  1  0
 13 33  1  0
 14 15  1  0
 14 17  1  0
 15 16  1  0
 16 34  1  0
 16 35  1  0
 16 36  1  0
 17 18  2  0
 17 37  1  0
 19 20  2  0
 19 24  1  0
 20 21  1  0
 21 22  2  0
 21 38  1  0
 22 23  1  0
 22 25  1  0
 23 24  2  0
 23 39  1  0
 24 40  1  0
 25 41  1  0
 25 42  1  0
 25 43  1  0
M  END

