43
rmsd28.gzmat
S          0.00000        0.00000        0.00000
O          1.44160        0.00000        0.00000
O         -0.75690        0.00000       -1.22400
N         -0.52710       -1.43740        0.86750
C         -1.91330       -1.86030        0.79320
O         -2.16820       -2.94230        0.35180
C         -2.95250       -0.91380        1.34950
C         -2.97180        0.48270        0.72650
C         -1.93990        1.37940        1.34770
C         -2.36570        2.36340        2.24110
C         -1.43710        3.19690        2.87290
O         -2.01960        4.09610        3.69300
C         -1.19370        5.01440        4.39920
C         -0.05780        3.03340        2.60900
O          0.78070        3.89470        3.25920
C          2.12780        3.45720        3.40340
C          0.35940        2.07050        1.70260
C         -0.57810        1.24620        1.07510
C          0.25700       -2.09170        1.83210
N         -0.44840       -2.55070        2.90230
C          0.21190       -3.18250        3.88500
C          1.60230       -3.36470        3.87040
C          2.31530       -2.89210        2.76460
C          1.65250       -2.25330        1.72570
C          2.29610       -4.04790        4.99270
H         -2.79090       -0.85260        2.45290
H         -3.95040       -1.39150        1.22780
H         -2.85010        0.42950       -0.38320
H         -3.98770        0.91770        0.85010
H         -3.42290        2.49360        2.46810
H         -1.93660        5.60870        4.94890
H         -0.62890        5.64600        3.70480
H         -0.52700        4.48740        5.08900
H          2.54360        4.20510        4.09060
H          2.64860        3.49400        2.44050
H          2.17800        2.45800        3.84770
H          1.42920        1.95880        1.48460
H         -0.40890       -3.54450        4.71220
H          3.39530       -3.02980        2.71480
H          2.20310       -1.89270        0.85390
H          1.64140       -4.21490        5.85890
H          3.15780       -3.46640        5.35250
H          2.67580       -5.03450        4.68300
