rmsd19.gzmat
 OpenBabel08211713383D

 43 45  0  0  1  0  0  0  0  0999 V2000
    0.0000    0.0000    0.0000 S   0  0  0  0  0  0  0  0  0  0  0  0
    1.4416    0.0000    0.0000 O   0  0  0  0  0  0  0  0  0  0  0  0
   -0.7559    0.0000   -1.2244 O   0  0  0  0  0  0  0  0  0  0  0  0
   -0.5240   -1.4373    0.8701 N   0  0  0  0  0  0  0  0  0  0  0  0
   -1.9072   -1.8663    0.8074 C   0  0  0  0  0  0  0  0  0  0  0  0
   -2.1569   -2.9601    0.3912 O   0  0  0  0  0  0  0  0  0  0  0  0
   -2.9551   -0.9171    1.3431 C   0  0  0  0  0  0  0  0  0  0  0  0
   -2.9712    0.4772    0.7150 C   0  0  0  0  0  0  0  0  0  0  0  0
   -1.9435    1.3736    1.3438 C   0  0  0  0  0  0  0  0  0  0  0  0
   -2.3728    2.3495    2.2446 C   0  0  0  0  0  0  0  0  0  0  0  0
   -1.4462    3.1719    2.8939 C   0  0  0  0  0  0  0  0  0  0  0  0
   -2.0323    4.0568    3.7269 O   0  0  0  0  0  0  0  0  0  0  0  0
   -1.2091    4.9529    4.4650 C   0  0  0  0  0  0  0  0  0  0  0  0
   -0.0659    3.0132    2.6322 C   0  0  0  0  0  0  0  0  0  0  0  0
    0.7696    3.8655    3.2973 O   0  0  0  0  0  0  0  0  0  0  0  0
    2.1221    3.4384    3.4192 C   0  0  0  0  0  0  0  0  0  0  0  0
    0.3544    2.0616    1.7153 C   0  0  0  0  0  0  0  0  0  0  0  0
   -0.5805    1.2429    1.0766 C   0  0  0  0  0  0  0  0  0  0  0  0
    0.2728   -2.0841    1.8312 C   0  0  0  0  0  0  0  0  0  0  0  0
   -0.4105   -2.5067    2.9298 N   0  0  0  0  0  0  0  0  0  0  0  0
    0.2672   -3.1239    3.9101 C   0  0  0  0  0  0  0  0  0  0  0  0
    1.6533   -3.3323    3.8611 C   0  0  2  0  0  0  0  0  0  0  0  0
    2.3437   -2.8954    2.7263 C   0  0  0  0  0  0  0  0  0  0  0  0
    1.6627   -2.2690    1.6917 C   0  0  0  0  0  0  0  0  0  0  0  0
    2.3646   -4.0056    4.9785 C   0  0  0  0  0  0  0  0  0  0  0  0
   -2.8071   -0.8491    2.4483 H   0  0  0  0  0  0  0  0  0  0  0  0
   -3.9501   -1.3982    1.2109 H   0  0  0  0  0  0  0  0  0  0  0  0
   -2.8435    0.4186   -0.3937 H   0  0  0  0  0  0  0  0  0  0  0  0
   -3.9873    0.9141    0.8308 H   0  0  0  0  0  0  0  0  0  0  0  0
   -3.4309    2.4817    2.4660 H   0  0  0  0  0  0  0  0  0  0  0  0
   -1.9543    5.5346    5.0254 H   0  0  0  0  0  0  0  0  0  0  0  0
   -0.6372    5.6019    3.7926 H   0  0  0  0  0  0  0  0  0  0  0  0
   -0.5495    4.4058    5.1463 H   0  0  0  0  0  0  0  0  0  0  0  0
    2.5379    4.1797    4.1136 H   0  0  0  0  0  0  0  0  0  0  0  0
    2.6328    3.4946    2.4516 H   0  0  0  0  0  0  0  0  0  0  0  0
    2.1855    2.4325    3.8463 H   0  0  0  0  0  0  0  0  0  0  0  0
    1.4247    1.9535    1.4985 H   0  0  0  0  0  0  0  0  0  0  0  0
   -0.3347   -3.4498    4.7656 H   0  0  0  0  0  0  0  0  0  0  0  0
    3.4196   -3.0520    2.6498 H   0  0  0  0  0  0  0  0  0  0  0  0
    2.1939   -1.9346    0.7977 H   0  0  0  0  0  0  0  0  0  0  0  0
    1.7132   -4.1993    5.8418 H   0  0  0  0  0  0  0  0  0  0  0  0
    3.2082   -3.4023    5.3451 H   0  0  0  0  0  0  0  0  0  0  0  0
    2.7731   -4.9785    4.6618 H   0  0  0  0  0  0  0  0  0  0  0  0
  1  4  1  0  0  0  0
  1 18  1  0  0  0  0
  2  1  2  0  0  0  0
  3  1  2  0  0  0  0
  4 19  1  0  0  0  0
  5  4  1  0  0  0  0
  5  7  1  0  0  0  0
  6  5  2  0  0  0  0
  7 26  1  0  0  0  0
  8 29  1  0  0  0  0
  8  7  1  0  0  0  0
  8  9  1  0  0  0  0
  9 10  1  0  0  0  0
 10 30  1  0  0  0  0
 10 11  2  0  0  0  0
 11 12  1  0  0  0  0
 12 13  1  0  0  0  0
 13 31  1  0  0  0  0
 13 33  1  0  0  0  0
 14 11  1  0  0  0  0
 14 15  1  0  0  0  0
 15 16  1  0  0  0  0
 16 36  1  0  0  0  0
 16 34  1  0  0  0  0
 17 14  2  0  0  0  0
 18  9  2  0  0  0  0
 18 17  1  0  0  0  0
 19 20  2  0  0  0  0
 20 21  2  0  0  0  0
 21 38  1  0  0  0  0
 22 21  1  0  0  0  0
 22 25  1  6  0  0  0
 23 22  1  0  0  0  0
 24 19  1  0  0  0  0
 24 23  2  0  0  0  0
 25 42  1  0  0  0  0
 25 41  1  0  0  0  0
 27  7  1  0  0  0  0
 28  8  1  0  0  0  0
 32 13  1  0  0  0  0
 35 16  1  0  0  0  0
 37 17  1  0  0  0  0
 39 23  1  0  0  0  0
 40 24  1  0  0  0  0
 43 25  1  0  0  0  0
M  RAD  1  22   2
M  END
$$$$
