rmsd6.gzmat
 OpenBabel08211713383D

 43 45  0  0  1  0  0  0  0  0999 V2000
    0.0000    0.0000    0.0000 S   0  0  0  0  0  0  0  0  0  0  0  0
    1.4372    0.0000    0.0000 O   0  0  0  0  0  0  0  0  0  0  0  0
   -0.7701    0.0000   -1.2149 O   0  0  0  0  0  0  0  0  0  0  0  0
   -0.5616   -1.3667    0.9843 N   0  0  0  0  0  0  0  0  0  0  0  0
   -1.9058   -1.5384    1.3606 C   0  0  0  0  0  0  0  0  0  0  0  0
   -2.1889   -2.2944    2.2600 O   0  0  0  0  0  0  0  0  0  0  0  0
   -2.9620   -0.8261    0.5486 C   0  0  0  0  0  0  0  0  0  0  0  0
   -2.9820    0.7095    0.5615 C   0  0  0  0  0  0  0  0  0  0  0  0
   -1.9197    1.4149    1.3498 C   0  0  0  0  0  0  0  0  0  0  0  0
   -2.3215    2.3288    2.3271 C   0  0  0  0  0  0  0  0  0  0  0  0
   -1.3753    3.0810    3.0287 C   0  0  0  0  0  0  0  0  0  0  0  0
   -1.9378    3.9180    3.9266 O   0  0  0  0  0  0  0  0  0  0  0  0
   -1.0876    4.7113    4.7466 C   0  0  0  0  0  0  0  0  0  0  0  0
    0.0008    2.9174    2.7433 C   0  0  0  0  0  0  0  0  0  0  0  0
    0.8439    3.7203    3.4562 O   0  0  0  0  0  0  0  0  0  0  0  0
    2.2335    3.4356    3.3537 C   0  0  0  0  0  0  0  0  0  0  0  0
    0.3964    2.0011    1.7810 C   0  0  0  0  0  0  0  0  0  0  0  0
   -0.5598    1.2479    1.0940 C   0  0  0  0  0  0  0  0  0  0  0  0
    0.3879   -2.3230    1.4419 C   0  0  0  0  0  0  0  0  0  0  0  0
    1.1311   -2.8987    0.4695 N   0  0  0  0  0  0  0  0  0  0  0  0
    2.0825   -3.7727    0.8311 C   0  0  0  0  0  0  0  0  0  0  0  0
    2.3197   -4.1269    2.1704 C   0  0  1  0  0  0  0  0  0  0  0  0
    1.5205   -3.5481    3.1590 C   0  0  0  0  0  0  0  0  0  0  0  0
    0.5389   -2.6285    2.8060 C   0  0  0  0  0  0  0  0  0  0  0  0
    3.3849   -5.1020    2.5207 C   0  0  0  0  0  0  0  0  0  0  0  0
   -3.9503   -1.2045    0.9002 H   0  0  0  0  0  0  0  0  0  0  0  0
   -2.8803   -1.1831   -0.5095 H   0  0  0  0  0  0  0  0  0  0  0  0
   -2.9182    1.0741   -0.4976 H   0  0  0  0  0  0  0  0  0  0  0  0
   -3.9880    1.0390    0.9027 H   0  0  0  0  0  0  0  0  0  0  0  0
   -3.3761    2.4674    2.5632 H   0  0  0  0  0  0  0  0  0  0  0  0
   -1.8133    5.2523    5.3700 H   0  0  0  0  0  0  0  0  0  0  0  0
   -0.5027    5.4103    4.1384 H   0  0  0  0  0  0  0  0  0  0  0  0
   -0.4386    4.0806    5.3633 H   0  0  0  0  0  0  0  0  0  0  0  0
    2.6687    4.1546    4.0604 H   0  0  0  0  0  0  0  0  0  0  0  0
    2.5975    3.6305    2.3395 H   0  0  0  0  0  0  0  0  0  0  0  0
    2.4519    2.4093    3.6677 H   0  0  0  0  0  0  0  0  0  0  0  0
    1.4633    1.8668    1.5629 H   0  0  0  0  0  0  0  0  0  0  0  0
    2.6669   -4.2009    0.0088 H   0  0  0  0  0  0  0  0  0  0  0  0
    1.6640   -3.8155    4.2052 H   0  0  0  0  0  0  0  0  0  0  0  0
   -0.1075   -2.1702    3.5518 H   0  0  0  0  0  0  0  0  0  0  0  0
    4.1160   -5.2390    1.7116 H   0  0  0  0  0  0  0  0  0  0  0  0
    2.9572   -6.0934    2.7406 H   0  0  0  0  0  0  0  0  0  0  0  0
    3.9513   -4.7898    3.4106 H   0  0  0  0  0  0  0  0  0  0  0  0
  1  4  1  0  0  0  0
  1 18  1  0  0  0  0
  2  1  2  0  0  0  0
  3  1  2  0  0  0  0
  4  5  1  0  0  0  0
  4 19  1  0  0  0  0
  5  6  2  0  0  0  0
  7  8  1  0  0  0  0
  7 26  1  0  0  0  0
  7  5  1  0  0  0  0
  8 29  1  0  0  0  0
  8  9  1  0  0  0  0
  9 10  1  0  0  0  0
 10 30  1  0  0  0  0
 10 11  2  0  0  0  0
 11 12  1  0  0  0  0
 12 13  1  0  0  0  0
 13 33  1  0  0  0  0
 13 31  1  0  0  0  0
 14 11  1  0  0  0  0
 14 15  1  0  0  0  0
 16 15  1  0  0  0  0
 16 36  1  0  0  0  0
 16 34  1  0  0  0  0
 17 14  2  0  0  0  0
 18  9  2  0  0  0  0
 18 17  1  0  0  0  0
 19 24  1  0  0  0  0
 20 21  2  0  0  0  0
 20 19  2  0  0  0  0
 21 22  1  0  0  0  0
 22 25  1  6  0  0  0
 22 23  1  0  0  0  0
 23 39  1  0  0  0  0
 24 23  2  0  0  0  0
 24 40  1  0  0  0  0
 25 42  1  0  0  0  0
 25 43  1  0  0  0  0
 27  7  1  0  0  0  0
 28  8  1  0  0  0  0
 32 13  1  0  0  0  0
 35 16  1  0  0  0  0
 37 17  1  0  0  0  0
 38 21  1  0  0  0  0
 41 25  1  0  0  0  0
M  RAD  1  22   2
M  END
$$$$
