43

S          0.04580       -0.05180        0.24130
O          1.49170       -0.16460        0.41010
O         -0.54290        0.04520       -1.09200
N         -0.62730       -1.45090        1.01770
C         -2.02170       -1.61600        1.17490
O         -2.44090       -2.42900        1.96560
C         -2.92950       -0.80250        0.26910
C         -2.98790        0.74700        0.45850
C         -1.98050        1.42870        1.36130
C         -2.40990        2.37860        2.29390
C         -1.53220        3.08630        3.12270
O         -2.09390        3.94550        4.00300
C         -1.48660        5.19930        4.28710
C         -0.14000        2.82670        3.04170
O          0.67080        3.48010        3.91190
C          2.05390        3.19900        3.88820
C          0.31440        1.89270        2.11050
C         -0.59460        1.22800        1.28630
C          0.23170       -2.09570        1.97240
N          0.39100       -1.49390        3.14340
C          1.18700       -2.07090        4.04260
C          1.86660       -3.27990        3.82860
C          1.68460       -3.89220        2.58000
C          0.85910       -3.29520        1.63180
C          2.74580       -3.88750        4.88760
H         -3.92760       -1.22330        0.44060
H         -2.63320       -1.02350       -0.76440
H         -2.90240        1.20280       -0.53980
H         -3.98460        1.00760        0.83900
H         -3.47310        2.60120        2.40380
H         -2.28510        5.83880        4.68890
H         -1.08110        5.66250        3.37200
H         -0.67890        5.10520        5.02570
H          2.51090        3.81790        4.67110
H          2.50590        3.45620        2.91400
H          2.25350        2.13470        4.10310
H          1.36710        1.63140        2.02960
H          1.29940       -1.54820        5.00020
H          2.19180       -4.83350        2.35130
H          0.69550       -3.73370        0.64710
H          2.79510       -3.25030        5.78250
H          3.77360       -4.03390        4.51720
H          2.36870       -4.87600        5.19770
