rmsd170.gzmat
 OpenBabel08211713423D

 43 46  0  0  0  0  0  0  0  0999 V2000
    0.0000    0.0000    0.0000 C   0  0  0  0  0  0  0  0  0  0  0  0
    1.3710    0.0000    0.0000 C   0  0  0  0  0  0  0  0  0  0  0  0
    2.2109    0.0000    1.0874 O   0  0  0  0  0  0  0  0  0  0  0  0
    3.5461   -0.0049    0.5349 C   0  0  0  0  0  0  0  0  0  0  0  0
    3.4673   -0.0120   -0.9088 O   0  0  0  0  0  0  0  0  0  0  0  0
    2.1264   -0.0072   -1.1975 C   0  0  0  0  0  0  0  0  0  0  0  0
    1.5341   -0.0126   -2.4364 C   0  0  0  0  0  0  0  0  0  0  0  0
    0.1278   -0.0107   -2.4497 C   0  0  0  0  0  0  0  0  0  0  0  0
   -0.6195   -0.0112   -1.2722 C   0  0  0  0  0  0  0  0  0  0  0  0
   -2.0648   -0.0295   -1.3362 C   0  0  0  0  0  0  0  0  0  0  0  0
   -2.9032    0.8500   -2.0466 C   0  0  0  0  0  0  0  0  0  0  0  0
   -2.5728    1.9677   -2.9161 C   0  0  0  0  0  0  0  0  0  0  0  0
   -1.5100    2.3178   -3.3482 O   0  0  0  0  0  0  0  0  0  0  0  0
   -3.7181    2.6410   -3.2409 O   0  0  0  0  0  0  0  0  0  0  0  0
   -4.2111    0.4778   -1.7741 N   0  0  0  0  0  0  0  0  0  0  0  0
   -5.0590    0.9067   -2.0995 H   0  0  0  0  0  0  0  0  0  0  0  0
   -4.2504   -0.5783   -0.9513 N   0  0  0  0  0  0  0  0  0  0  0  0
   -2.9571   -0.9288   -0.6606 C   0  0  0  0  0  0  0  0  0  0  0  0
   -2.6351   -2.0398    0.2047 C   0  0  0  0  0  0  0  0  0  0  0  0
   -1.4561   -2.7701   -0.0240 C   0  0  0  0  0  0  0  0  0  0  0  0
   -1.0482   -3.7948    0.8152 C   0  0  0  0  0  0  0  0  0  0  0  0
    0.2317   -4.5272    0.5711 C   0  0  0  0  0  0  0  0  0  0  0  0
    1.4342   -3.6308    0.8823 C   0  0  0  0  0  0  0  0  0  0  0  0
   -1.8710   -4.1093    1.9153 C   0  0  0  0  0  0  0  0  0  0  0  0
   -1.4356   -5.1134    2.7138 O   0  0  0  0  0  0  0  0  0  0  0  0
   -3.0664   -3.4465    2.1662 C   0  0  0  0  0  0  0  0  0  0  0  0
   -3.4447   -2.4203    1.2900 C   0  0  0  0  0  0  0  0  0  0  0  0
   -4.6234   -1.8461    1.5989 O   0  0  0  0  0  0  0  0  0  0  0  0
   -0.5864    0.0026    0.9155 H   0  0  0  0  0  0  0  0  0  0  0  0
    4.0357   -0.9375    0.8467 H   0  0  0  0  0  0  0  0  0  0  0  0
    4.0394    0.9281    0.8396 H   0  0  0  0  0  0  0  0  0  0  0  0
    2.1085   -0.0105   -3.3568 H   0  0  0  0  0  0  0  0  0  0  0  0
   -0.3854   -0.0001   -3.4128 H   0  0  0  0  0  0  0  0  0  0  0  0
   -3.5647    3.4244   -3.8242 H   0  0  0  0  0  0  0  0  0  0  0  0
   -0.8375   -2.5167   -0.8912 H   0  0  0  0  0  0  0  0  0  0  0  0
    0.2806   -4.8762   -0.4810 H   0  0  0  0  0  0  0  0  0  0  0  0
    0.2844   -5.4497    1.1880 H   0  0  0  0  0  0  0  0  0  0  0  0
    1.4665   -2.7589    0.2189 H   0  0  0  0  0  0  0  0  0  0  0  0
    2.3766   -4.1745    0.7671 H   0  0  0  0  0  0  0  0  0  0  0  0
    1.3900   -3.2535    1.9110 H   0  0  0  0  0  0  0  0  0  0  0  0
   -2.0515   -5.2849    3.4691 H   0  0  0  0  0  0  0  0  0  0  0  0
   -3.7084   -3.7006    3.0019 H   0  0  0  0  0  0  0  0  0  0  0  0
   -4.9368   -1.2001    0.9087 H   0  0  0  0  0  0  0  0  0  0  0  0
  1  2  1  0  0  0  0
  1 29  1  0  0  0  0
  2  3  1  0  0  0  0
  4 31  1  0  0  0  0
  4 30  1  0  0  0  0
  4  3  1  0  0  0  0
  5  4  1  0  0  0  0
  6  5  1  0  0  0  0
  6  2  2  0  0  0  0
  7  6  1  0  0  0  0
  8  7  2  0  0  0  0
  8  9  1  0  0  0  0
  9  1  2  0  0  0  0
 10  9  1  0  0  0  0
 10 18  1  0  0  0  0
 11 15  1  0  0  0  0
 11 10  2  0  0  0  0
 12 11  1  0  0  0  0
 13 12  2  0  0  0  0
 14 12  1  0  0  0  0
 15 17  1  0  0  0  0
 16 15  1  0  0  0  0
 17 18  2  0  0  0  0
 18 19  1  0  0  0  0
 19 27  1  0  0  0  0
 20 19  2  0  0  0  0
 20 21  1  0  0  0  0
 21 24  2  0  0  0  0
 22 21  1  0  0  0  0
 22 23  1  0  0  0  0
 22 37  1  0  0  0  0
 23 40  1  0  0  0  0
 24 26  1  0  0  0  0
 24 25  1  0  0  0  0
 25 41  1  0  0  0  0
 26 42  1  0  0  0  0
 27 28  1  0  0  0  0
 27 26  2  0  0  0  0
 32  7  1  0  0  0  0
 33  8  1  0  0  0  0
 34 14  1  0  0  0  0
 35 20  1  0  0  0  0
 36 22  1  0  0  0  0
 38 23  1  0  0  0  0
 39 23  1  0  0  0  0
 43 28  1  0  0  0  0
M  END
$$$$
