43
rmsd135.gzmat
C          0.00000        0.00000        0.00000
C          1.37080        0.00000        0.00000
O          2.21000        0.00000        1.08780
C          3.54540       -0.00070        0.53680
O          3.46750       -0.01950       -0.90680
C          2.12690       -0.00710       -1.19670
C          1.53500       -0.00350       -2.43580
C          0.12860        0.00340       -2.44930
C         -0.61810       -0.00380       -1.27180
C         -2.06350       -0.02060       -1.33530
C         -2.89910        0.88410       -2.01600
C         -2.55660        2.03070       -2.84240
O         -1.49030        2.37650       -3.26940
O         -3.68990        2.74080       -3.12630
N         -4.20770        0.50630       -1.75690
H         -5.05420        0.95070       -2.06330
N         -4.25010       -0.57600       -0.96850
C         -2.95820       -0.93910       -0.68840
C         -2.63420       -2.07300        0.14540
C         -1.43180       -2.76640       -0.07980
C         -1.00890       -3.79570        0.74490
C          0.30720       -4.46830        0.52610
C          1.43000       -3.64890        1.17130
C         -1.84310       -4.16280        1.81980
O         -1.38860       -5.16960        2.60350
C         -3.06400       -3.54480        2.06020
C         -3.45420       -2.50660        1.20300
O         -4.65570       -1.97680        1.50300
H         -0.58690       -0.00370        0.91490
H          4.03990       -0.92770        0.85760
H          4.03280        0.93840        0.83330
H          2.11020        0.00200       -3.35550
H         -0.38560        0.02280       -3.41160
H         -3.52450        3.54690       -3.67490
H         -0.80670       -2.47830       -0.93130
H          0.50530       -4.59770       -0.55750
H          0.30010       -5.49530        0.95050
H          1.46450       -2.62820        0.76960
H          2.40680       -4.11160        1.00460
H          1.28080       -3.56370        2.25460
H         -2.01910       -5.38740        3.33430
H         -3.71490       -3.83870        2.87580
H         -4.97110       -1.31490        0.82920
