43
rmsd141.gzmat
C          0.00000        0.00000        0.00000
C          1.37010        0.00000        0.00000
O          2.20930        0.00000        1.08770
C          3.54430       -0.00150        0.53610
O          3.46610        0.00960       -0.90790
C          2.12520        0.00780       -1.19780
C          1.53190        0.01630       -2.43610
C          0.12510        0.01940       -2.45010
C         -0.62120        0.02000       -1.27280
C         -2.06650        0.05540       -1.32260
C         -2.92950       -0.79220       -2.04050
C         -2.62420       -1.87950       -2.95610
O         -1.57340       -2.20410       -3.43600
O         -3.77270       -2.55420       -3.26330
N         -4.22710       -0.41820       -1.72250
H         -5.08600       -0.83010       -2.03920
N         -4.23700        0.61200       -0.86570
C         -2.93450        0.94310       -0.59980
C         -2.56820        2.02840        0.27970
C         -1.38960        2.74880        0.01410
C         -0.92400        3.73550        0.86600
C          0.36960        4.43690        0.60910
C          1.50400        3.72670        1.35590
C         -1.68960        4.03020        2.01270
O         -1.19160        4.99800        2.81870
C         -2.88540        3.38320        2.29840
C         -3.31930        2.38730        1.41200
O         -4.49000        1.81770        1.75920
H         -0.58690       -0.00750        0.91480
H          4.03240       -0.93820        0.83810
H          4.03790        0.92720        0.85280
H          2.10600        0.01350       -3.35660
H         -0.38770        0.01420       -3.41370
H         -3.63000       -3.32020       -3.87280
H         -0.82060        2.51380       -0.89120
H          0.31010        5.49730        0.93480
H          0.59350        4.47100       -0.47620
H          1.33510        3.75370        2.43960
H          2.46930        4.20040        1.15750
H          1.57470        2.67130        1.06330
H         -1.77360        5.16810        3.60030
H         -3.48510        3.62520        3.16810
H         -4.84030        1.19450        1.06610
