43
rmsd120.gzmat
C          0.00000        0.00000        0.00000
C          1.37040        0.00000        0.00000
O          2.20980        0.00000        1.08770
C          3.54470       -0.01560        0.53560
O          3.46610        0.00690       -0.90840
C          2.12520        0.00140       -1.19790
C          1.53200       -0.00520       -2.43650
C          0.12530       -0.01180       -2.44950
C         -0.62050       -0.00180       -1.27180
C         -2.06640        0.00560       -1.32270
C         -2.90980       -0.89550       -1.99790
C         -2.58040       -2.01220       -2.86920
O         -1.53250       -2.30870       -3.37350
O         -3.70360       -2.75650       -3.09800
N         -4.21540       -0.54180       -1.69070
H         -5.06490       -0.99300       -1.97800
N         -4.24890        0.52690       -0.88340
C         -2.95430        0.90370       -0.63910
C         -2.61690        2.04210        0.18250
C         -1.45690        2.77710       -0.11780
C         -1.02800        3.83120        0.67220
C          0.24490        4.55070        0.36440
C          1.44440        3.73360        0.85620
C         -1.81240        4.17630        1.79080
O         -1.35940        5.21510        2.53280
C         -2.98750        3.50740        2.11260
C         -3.38490        2.44550        1.28880
O         -4.53770        1.85980        1.66690
H         -0.58670        0.00400        0.91490
H          4.01980       -0.96150        0.83090
H          4.05250        0.90370        0.85740
H          2.10580       -0.01610       -3.35760
H         -0.38890       -0.03820       -3.41230
H         -3.54560       -3.54280       -3.67710
H         -0.87100        2.50210       -1.00100
H          0.25630        5.55540        0.83720
H          0.33320        4.73790       -0.72520
H          1.40250        3.59030        1.94290
H          2.38940        4.23150        0.62030
H          1.46500        2.73650        0.39910
H         -1.95200        5.41310        3.29980
H         -3.59870        3.78120        2.96470
H         -4.86730        1.18810        1.00960
