43
rmsd149.gzmat
C          0.00000        0.00000        0.00000
C          1.37070        0.00000        0.00000
O          2.21100        0.00000        1.08720
C          3.54590        0.00190        0.53450
O          3.46630       -0.01740       -0.90920
C          2.12520       -0.00770       -1.19770
C          1.53180       -0.00540       -2.43630
C          0.12520       -0.00270       -2.44930
C         -0.62110       -0.01090       -1.27160
C         -2.06670       -0.04310       -1.32940
C         -2.92380        0.83210       -2.02130
C         -2.61100        1.95380       -2.89210
O         -1.55510        2.30490       -3.34090
O         -3.76140        2.62700       -3.19690
N         -4.22410        0.44320       -1.73370
H         -5.08120        0.86730       -2.03930
N         -4.24110       -0.62100       -0.92000
C         -2.94070       -0.96090       -0.65380
C         -2.58330       -2.08290        0.18160
C         -1.39700       -2.78420       -0.09570
C         -0.94000       -3.80760        0.71780
C          0.36310       -4.48420        0.44100
C          1.51850       -3.65010        1.00450
C         -1.72480       -4.16030        1.83390
O         -1.24050       -5.16460        2.60280
C         -2.92890       -3.53140        2.12780
C         -3.35280       -2.49740        1.28200
O         -4.53230       -1.94910        1.63380
H         -0.58610        0.00160        0.91510
H          4.04300       -0.92360        0.85540
H          4.03210        0.94190        0.83070
H          2.10590        0.00130       -3.35680
H         -0.38870        0.01420       -3.41210
H         -3.61760        3.41200       -3.78140
H         -0.81270       -2.50580       -0.97870
H          0.50050       -4.63680       -0.64870
H          0.38210       -5.50140        0.88630
H          1.53460       -2.64250        0.57040
H          2.48500       -4.11970        0.80180
H          1.42420       -3.53230        2.09080
H         -1.83340       -5.36860        3.36810
H         -3.54230       -3.81460        2.97510
H         -4.87340       -1.29580        0.96380
