rmsd148.gzmat
 OpenBabel08211713423D

 43 46  0  0  0  0  0  0  0  0999 V2000
    0.0000    0.0000    0.0000 C   0  0  0  0  0  0  0  0  0  0  0  0
    1.3706    0.0000    0.0000 C   0  0  0  0  0  0  0  0  0  0  0  0
    2.2110    0.0000    1.0869 O   0  0  0  0  0  0  0  0  0  0  0  0
    3.5457    0.0002    0.5341 C   0  0  0  0  0  0  0  0  0  0  0  0
    3.4663   -0.0122   -0.9096 O   0  0  0  0  0  0  0  0  0  0  0  0
    2.1253   -0.0027   -1.1982 C   0  0  0  0  0  0  0  0  0  0  0  0
    1.5322    0.0036   -2.4369 C   0  0  0  0  0  0  0  0  0  0  0  0
    0.1256    0.0060   -2.4503 C   0  0  0  0  0  0  0  0  0  0  0  0
   -0.6203   -0.0040   -1.2726 C   0  0  0  0  0  0  0  0  0  0  0  0
   -2.0661   -0.0223   -1.3264 C   0  0  0  0  0  0  0  0  0  0  0  0
   -2.9151    0.8718   -2.0041 C   0  0  0  0  0  0  0  0  0  0  0  0
   -2.5926    1.9951   -2.8693 C   0  0  0  0  0  0  0  0  0  0  0  0
   -1.5366    2.3292   -3.3305 O   0  0  0  0  0  0  0  0  0  0  0  0
   -3.7336    2.6947   -3.1497 O   0  0  0  0  0  0  0  0  0  0  0  0
   -4.2186    0.5032   -1.7057 N   0  0  0  0  0  0  0  0  0  0  0  0
   -5.0711    0.9472   -1.9958 H   0  0  0  0  0  0  0  0  0  0  0  0
   -4.2455   -0.5673   -0.9007 N   0  0  0  0  0  0  0  0  0  0  0  0
   -2.9484   -0.9311   -0.6492 C   0  0  0  0  0  0  0  0  0  0  0  0
   -2.6062   -2.0666    0.1744 C   0  0  0  0  0  0  0  0  0  0  0  0
   -1.4336   -2.7866   -0.1119 C   0  0  0  0  0  0  0  0  0  0  0  0
   -1.0039   -3.8400    0.6787 C   0  0  0  0  0  0  0  0  0  0  0  0
    0.2805   -4.5433    0.3808 C   0  0  0  0  0  0  0  0  0  0  0  0
    1.4661   -3.6917    0.8466 C   0  0  0  0  0  0  0  0  0  0  0  0
   -1.7988   -4.1979    1.7856 C   0  0  0  0  0  0  0  0  0  0  0  0
   -1.3431   -5.2323    2.5320 O   0  0  0  0  0  0  0  0  0  0  0  0
   -2.9856   -3.5433    2.0939 C   0  0  0  0  0  0  0  0  0  0  0  0
   -3.3840   -2.4828    1.2689 C   0  0  0  0  0  0  0  0  0  0  0  0
   -4.5487   -1.9125    1.6342 O   0  0  0  0  0  0  0  0  0  0  0  0
   -0.5864   -0.0006    0.9152 H   0  0  0  0  0  0  0  0  0  0  0  0
    4.0400   -0.9283    0.8498 H   0  0  0  0  0  0  0  0  0  0  0  0
    4.0347    0.9374    0.8335 H   0  0  0  0  0  0  0  0  0  0  0  0
    2.1071    0.0152   -3.3569 H   0  0  0  0  0  0  0  0  0  0  0  0
   -0.3886    0.0247   -3.4131 H   0  0  0  0  0  0  0  0  0  0  0  0
   -3.5815    3.4856   -3.7234 H   0  0  0  0  0  0  0  0  0  0  0  0
   -0.8371   -2.5008   -0.9848 H   0  0  0  0  0  0  0  0  0  0  0  0
    0.3667   -4.7529   -0.7051 H   0  0  0  0  0  0  0  0  0  0  0  0
    0.3135   -5.5369    0.8756 H   0  0  0  0  0  0  0  0  0  0  0  0
    1.4970   -2.7285    0.3230 H   0  0  0  0  0  0  0  0  0  0  0  0
    2.4176   -4.2018    0.6712 H   0  0  0  0  0  0  0  0  0  0  0  0
    1.3958   -3.4741    1.9192 H   0  0  0  0  0  0  0  0  0  0  0  0
   -1.9482   -5.4444    3.2857 H   0  0  0  0  0  0  0  0  0  0  0  0
   -3.6057   -3.8270    2.9365 H   0  0  0  0  0  0  0  0  0  0  0  0
   -4.8795   -1.2436    0.9751 H   0  0  0  0  0  0  0  0  0  0  0  0
  1  2  1  0  0  0  0
  1 29  1  0  0  0  0
  2  3  1  0  0  0  0
  4 31  1  0  0  0  0
  4 30  1  0  0  0  0
  4  3  1  0  0  0  0
  5  4  1  0  0  0  0
  6  5  1  0  0  0  0
  6  2  2  0  0  0  0
  7  6  1  0  0  0  0
  8  7  2  0  0  0  0
  8  9  1  0  0  0  0
  9  1  2  0  0  0  0
 10  9  1  0  0  0  0
 10 18  1  0  0  0  0
 11 15  1  0  0  0  0
 11 10  2  0  0  0  0
 12 11  1  0  0  0  0
 13 12  2  0  0  0  0
 14 12  1  0  0  0  0
 15 17  1  0  0  0  0
 16 15  1  0  0  0  0
 17 18  2  0  0  0  0
 18 19  1  0  0  0  0
 19 27  1  0  0  0  0
 20 19  2  0  0  0  0
 20 21  1  0  0  0  0
 21 24  2  0  0  0  0
 22 21  1  0  0  0  0
 22 23  1  0  0  0  0
 22 37  1  0  0  0  0
 23 40  1  0  0  0  0
 24 26  1  0  0  0  0
 24 25  1  0  0  0  0
 25 41  1  0  0  0  0
 26 42  1  0  0  0  0
 27 28  1  0  0  0  0
 27 26  2  0  0  0  0
 32  7  1  0  0  0  0
 33  8  1  0  0  0  0
 34 14  1  0  0  0  0
 35 20  1  0  0  0  0
 36 22  1  0  0  0  0
 38 23  1  0  0  0  0
 39 23  1  0  0  0  0
 43 28  1  0  0  0  0
M  END
$$$$
