rmsd149.gzmat
 OpenBabel08211713423D

 43 46  0  0  0  0  0  0  0  0999 V2000
    0.0000    0.0000    0.0000 C   0  0  0  0  0  0  0  0  0  0  0  0
    1.3707    0.0000    0.0000 C   0  0  0  0  0  0  0  0  0  0  0  0
    2.2110    0.0000    1.0872 O   0  0  0  0  0  0  0  0  0  0  0  0
    3.5459    0.0019    0.5345 C   0  0  0  0  0  0  0  0  0  0  0  0
    3.4663   -0.0174   -0.9092 O   0  0  0  0  0  0  0  0  0  0  0  0
    2.1252   -0.0077   -1.1977 C   0  0  0  0  0  0  0  0  0  0  0  0
    1.5318   -0.0054   -2.4363 C   0  0  0  0  0  0  0  0  0  0  0  0
    0.1252   -0.0027   -2.4493 C   0  0  0  0  0  0  0  0  0  0  0  0
   -0.6211   -0.0109   -1.2716 C   0  0  0  0  0  0  0  0  0  0  0  0
   -2.0667   -0.0431   -1.3294 C   0  0  0  0  0  0  0  0  0  0  0  0
   -2.9238    0.8321   -2.0213 C   0  0  0  0  0  0  0  0  0  0  0  0
   -2.6110    1.9538   -2.8921 C   0  0  0  0  0  0  0  0  0  0  0  0
   -1.5551    2.3049   -3.3409 O   0  0  0  0  0  0  0  0  0  0  0  0
   -3.7614    2.6270   -3.1969 O   0  0  0  0  0  0  0  0  0  0  0  0
   -4.2241    0.4432   -1.7337 N   0  0  0  0  0  0  0  0  0  0  0  0
   -5.0812    0.8673   -2.0393 H   0  0  0  0  0  0  0  0  0  0  0  0
   -4.2411   -0.6210   -0.9200 N   0  0  0  0  0  0  0  0  0  0  0  0
   -2.9407   -0.9609   -0.6538 C   0  0  0  0  0  0  0  0  0  0  0  0
   -2.5833   -2.0829    0.1816 C   0  0  0  0  0  0  0  0  0  0  0  0
   -1.3970   -2.7842   -0.0957 C   0  0  0  0  0  0  0  0  0  0  0  0
   -0.9400   -3.8076    0.7178 C   0  0  0  0  0  0  0  0  0  0  0  0
    0.3631   -4.4842    0.4410 C   0  0  0  0  0  0  0  0  0  0  0  0
    1.5185   -3.6501    1.0045 C   0  0  0  0  0  0  0  0  0  0  0  0
   -1.7248   -4.1603    1.8339 C   0  0  0  0  0  0  0  0  0  0  0  0
   -1.2405   -5.1646    2.6028 O   0  0  0  0  0  0  0  0  0  0  0  0
   -2.9289   -3.5314    2.1278 C   0  0  0  0  0  0  0  0  0  0  0  0
   -3.3528   -2.4974    1.2820 C   0  0  0  0  0  0  0  0  0  0  0  0
   -4.5323   -1.9491    1.6338 O   0  0  0  0  0  0  0  0  0  0  0  0
   -0.5861    0.0016    0.9151 H   0  0  0  0  0  0  0  0  0  0  0  0
    4.0430   -0.9236    0.8554 H   0  0  0  0  0  0  0  0  0  0  0  0
    4.0321    0.9419    0.8307 H   0  0  0  0  0  0  0  0  0  0  0  0
    2.1059    0.0013   -3.3568 H   0  0  0  0  0  0  0  0  0  0  0  0
   -0.3887    0.0142   -3.4121 H   0  0  0  0  0  0  0  0  0  0  0  0
   -3.6176    3.4120   -3.7814 H   0  0  0  0  0  0  0  0  0  0  0  0
   -0.8127   -2.5058   -0.9787 H   0  0  0  0  0  0  0  0  0  0  0  0
    0.5005   -4.6368   -0.6487 H   0  0  0  0  0  0  0  0  0  0  0  0
    0.3821   -5.5014    0.8863 H   0  0  0  0  0  0  0  0  0  0  0  0
    1.5346   -2.6425    0.5704 H   0  0  0  0  0  0  0  0  0  0  0  0
    2.4850   -4.1197    0.8018 H   0  0  0  0  0  0  0  0  0  0  0  0
    1.4242   -3.5323    2.0908 H   0  0  0  0  0  0  0  0  0  0  0  0
   -1.8334   -5.3686    3.3681 H   0  0  0  0  0  0  0  0  0  0  0  0
   -3.5423   -3.8146    2.9751 H   0  0  0  0  0  0  0  0  0  0  0  0
   -4.8734   -1.2958    0.9638 H   0  0  0  0  0  0  0  0  0  0  0  0
  1  2  1  0  0  0  0
  1 29  1  0  0  0  0
  2  3  1  0  0  0  0
  4 31  1  0  0  0  0
  4 30  1  0  0  0  0
  4  3  1  0  0  0  0
  5  4  1  0  0  0  0
  6  5  1  0  0  0  0
  6  2  2  0  0  0  0
  7  6  1  0  0  0  0
  8  7  2  0  0  0  0
  8  9  1  0  0  0  0
  9  1  2  0  0  0  0
 10  9  1  0  0  0  0
 10 18  1  0  0  0  0
 11 15  1  0  0  0  0
 11 10  2  0  0  0  0
 12 11  1  0  0  0  0
 13 12  2  0  0  0  0
 14 12  1  0  0  0  0
 15 17  1  0  0  0  0
 16 15  1  0  0  0  0
 17 18  2  0  0  0  0
 18 19  1  0  0  0  0
 19 27  1  0  0  0  0
 20 19  2  0  0  0  0
 20 21  1  0  0  0  0
 21 24  2  0  0  0  0
 22 21  1  0  0  0  0
 22 37  1  0  0  0  0
 22 23  1  0  0  0  0
 23 40  1  0  0  0  0
 24 26  1  0  0  0  0
 24 25  1  0  0  0  0
 25 41  1  0  0  0  0
 26 42  1  0  0  0  0
 27 28  1  0  0  0  0
 27 26  2  0  0  0  0
 32  7  1  0  0  0  0
 33  8  1  0  0  0  0
 34 14  1  0  0  0  0
 35 20  1  0  0  0  0
 36 22  1  0  0  0  0
 38 23  1  0  0  0  0
 39 23  1  0  0  0  0
 43 28  1  0  0  0  0
M  END
$$$$
