rmsd141.gzmat
 OpenBabel08211713423D

 43 46  0  0  0  0  0  0  0  0999 V2000
    0.0000    0.0000    0.0000 C   0  0  0  0  0  0  0  0  0  0  0  0
    1.3701    0.0000    0.0000 C   0  0  0  0  0  0  0  0  0  0  0  0
    2.2093    0.0000    1.0877 O   0  0  0  0  0  0  0  0  0  0  0  0
    3.5443   -0.0015    0.5361 C   0  0  0  0  0  0  0  0  0  0  0  0
    3.4661    0.0096   -0.9079 O   0  0  0  0  0  0  0  0  0  0  0  0
    2.1252    0.0078   -1.1978 C   0  0  0  0  0  0  0  0  0  0  0  0
    1.5319    0.0163   -2.4361 C   0  0  0  0  0  0  0  0  0  0  0  0
    0.1251    0.0194   -2.4501 C   0  0  0  0  0  0  0  0  0  0  0  0
   -0.6212    0.0200   -1.2728 C   0  0  0  0  0  0  0  0  0  0  0  0
   -2.0665    0.0554   -1.3226 C   0  0  0  0  0  0  0  0  0  0  0  0
   -2.9295   -0.7922   -2.0405 C   0  0  0  0  0  0  0  0  0  0  0  0
   -2.6242   -1.8795   -2.9561 C   0  0  0  0  0  0  0  0  0  0  0  0
   -1.5734   -2.2041   -3.4360 O   0  0  0  0  0  0  0  0  0  0  0  0
   -3.7727   -2.5542   -3.2633 O   0  0  0  0  0  0  0  0  0  0  0  0
   -4.2271   -0.4182   -1.7225 N   0  0  0  0  0  0  0  0  0  0  0  0
   -5.0860   -0.8301   -2.0392 H   0  0  0  0  0  0  0  0  0  0  0  0
   -4.2370    0.6120   -0.8657 N   0  0  0  0  0  0  0  0  0  0  0  0
   -2.9345    0.9431   -0.5998 C   0  0  0  0  0  0  0  0  0  0  0  0
   -2.5682    2.0284    0.2797 C   0  0  0  0  0  0  0  0  0  0  0  0
   -1.3896    2.7488    0.0141 C   0  0  0  0  0  0  0  0  0  0  0  0
   -0.9240    3.7355    0.8660 C   0  0  0  0  0  0  0  0  0  0  0  0
    0.3696    4.4369    0.6091 C   0  0  0  0  0  0  0  0  0  0  0  0
    1.5040    3.7267    1.3559 C   0  0  0  0  0  0  0  0  0  0  0  0
   -1.6896    4.0302    2.0127 C   0  0  0  0  0  0  0  0  0  0  0  0
   -1.1916    4.9980    2.8187 O   0  0  0  0  0  0  0  0  0  0  0  0
   -2.8854    3.3832    2.2984 C   0  0  0  0  0  0  0  0  0  0  0  0
   -3.3193    2.3873    1.4120 C   0  0  0  0  0  0  0  0  0  0  0  0
   -4.4900    1.8177    1.7592 O   0  0  0  0  0  0  0  0  0  0  0  0
   -0.5869   -0.0075    0.9148 H   0  0  0  0  0  0  0  0  0  0  0  0
    4.0324   -0.9382    0.8381 H   0  0  0  0  0  0  0  0  0  0  0  0
    4.0379    0.9272    0.8528 H   0  0  0  0  0  0  0  0  0  0  0  0
    2.1060    0.0135   -3.3566 H   0  0  0  0  0  0  0  0  0  0  0  0
   -0.3877    0.0142   -3.4137 H   0  0  0  0  0  0  0  0  0  0  0  0
   -3.6300   -3.3202   -3.8728 H   0  0  0  0  0  0  0  0  0  0  0  0
   -0.8206    2.5138   -0.8912 H   0  0  0  0  0  0  0  0  0  0  0  0
    0.3101    5.4973    0.9348 H   0  0  0  0  0  0  0  0  0  0  0  0
    0.5935    4.4710   -0.4762 H   0  0  0  0  0  0  0  0  0  0  0  0
    1.3351    3.7537    2.4396 H   0  0  0  0  0  0  0  0  0  0  0  0
    2.4693    4.2004    1.1575 H   0  0  0  0  0  0  0  0  0  0  0  0
    1.5747    2.6713    1.0633 H   0  0  0  0  0  0  0  0  0  0  0  0
   -1.7736    5.1681    3.6003 H   0  0  0  0  0  0  0  0  0  0  0  0
   -3.4851    3.6252    3.1681 H   0  0  0  0  0  0  0  0  0  0  0  0
   -4.8403    1.1945    1.0661 H   0  0  0  0  0  0  0  0  0  0  0  0
  1  2  1  0  0  0  0
  1 29  1  0  0  0  0
  2  3  1  0  0  0  0
  4 30  1  0  0  0  0
  4 31  1  0  0  0  0
  4  3  1  0  0  0  0
  5  4  1  0  0  0  0
  6  5  1  0  0  0  0
  6  2  2  0  0  0  0
  7  6  1  0  0  0  0
  8  7  2  0  0  0  0
  8  9  1  0  0  0  0
  9  1  2  0  0  0  0
 10  9  1  0  0  0  0
 10 18  1  0  0  0  0
 11 15  1  0  0  0  0
 11 10  2  0  0  0  0
 12 11  1  0  0  0  0
 13 12  2  0  0  0  0
 14 12  1  0  0  0  0
 15 17  1  0  0  0  0
 16 15  1  0  0  0  0
 17 18  2  0  0  0  0
 18 19  1  0  0  0  0
 19 27  1  0  0  0  0
 20 19  2  0  0  0  0
 20 21  1  0  0  0  0
 21 24  2  0  0  0  0
 22 21  1  0  0  0  0
 22 36  1  0  0  0  0
 22 23  1  0  0  0  0
 23 38  1  0  0  0  0
 24 26  1  0  0  0  0
 24 25  1  0  0  0  0
 25 41  1  0  0  0  0
 26 42  1  0  0  0  0
 27 28  1  0  0  0  0
 27 26  2  0  0  0  0
 32  7  1  0  0  0  0
 33  8  1  0  0  0  0
 34 14  1  0  0  0  0
 35 20  1  0  0  0  0
 37 22  1  0  0  0  0
 39 23  1  0  0  0  0
 40 23  1  0  0  0  0
 43 28  1  0  0  0  0
M  END
$$$$
