rmsd199.gzmat
 OpenBabel08211713423D

 43 46  0  0  0  0  0  0  0  0999 V2000
    0.0000    0.0000    0.0000 C   0  0  0  0  0  0  0  0  0  0  0  0
    1.3706    0.0000    0.0000 C   0  0  0  0  0  0  0  0  0  0  0  0
    2.2104    0.0000    1.0874 O   0  0  0  0  0  0  0  0  0  0  0  0
    3.5454   -0.0139    0.5352 C   0  0  0  0  0  0  0  0  0  0  0  0
    3.4665    0.0080   -0.9083 O   0  0  0  0  0  0  0  0  0  0  0  0
    2.1254    0.0046   -1.1975 C   0  0  0  0  0  0  0  0  0  0  0  0
    1.5322    0.0045   -2.4360 C   0  0  0  0  0  0  0  0  0  0  0  0
    0.1255    0.0008   -2.4491 C   0  0  0  0  0  0  0  0  0  0  0  0
   -0.6207    0.0069   -1.2715 C   0  0  0  0  0  0  0  0  0  0  0  0
   -2.0664    0.0266   -1.3255 C   0  0  0  0  0  0  0  0  0  0  0  0
   -2.9171   -0.8540   -2.0185 C   0  0  0  0  0  0  0  0  0  0  0  0
   -2.5995   -1.9608   -2.9064 C   0  0  0  0  0  0  0  0  0  0  0  0
   -1.5433   -2.2977   -3.3652 O   0  0  0  0  0  0  0  0  0  0  0  0
   -3.7476   -2.6351   -3.2191 O   0  0  0  0  0  0  0  0  0  0  0  0
   -4.2201   -0.4857   -1.7166 N   0  0  0  0  0  0  0  0  0  0  0  0
   -5.0736   -0.9177   -2.0219 H   0  0  0  0  0  0  0  0  0  0  0  0
   -4.2451    0.5725   -0.8958 N   0  0  0  0  0  0  0  0  0  0  0  0
   -2.9473    0.9279   -0.6367 C   0  0  0  0  0  0  0  0  0  0  0  0
   -2.6024    2.0523    0.2011 C   0  0  0  0  0  0  0  0  0  0  0  0
   -1.4318    2.7774   -0.0825 C   0  0  0  0  0  0  0  0  0  0  0  0
   -0.9970    3.8173    0.7223 C   0  0  0  0  0  0  0  0  0  0  0  0
    0.2831    4.5307    0.4316 C   0  0  0  0  0  0  0  0  0  0  0  0
    1.4666    3.7466    1.0082 C   0  0  0  0  0  0  0  0  0  0  0  0
   -1.7836    4.1562    1.8417 C   0  0  0  0  0  0  0  0  0  0  0  0
   -1.3208    5.1780    2.6009 O   0  0  0  0  0  0  0  0  0  0  0  0
   -2.9692    3.4983    2.1468 C   0  0  0  0  0  0  0  0  0  0  0  0
   -3.3744    2.4527    1.3057 C   0  0  0  0  0  0  0  0  0  0  0  0
   -4.5399    1.8805    1.6661 O   0  0  0  0  0  0  0  0  0  0  0  0
   -0.5867    0.0006    0.9150 H   0  0  0  0  0  0  0  0  0  0  0  0
    4.0226   -0.9583    0.8311 H   0  0  0  0  0  0  0  0  0  0  0  0
    4.0514    0.9062    0.8564 H   0  0  0  0  0  0  0  0  0  0  0  0
    2.1061   -0.0013   -3.3566 H   0  0  0  0  0  0  0  0  0  0  0  0
   -0.3883   -0.0171   -3.4119 H   0  0  0  0  0  0  0  0  0  0  0  0
   -3.6018   -3.4077   -3.8188 H   0  0  0  0  0  0  0  0  0  0  0  0
   -0.8435    2.5061   -0.9653 H   0  0  0  0  0  0  0  0  0  0  0  0
    0.2683    5.5561    0.8581 H   0  0  0  0  0  0  0  0  0  0  0  0
    0.4152    4.6678   -0.6609 H   0  0  0  0  0  0  0  0  0  0  0  0
    1.3865    3.6613    2.0991 H   0  0  0  0  0  0  0  0  0  0  0  0
    2.4177    4.2371    0.7798 H   0  0  0  0  0  0  0  0  0  0  0  0
    1.5055    2.7271    0.6041 H   0  0  0  0  0  0  0  0  0  0  0  0
   -1.9171    5.3757    3.3654 H   0  0  0  0  0  0  0  0  0  0  0  0
   -3.5834    3.7688    2.9979 H   0  0  0  0  0  0  0  0  0  0  0  0
   -4.8746    1.2233    0.9970 H   0  0  0  0  0  0  0  0  0  0  0  0
  1  2  1  0  0  0  0
  1 29  1  0  0  0  0
  2  3  1  0  0  0  0
  4 30  1  0  0  0  0
  4 31  1  0  0  0  0
  4  3  1  0  0  0  0
  5  4  1  0  0  0  0
  6  5  1  0  0  0  0
  6  2  2  0  0  0  0
  7  6  1  0  0  0  0
  8  7  2  0  0  0  0
  8  9  1  0  0  0  0
  9  1  2  0  0  0  0
 10  9  1  0  0  0  0
 10 18  1  0  0  0  0
 11 15  1  0  0  0  0
 11 10  2  0  0  0  0
 12 11  1  0  0  0  0
 13 12  2  0  0  0  0
 14 12  1  0  0  0  0
 15 17  1  0  0  0  0
 16 15  1  0  0  0  0
 17 18  2  0  0  0  0
 18 19  1  0  0  0  0
 19 27  1  0  0  0  0
 20 19  2  0  0  0  0
 20 21  1  0  0  0  0
 21 24  2  0  0  0  0
 22 21  1  0  0  0  0
 22 36  1  0  0  0  0
 22 23  1  0  0  0  0
 23 38  1  0  0  0  0
 24 26  1  0  0  0  0
 24 25  1  0  0  0  0
 25 41  1  0  0  0  0
 26 42  1  0  0  0  0
 27 28  1  0  0  0  0
 27 26  2  0  0  0  0
 32  7  1  0  0  0  0
 33  8  1  0  0  0  0
 34 14  1  0  0  0  0
 35 20  1  0  0  0  0
 37 22  1  0  0  0  0
 39 23  1  0  0  0  0
 40 23  1  0  0  0  0
 43 28  1  0  0  0  0
M  END
$$$$
