43
rmsd148.gzmat
C          0.00000        0.00000        0.00000
C          1.37060        0.00000        0.00000
O          2.21100        0.00000        1.08690
C          3.54570        0.00020        0.53410
O          3.46630       -0.01220       -0.90960
C          2.12530       -0.00270       -1.19820
C          1.53220        0.00360       -2.43690
C          0.12560        0.00600       -2.45030
C         -0.62030       -0.00400       -1.27260
C         -2.06610       -0.02230       -1.32640
C         -2.91510        0.87180       -2.00410
C         -2.59260        1.99510       -2.86930
O         -1.53660        2.32920       -3.33050
O         -3.73360        2.69470       -3.14970
N         -4.21860        0.50320       -1.70570
H         -5.07110        0.94720       -1.99580
N         -4.24550       -0.56730       -0.90070
C         -2.94840       -0.93110       -0.64920
C         -2.60620       -2.06660        0.17440
C         -1.43360       -2.78660       -0.11190
C         -1.00390       -3.84000        0.67870
C          0.28050       -4.54330        0.38080
C          1.46610       -3.69170        0.84660
C         -1.79880       -4.19790        1.78560
O         -1.34310       -5.23230        2.53200
C         -2.98560       -3.54330        2.09390
C         -3.38400       -2.48280        1.26890
O         -4.54870       -1.91250        1.63420
H         -0.58640       -0.00060        0.91520
H          4.04000       -0.92830        0.84980
H          4.03470        0.93740        0.83350
H          2.10710        0.01520       -3.35690
H         -0.38860        0.02470       -3.41310
H         -3.58150        3.48560       -3.72340
H         -0.83710       -2.50080       -0.98480
H          0.36670       -4.75290       -0.70510
H          0.31350       -5.53690        0.87560
H          1.49700       -2.72850        0.32300
H          2.41760       -4.20180        0.67120
H          1.39580       -3.47410        1.91920
H         -1.94820       -5.44440        3.28570
H         -3.60570       -3.82700        2.93650
H         -4.87950       -1.24360        0.97510
