31
rmsd104.gzmat
Cl         0.00000        0.00000        0.00000
C          1.72490        0.00000        0.00000
C          2.42100        0.00000        1.13470
S          4.20860        0.06700        1.06480
O          4.54790        1.17980        0.20180
O          4.71930        0.01740        2.41920
C          4.68860       -1.44310        0.25760
C          1.84370        0.00230        2.52230
C          1.08920        1.31150        2.79490
C          0.94980       -1.22170        2.77200
C          2.18860       -0.00650       -1.38410
C          1.98810       -1.14640       -2.17210
C          2.39440       -1.14790       -3.50200
C          2.98810       -0.01040       -4.05190
C          3.17990        1.12520       -3.26980
C          2.78090        1.13250       -1.93340
H          4.52080       -2.32180        0.89170
H          5.76070       -1.43350        0.01350
H          4.16200       -1.60200       -0.69180
H          2.67450       -0.05170        3.28950
H          0.13200        1.36740        2.26910
H          1.68260        2.18420        2.49510
H          0.87460        1.41440        3.86470
H         -0.06060       -1.09770        2.37100
H          0.83450       -1.40030        3.84800
H          1.37460       -2.12930        2.33260
H          1.50780       -2.02700       -1.74780
H          2.24560       -2.03280       -4.11710
H          3.29940       -0.01220       -5.09530
H          3.64770        2.01160       -3.69570
H          2.95460        2.02080       -1.31610
