rmsd55.gzmat
 OpenBabel08211713373D

 31 31  0  0  0  0  0  0  0  0999 V2000
    0.0000    0.0000    0.0000 Cl  0  0  0  0  0  0  0  0  0  0  0  0
    1.7251    0.0000    0.0000 C   0  0  0  0  0  0  0  0  0  0  0  0
    2.4183    0.0000    1.1365 C   0  0  0  0  0  0  0  0  0  0  0  0
    4.2059   -0.0569    1.0733 S   0  0  0  0  0  0  0  0  0  0  0  0
    4.7111    0.0141    2.4286 O   0  0  0  0  0  0  0  0  0  0  0  0
    4.5546   -1.1778    0.2245 O   0  0  0  0  0  0  0  0  0  0  0  0
    4.6783    1.4458    0.2472 C   0  0  0  0  0  0  0  0  0  0  0  0
    1.8322   -0.0083    2.5205 C   0  0  0  0  0  0  0  0  0  0  0  0
    0.8826    1.1780    2.7511 C   0  0  0  0  0  0  0  0  0  0  0  0
    1.1323   -1.3463    2.7998 C   0  0  0  0  0  0  0  0  0  0  0  0
    2.1915    0.0121   -1.3828 C   0  0  0  0  0  0  0  0  0  0  0  0
    2.7907   -1.1219   -1.9352 C   0  0  0  0  0  0  0  0  0  0  0  0
    3.1954   -1.1067   -3.2698 C   0  0  0  0  0  0  0  0  0  0  0  0
    2.9991    0.0312   -4.0479 C   0  0  0  0  0  0  0  0  0  0  0  0
    2.3950    1.1624   -3.4960 C   0  0  0  0  0  0  0  0  0  0  0  0
    1.9873    1.1542   -2.1665 C   0  0  0  0  0  0  0  0  0  0  0  0
    4.4118    1.4346   -0.8185 H   0  0  0  0  0  0  0  0  0  0  0  0
    5.7671    1.5933    0.2929 H   0  0  0  0  0  0  0  0  0  0  0  0
    4.2249    2.3346    0.6997 H   0  0  0  0  0  0  0  0  0  0  0  0
    2.6541    0.0898    3.2920 H   0  0  0  0  0  0  0  0  0  0  0  0
   -0.1499    0.9528    2.4647 H   0  0  0  0  0  0  0  0  0  0  0  0
    1.1954    2.0663    2.1946 H   0  0  0  0  0  0  0  0  0  0  0  0
    0.8578    1.4490    3.8131 H   0  0  0  0  0  0  0  0  0  0  0  0
    0.2424   -1.4975    2.1826 H   0  0  0  0  0  0  0  0  0  0  0  0
    0.8127   -1.4019    3.8466 H   0  0  0  0  0  0  0  0  0  0  0  0
    1.8051   -2.1935    2.6176 H   0  0  0  0  0  0  0  0  0  0  0  0
    2.9646   -2.0117   -1.3200 H   0  0  0  0  0  0  0  0  0  0  0  0
    3.6717   -1.9879   -3.6978 H   0  0  0  0  0  0  0  0  0  0  0  0
    3.3167    0.0386   -5.0896 H   0  0  0  0  0  0  0  0  0  0  0  0
    2.2372    2.0483   -4.1078 H   0  0  0  0  0  0  0  0  0  0  0  0
    1.5024    2.0307   -1.7390 H   0  0  0  0  0  0  0  0  0  0  0  0
  1  2  1  0  0  0  0
  2  3  2  0  0  0  0
  3  8  1  0  0  0  0
  4  3  1  0  0  0  0
  4  5  2  0  0  0  0
  6  4  2  0  0  0  0
  7 18  1  0  0  0  0
  7 19  1  0  0  0  0
  7  4  1  0  0  0  0
  8  9  1  0  0  0  0
  8 10  1  0  0  0  0
  8 20  1  0  0  0  0
  9 23  1  0  0  0  0
 10 25  1  0  0  0  0
 11  2  1  0  0  0  0
 12 11  1  0  0  0  0
 12 27  1  0  0  0  0
 13 12  2  0  0  0  0
 14 15  2  0  0  0  0
 14 13  1  0  0  0  0
 15 16  1  0  0  0  0
 16 31  1  0  0  0  0
 16 11  2  0  0  0  0
 17  7  1  0  0  0  0
 21  9  1  0  0  0  0
 22  9  1  0  0  0  0
 24 10  1  0  0  0  0
 26 10  1  0  0  0  0
 28 13  1  0  0  0  0
 29 14  1  0  0  0  0
 30 15  1  0  0  0  0
M  END
$$$$
