rmsd56.gzmat
 OpenBabel08211713373D

 31 31  0  0  0  0  0  0  0  0999 V2000
    0.0000    0.0000    0.0000 Cl  0  0  0  0  0  0  0  0  0  0  0  0
    1.7248    0.0000    0.0000 C   0  0  0  0  0  0  0  0  0  0  0  0
    2.4214    0.0000    1.1341 C   0  0  0  0  0  0  0  0  0  0  0  0
    4.2092   -0.0591    1.0644 S   0  0  0  0  0  0  0  0  0  0  0  0
    4.7183    0.0327    2.4170 O   0  0  0  0  0  0  0  0  0  0  0  0
    4.5521   -1.1938    0.2319 O   0  0  0  0  0  0  0  0  0  0  0  0
    4.6862    1.4267    0.2115 C   0  0  0  0  0  0  0  0  0  0  0  0
    1.8401   -0.0083    2.5202 C   0  0  0  0  0  0  0  0  0  0  0  0
    0.9163    1.1959    2.7605 C   0  0  0  0  0  0  0  0  0  0  0  0
    1.1120   -1.3326    2.7914 C   0  0  0  0  0  0  0  0  0  0  0  0
    2.1900    0.0099   -1.3831 C   0  0  0  0  0  0  0  0  0  0  0  0
    2.7779   -1.1299   -1.9353 C   0  0  0  0  0  0  0  0  0  0  0  0
    3.1785   -1.1201   -3.2709 C   0  0  0  0  0  0  0  0  0  0  0  0
    2.9874    0.0179   -4.0503 C   0  0  0  0  0  0  0  0  0  0  0  0
    2.3976    1.1558   -3.4974 C   0  0  0  0  0  0  0  0  0  0  0  0
    1.9953    1.1540   -2.1662 C   0  0  0  0  0  0  0  0  0  0  0  0
    4.4032    1.4052   -0.8499 H   0  0  0  0  0  0  0  0  0  0  0  0
    5.7777    1.5585    0.2365 H   0  0  0  0  0  0  0  0  0  0  0  0
    4.2542    2.3276    0.6602 H   0  0  0  0  0  0  0  0  0  0  0  0
    2.6672    0.0672    3.2890 H   0  0  0  0  0  0  0  0  0  0  0  0
   -0.1107    1.0127    2.4285 H   0  0  0  0  0  0  0  0  0  0  0  0
    1.2764    2.0935    2.2487 H   0  0  0  0  0  0  0  0  0  0  0  0
    0.8582    1.4291    3.8303 H   0  0  0  0  0  0  0  0  0  0  0  0
    0.1918   -1.4376    2.2100 H   0  0  0  0  0  0  0  0  0  0  0  0
    0.8339   -1.4105    3.8485 H   0  0  0  0  0  0  0  0  0  0  0  0
    1.7496   -2.1935    2.5556 H   0  0  0  0  0  0  0  0  0  0  0  0
    2.9435   -2.0202   -1.3186 H   0  0  0  0  0  0  0  0  0  0  0  0
    3.6470   -2.0051   -3.6991 H   0  0  0  0  0  0  0  0  0  0  0  0
    3.2955    0.0216   -5.0945 H   0  0  0  0  0  0  0  0  0  0  0  0
    2.2481    2.0418   -4.1103 H   0  0  0  0  0  0  0  0  0  0  0  0
    1.5215    2.0363   -1.7379 H   0  0  0  0  0  0  0  0  0  0  0  0
  1  2  1  0  0  0  0
  2  3  2  0  0  0  0
  3  8  1  0  0  0  0
  4  3  1  0  0  0  0
  4  5  2  0  0  0  0
  6  4  2  0  0  0  0
  7 18  1  0  0  0  0
  7 19  1  0  0  0  0
  7  4  1  0  0  0  0
  8  9  1  0  0  0  0
  8 10  1  0  0  0  0
  8 20  1  0  0  0  0
  9 23  1  0  0  0  0
 10 25  1  0  0  0  0
 11  2  1  0  0  0  0
 12 11  1  0  0  0  0
 12 27  1  0  0  0  0
 13 12  2  0  0  0  0
 14 15  2  0  0  0  0
 14 13  1  0  0  0  0
 15 16  1  0  0  0  0
 16 31  1  0  0  0  0
 16 11  2  0  0  0  0
 17  7  1  0  0  0  0
 21  9  1  0  0  0  0
 22  9  1  0  0  0  0
 24 10  1  0  0  0  0
 26 10  1  0  0  0  0
 28 13  1  0  0  0  0
 29 14  1  0  0  0  0
 30 15  1  0  0  0  0
M  END
$$$$
