rmsd108.gzmat
 OpenBabel08211713373D

 31 31  0  0  0  0  0  0  0  0999 V2000
    0.0000    0.0000    0.0000 Cl  0  0  0  0  0  0  0  0  0  0  0  0
    1.7254    0.0000    0.0000 C   0  0  0  0  0  0  0  0  0  0  0  0
    2.4177    0.0000    1.1369 C   0  0  0  0  0  0  0  0  0  0  0  0
    4.2057    0.0501    1.0767 S   0  0  0  0  0  0  0  0  0  0  0  0
    4.5603    1.1586    0.2147 O   0  0  0  0  0  0  0  0  0  0  0  0
    4.7066   -0.0038    2.4345 O   0  0  0  0  0  0  0  0  0  0  0  0
    4.6817   -1.4627    0.2717 C   0  0  0  0  0  0  0  0  0  0  0  0
    1.8303    0.0121    2.5209 C   0  0  0  0  0  0  0  0  0  0  0  0
    1.0825    1.3278    2.7822 C   0  0  0  0  0  0  0  0  0  0  0  0
    0.9246   -1.2048    2.7655 C   0  0  0  0  0  0  0  0  0  0  0  0
    2.1885   -0.0073   -1.3840 C   0  0  0  0  0  0  0  0  0  0  0  0
    1.9710   -1.1409   -2.1765 C   0  0  0  0  0  0  0  0  0  0  0  0
    2.3661   -1.1384   -3.5097 C   0  0  0  0  0  0  0  0  0  0  0  0
    2.9725   -0.0060   -4.0566 C   0  0  0  0  0  0  0  0  0  0  0  0
    3.1835    1.1225   -3.2693 C   0  0  0  0  0  0  0  0  0  0  0  0
    2.7894    1.1277   -1.9313 C   0  0  0  0  0  0  0  0  0  0  0  0
    4.5175   -2.3413    0.9065 H   0  0  0  0  0  0  0  0  0  0  0  0
    5.7534   -1.4507    0.0248 H   0  0  0  0  0  0  0  0  0  0  0  0
    4.1517   -1.6239   -0.6755 H   0  0  0  0  0  0  0  0  0  0  0  0
    2.6550   -0.0442    3.2937 H   0  0  0  0  0  0  0  0  0  0  0  0
    0.1274    1.3861    2.2530 H   0  0  0  0  0  0  0  0  0  0  0  0
    1.6816    2.1945    2.4776 H   0  0  0  0  0  0  0  0  0  0  0  0
    0.8636    1.4407    3.8502 H   0  0  0  0  0  0  0  0  0  0  0  0
   -0.1032   -1.0406    2.4263 H   0  0  0  0  0  0  0  0  0  0  0  0
    0.8644   -1.4315    3.8367 H   0  0  0  0  0  0  0  0  0  0  0  0
    1.3026   -2.1000    2.2623 H   0  0  0  0  0  0  0  0  0  0  0  0
    1.4840   -2.0188   -1.7542 H   0  0  0  0  0  0  0  0  0  0  0  0
    2.1951   -2.0155   -4.1300 H   0  0  0  0  0  0  0  0  0  0  0  0
    3.2790   -0.0074   -5.1016 H   0  0  0  0  0  0  0  0  0  0  0  0
    3.6612    2.0048   -3.6930 H   0  0  0  0  0  0  0  0  0  0  0  0
    2.9696    2.0122   -1.3105 H   0  0  0  0  0  0  0  0  0  0  0  0
  1  2  1  0  0  0  0
  2  3  2  0  0  0  0
  3  8  1  0  0  0  0
  4  3  1  0  0  0  0
  4  6  2  0  0  0  0
  5  4  2  0  0  0  0
  7 17  1  0  0  0  0
  7  4  1  0  0  0  0
  8 10  1  0  0  0  0
  8  9  1  0  0  0  0
  8 20  1  0  0  0  0
  9 23  1  0  0  0  0
 10 25  1  0  0  0  0
 11  2  1  0  0  0  0
 12 27  1  0  0  0  0
 12 11  2  0  0  0  0
 13 12  1  0  0  0  0
 14 13  2  0  0  0  0
 14 15  1  0  0  0  0
 15 16  2  0  0  0  0
 16 11  1  0  0  0  0
 16 31  1  0  0  0  0
 18  7  1  0  0  0  0
 19  7  1  0  0  0  0
 21  9  1  0  0  0  0
 22  9  1  0  0  0  0
 24 10  1  0  0  0  0
 26 10  1  0  0  0  0
 28 13  1  0  0  0  0
 29 14  1  0  0  0  0
 30 15  1  0  0  0  0
M  END
$$$$
