31
rmsd108.gzmat
Cl         0.00000        0.00000        0.00000
C          1.72540        0.00000        0.00000
C          2.41770        0.00000        1.13690
S          4.20570        0.05010        1.07670
O          4.56030        1.15860        0.21470
O          4.70660       -0.00380        2.43450
C          4.68170       -1.46270        0.27170
C          1.83030        0.01210        2.52090
C          1.08250        1.32780        2.78220
C          0.92460       -1.20480        2.76550
C          2.18850       -0.00730       -1.38400
C          1.97100       -1.14090       -2.17650
C          2.36610       -1.13840       -3.50970
C          2.97250       -0.00600       -4.05660
C          3.18350        1.12250       -3.26930
C          2.78940        1.12770       -1.93130
H          4.51750       -2.34130        0.90650
H          5.75340       -1.45070        0.02480
H          4.15170       -1.62390       -0.67550
H          2.65500       -0.04420        3.29370
H          0.12740        1.38610        2.25300
H          1.68160        2.19450        2.47760
H          0.86360        1.44070        3.85020
H         -0.10320       -1.04060        2.42630
H          0.86440       -1.43150        3.83670
H          1.30260       -2.10000        2.26230
H          1.48400       -2.01880       -1.75420
H          2.19510       -2.01550       -4.13000
H          3.27900       -0.00740       -5.10160
H          3.66120        2.00480       -3.69300
H          2.96960        2.01220       -1.31050
