31

Cl        -0.15270        0.16300        0.02230
C          1.61390        0.05270       -0.02550
C          2.31080       -0.01760        1.12380
S          4.14040        0.11480        1.09330
O          4.51730        0.64350        2.41550
O          4.72430       -1.15450        0.63450
C          4.58700        1.42210       -0.06790
C          1.79090       -0.17270        2.54460
C          1.16140        1.13110        3.06000
C          0.89000       -1.40240        2.72680
C          2.13200        0.04530       -1.41270
C          2.96200       -0.99960       -1.85000
C          3.46960       -0.98970       -3.15130
C          3.15070        0.05240       -4.02490
C          2.30500        1.08420       -3.60010
C          1.78850        1.07530       -2.30620
H          4.44370        1.10410       -1.10380
H          5.65080        1.58810        0.15070
H          4.00310        2.31860        0.17370
H          2.68460       -0.34070        3.16140
H          0.27230        1.41070        2.47690
H          1.89380        1.95010        3.00700
H          0.86100        1.01260        4.11300
H         -0.07480       -1.29960        2.21330
H          0.68950       -1.54780        3.80000
H          1.38700       -2.30930        2.34980
H          3.23080       -1.79800       -1.15990
H          4.11870       -1.80390       -3.48120
H          3.55320        0.05870       -5.04060
H          2.04590        1.89690       -4.28260
H          1.12060        1.87230       -1.97380
