rmsd47.gzmat
 OpenBabel08211713373D

 31 31  0  0  0  0  0  0  0  0999 V2000
    0.0000    0.0000    0.0000 Cl  0  0  0  0  0  0  0  0  0  0  0  0
    1.7254    0.0000    0.0000 C   0  0  0  0  0  0  0  0  0  0  0  0
    2.4205    0.0000    1.1347 C   0  0  0  0  0  0  0  0  0  0  0  0
    4.2079   -0.0622    1.0626 S   0  0  0  0  0  0  0  0  0  0  0  0
    4.7183    0.0266    2.4145 O   0  0  0  0  0  0  0  0  0  0  0  0
    4.5454   -1.1964    0.2278 O   0  0  0  0  0  0  0  0  0  0  0  0
    4.6896    1.4214    0.2076 C   0  0  0  0  0  0  0  0  0  0  0  0
    1.8367    0.0060    2.5200 C   0  0  0  0  0  0  0  0  0  0  0  0
    1.1106    1.3303    2.7988 C   0  0  0  0  0  0  0  0  0  0  0  0
    0.9122   -1.1989    2.7532 C   0  0  0  0  0  0  0  0  0  0  0  0
    2.1836    0.0060   -1.3855 C   0  0  0  0  0  0  0  0  0  0  0  0
    2.7382   -1.1452   -1.9482 C   0  0  0  0  0  0  0  0  0  0  0  0
    3.1050   -1.1458   -3.2936 C   0  0  0  0  0  0  0  0  0  0  0  0
    2.9219   -0.0041   -4.0694 C   0  0  0  0  0  0  0  0  0  0  0  0
    2.3737    1.1480   -3.5031 C   0  0  0  0  0  0  0  0  0  0  0  0
    1.9999    1.1546   -2.1638 C   0  0  0  0  0  0  0  0  0  0  0  0
    4.4772    1.3610   -0.8686 H   0  0  0  0  0  0  0  0  0  0  0  0
    5.7720    1.5929    0.3017 H   0  0  0  0  0  0  0  0  0  0  0  0
    4.1973    2.3172    0.5994 H   0  0  0  0  0  0  0  0  0  0  0  0
    2.6620   -0.0739    3.2902 H   0  0  0  0  0  0  0  0  0  0  0  0
    0.2165    1.4621    2.1837 H   0  0  0  0  0  0  0  0  0  0  0  0
    1.7646    2.1907    2.6251 H   0  0  0  0  0  0  0  0  0  0  0  0
    0.7850    1.3747    3.8449 H   0  0  0  0  0  0  0  0  0  0  0  0
   -0.1195   -1.0090    2.4429 H   0  0  0  0  0  0  0  0  0  0  0  0
    0.8770   -1.4586    3.8175 H   0  0  0  0  0  0  0  0  0  0  0  0
    1.2620   -2.0865    2.2136 H   0  0  0  0  0  0  0  0  0  0  0  0
    2.9021   -2.0370   -1.3338 H   0  0  0  0  0  0  0  0  0  0  0  0
    3.5368   -2.0440   -3.7327 H   0  0  0  0  0  0  0  0  0  0  0  0
    3.2046   -0.0082   -5.1209 H   0  0  0  0  0  0  0  0  0  0  0  0
    2.2332    2.0381   -4.1125 H   0  0  0  0  0  0  0  0  0  0  0  0
    1.5565    2.0472   -1.7250 H   0  0  0  0  0  0  0  0  0  0  0  0
  1  2  1  0  0  0  0
  2  3  2  0  0  0  0
  3  8  1  0  0  0  0
  4  3  1  0  0  0  0
  4  5  2  0  0  0  0
  6  4  2  0  0  0  0
  7 18  1  0  0  0  0
  7 19  1  0  0  0  0
  7  4  1  0  0  0  0
  8 10  1  0  0  0  0
  8  9  1  0  0  0  0
  8 20  1  0  0  0  0
  9 23  1  0  0  0  0
 10 25  1  0  0  0  0
 11  2  1  0  0  0  0
 12 11  1  0  0  0  0
 12 27  1  0  0  0  0
 13 12  2  0  0  0  0
 14 15  2  0  0  0  0
 14 13  1  0  0  0  0
 15 16  1  0  0  0  0
 16 31  1  0  0  0  0
 16 11  2  0  0  0  0
 17  7  1  0  0  0  0
 21  9  1  0  0  0  0
 22  9  1  0  0  0  0
 24 10  1  0  0  0  0
 26 10  1  0  0  0  0
 28 13  1  0  0  0  0
 29 14  1  0  0  0  0
 30 15  1  0  0  0  0
M  END
$$$$
