rmsd106.gzmat
 OpenBabel08211713373D

 31 31  0  0  0  0  0  0  0  0999 V2000
    0.0000    0.0000    0.0000 Cl  0  0  0  0  0  0  0  0  0  0  0  0
    1.7249    0.0000    0.0000 C   0  0  0  0  0  0  0  0  0  0  0  0
    2.4200    0.0000    1.1351 C   0  0  0  0  0  0  0  0  0  0  0  0
    4.2064    0.0927    1.0653 S   0  0  0  0  0  0  0  0  0  0  0  0
    4.5271    1.2108    0.2024 O   0  0  0  0  0  0  0  0  0  0  0  0
    4.7143    0.0497    2.4207 O   0  0  0  0  0  0  0  0  0  0  0  0
    4.7192   -1.4060    0.2563 C   0  0  0  0  0  0  0  0  0  0  0  0
    1.8370   -0.0181    2.5207 C   0  0  0  0  0  0  0  0  0  0  0  0
    1.1156    1.3032    2.8230 C   0  0  0  0  0  0  0  0  0  0  0  0
    0.9047   -1.2220    2.7332 C   0  0  0  0  0  0  0  0  0  0  0  0
    2.1868   -0.0126   -1.3844 C   0  0  0  0  0  0  0  0  0  0  0  0
    1.9999   -1.1644   -2.1583 C   0  0  0  0  0  0  0  0  0  0  0  0
    2.3904   -1.1715   -3.4927 C   0  0  0  0  0  0  0  0  0  0  0  0
    2.9620   -0.0305   -4.0588 C   0  0  0  0  0  0  0  0  0  0  0  0
    3.1459    1.1145   -3.2887 C   0  0  0  0  0  0  0  0  0  0  0  0
    2.7575    1.1294   -1.9491 C   0  0  0  0  0  0  0  0  0  0  0  0
    4.6592   -2.2744    0.9232 H   0  0  0  0  0  0  0  0  0  0  0  0
    5.7666   -1.3346   -0.0723 H   0  0  0  0  0  0  0  0  0  0  0  0
    4.1330   -1.6261   -0.6443 H   0  0  0  0  0  0  0  0  0  0  0  0
    2.6627   -0.1173    3.2883 H   0  0  0  0  0  0  0  0  0  0  0  0
    0.2225    1.4491    2.2090 H   0  0  0  0  0  0  0  0  0  0  0  0
    1.7729    2.1645    2.6547 H   0  0  0  0  0  0  0  0  0  0  0  0
    0.7932    1.3368    3.8703 H   0  0  0  0  0  0  0  0  0  0  0  0
   -0.1278   -1.0105    2.4367 H   0  0  0  0  0  0  0  0  0  0  0  0
    0.8722   -1.5015    3.7928 H   0  0  0  0  0  0  0  0  0  0  0  0
    1.2386   -2.1009    2.1743 H   0  0  0  0  0  0  0  0  0  0  0  0
    1.5415   -2.0494   -1.7194 H   0  0  0  0  0  0  0  0  0  0  0  0
    2.2448   -2.0632   -4.0984 H   0  0  0  0  0  0  0  0  0  0  0  0
    3.2632   -0.0375   -5.1052 H   0  0  0  0  0  0  0  0  0  0  0  0
    3.5978    2.0026   -3.7276 H   0  0  0  0  0  0  0  0  0  0  0  0
    2.9209    2.0255   -1.3406 H   0  0  0  0  0  0  0  0  0  0  0  0
  1  2  1  0  0  0  0
  2  3  2  0  0  0  0
  3  8  1  0  0  0  0
  4  3  1  0  0  0  0
  4  6  2  0  0  0  0
  5  4  2  0  0  0  0
  7 17  1  0  0  0  0
  7  4  1  0  0  0  0
  8 10  1  0  0  0  0
  8  9  1  0  0  0  0
  8 20  1  0  0  0  0
  9 23  1  0  0  0  0
 10 25  1  0  0  0  0
 11  2  1  0  0  0  0
 12 27  1  0  0  0  0
 12 11  2  0  0  0  0
 13 12  1  0  0  0  0
 14 13  2  0  0  0  0
 14 15  1  0  0  0  0
 15 16  2  0  0  0  0
 16 11  1  0  0  0  0
 16 31  1  0  0  0  0
 18  7  1  0  0  0  0
 19  7  1  0  0  0  0
 21  9  1  0  0  0  0
 22  9  1  0  0  0  0
 24 10  1  0  0  0  0
 26 10  1  0  0  0  0
 28 13  1  0  0  0  0
 29 14  1  0  0  0  0
 30 15  1  0  0  0  0
M  END
$$$$
