55
rmsd111.gzmat
C          0.00000        0.00000        0.00000
C          1.38530        0.00000        0.00000
C          2.05230        0.00000        1.22950
C          1.32940        0.00460        2.42330
C         -0.06100        0.00490        2.40920
C         -0.76340       -0.00580        1.19410
N         -2.16200        0.01480        1.12660
C         -3.00630       -0.34250        2.17890
O         -2.60480       -0.70020        3.25880
C         -4.51310       -0.22330        1.88170
H         -4.99870       -1.20790        2.09950
C         -5.09110        0.91580        2.66270
C         -4.49460        2.17220        2.59810
C         -5.02280        3.26070        3.29810
C         -6.16080        3.07290        4.09310
C         -6.76300        1.80950        4.13590
C         -6.23590        0.73210        3.43460
C         -6.78760        4.19080        4.89820
C         -5.82190        5.38320        5.04890
C         -5.17650        5.74390        3.71480
C         -4.30400        4.58810        3.18700
C         -3.96670        4.89920        1.71570
C         -3.00020        4.49030        3.99920
C         -7.13700        3.70350        6.31770
C         -8.07300        4.63380        4.17650
O         -4.68020       -0.04320        0.48880
C          3.51910       -0.00950        1.21720
O          4.25660       -0.06500        0.26550
O          4.03530        0.05560        2.47610
F         -0.62510       -0.00060       -1.16920
H          1.95420       -0.00490       -0.93680
H          1.85970        0.00760        3.38150
H         -0.60410        0.00910        3.35990
H         -2.60440        0.17510        0.21770
H         -3.58870        2.30590        2.00340
H         -7.66360        1.66110        4.73210
H         -6.71360       -0.24450        3.49570
H         -6.36350        6.25520        5.46000
H         -5.03840        5.13900        5.79280
H         -4.56490        6.65910        3.82090
H         -5.95970        5.99310        2.97320
H         -4.85190        4.80890        1.07780
H         -3.19780        4.22850        1.31850
H         -3.58180        5.92000        1.61040
H         -3.20290        4.25130        5.04930
H         -2.44190        5.43150        3.97200
H         -2.34400        3.70260        3.61140
H         -6.27680        3.21660        6.79140
H         -7.96260        2.98520        6.31540
H         -7.44190        4.53910        6.95710
H         -7.85950        4.98120        3.15940
H         -8.56650        5.45120        4.71200
H         -8.79020        3.81020        4.09320
H         -5.14350        0.79990        0.28890
H          5.02390        0.04380        2.48950
