
     RDKit          3D

 55 57  0  0  0  0  0  0  0  0999 V2000
    0.1125   -0.7782    0.2525 C   0  0  0  0  0  0  0  0  0  0  0  0
    1.4865   -0.9099    0.2190 C   0  0  0  0  0  0  0  0  0  0  0  0
    2.2451   -0.3527    1.2623 C   0  0  0  0  0  0  0  0  0  0  0  0
    1.5947    0.3194    2.3064 C   0  0  0  0  0  0  0  0  0  0  0  0
    0.2081    0.4452    2.3301 C   0  0  0  0  0  0  0  0  0  0  0  0
   -0.5621   -0.1079    1.2916 C   0  0  0  0  0  0  0  0  0  0  0  0
   -1.9484   -0.0380    1.2041 N   0  0  0  0  0  0  0  0  0  0  0  0
   -2.8245    0.5513    2.0747 C   0  0  0  0  0  0  0  0  0  0  0  0
   -2.5336    1.1061    3.1157 O   0  0  0  0  0  0  0  0  0  0  0  0
   -4.2843    0.5051    1.5854 C   0  0  1  0  0  0  0  0  0  0  0  0
   -4.8812    0.2228    2.4709 H   0  0  0  0  0  0  0  0  0  0  0  0
   -4.6819    1.8970    1.1328 C   0  0  0  0  0  0  0  0  0  0  0  0
   -4.4639    2.2967   -0.1854 C   0  0  0  0  0  0  0  0  0  0  0  0
   -4.7619    3.5923   -0.6407 C   0  0  0  0  0  0  0  0  0  0  0  0
   -5.2729    4.5318    0.2823 C   0  0  0  0  0  0  0  0  0  0  0  0
   -5.4909    4.1141    1.6086 C   0  0  0  0  0  0  0  0  0  0  0  0
   -5.2030    2.8246    2.0397 C   0  0  0  0  0  0  0  0  0  0  0  0
   -5.6392    5.9708   -0.1071 C   0  0  0  0  0  0  0  0  0  0  0  0
   -4.9984    6.3393   -1.4592 C   0  0  0  0  0  0  0  0  0  0  0  0
   -5.1638    5.2476   -2.5037 C   0  0  0  0  0  0  0  0  0  0  0  0
   -4.4602    3.9360   -2.1064 C   0  0  0  0  0  0  0  0  0  0  0  0
   -4.9584    2.8279   -3.0536 C   0  0  0  0  0  0  0  0  0  0  0  0
   -2.9317    4.0806   -2.2735 C   0  0  0  0  0  0  0  0  0  0  0  0
   -5.1334    6.9788    0.9426 C   0  0  0  0  0  0  0  0  0  0  0  0
   -7.1766    6.0811   -0.2016 C   0  0  0  0  0  0  0  0  0  0  0  0
   -4.3935   -0.4646    0.5591 O   0  0  0  0  0  0  0  0  0  0  0  0
    3.7258   -0.4541    1.2935 C   0  0  0  0  0  0  0  0  0  0  0  0
    4.4329    0.0042    2.1610 O   0  0  0  0  0  0  0  0  0  0  0  0
    4.2303   -1.1248    0.2335 O   0  0  0  0  0  0  0  0  0  0  0  0
   -0.6400   -1.3012   -0.7388 F   0  0  0  0  0  0  0  0  0  0  0  0
    1.9596   -1.4383   -0.6079 H   0  0  0  0  0  0  0  0  0  0  0  0
    2.2019    0.7446    3.1068 H   0  0  0  0  0  0  0  0  0  0  0  0
   -0.3035    0.9635    3.1373 H   0  0  0  0  0  0  0  0  0  0  0  0
   -2.3852   -0.5016    0.4105 H   0  0  0  0  0  0  0  0  0  0  0  0
   -4.0420    1.5707   -0.8815 H   0  0  0  0  0  0  0  0  0  0  0  0
   -5.8999    4.8233    2.3296 H   0  0  0  0  0  0  0  0  0  0  0  0
   -5.3692    2.5393    3.0807 H   0  0  0  0  0  0  0  0  0  0  0  0
   -5.4388    7.2848   -1.8160 H   0  0  0  0  0  0  0  0  0  0  0  0
   -3.9258    6.5415   -1.3030 H   0  0  0  0  0  0  0  0  0  0  0  0
   -4.7707    5.5824   -3.4777 H   0  0  0  0  0  0  0  0  0  0  0  0
   -6.2365    5.0451   -2.6602 H   0  0  0  0  0  0  0  0  0  0  0  0
   -6.0284    2.6224   -2.8940 H   0  0  0  0  0  0  0  0  0  0  0  0
   -4.4058    1.8855   -2.9260 H   0  0  0  0  0  0  0  0  0  0  0  0
   -4.8244    3.1440   -4.1005 H   0  0  0  0  0  0  0  0  0  0  0  0
   -2.5274    4.8814   -1.6373 H   0  0  0  0  0  0  0  0  0  0  0  0
   -2.6776    4.3099   -3.3213 H   0  0  0  0  0  0  0  0  0  0  0  0
   -2.4172    3.1489   -1.9932 H   0  0  0  0  0  0  0  0  0  0  0  0
   -4.0526    6.8608    1.1157 H   0  0  0  0  0  0  0  0  0  0  0  0
   -5.6463    6.8738    1.9096 H   0  0  0  0  0  0  0  0  0  0  0  0
   -5.3130    8.0065    0.5881 H   0  0  0  0  0  0  0  0  0  0  0  0
   -7.5870    5.4022   -0.9636 H   0  0  0  0  0  0  0  0  0  0  0  0
   -7.4746    7.1104   -0.4601 H   0  0  0  0  0  0  0  0  0  0  0  0
   -7.6477    5.8203    0.7583 H   0  0  0  0  0  0  0  0  0  0  0  0
   -5.2158   -0.3088    0.0761 H   0  0  0  0  0  0  0  0  0  0  0  0
    5.1946   -1.1335    0.3514 H   0  0  0  0  0  0  0  0  0  0  0  0
  1  2  2  0
  1  6  1  0
  1 30  1  0
  2  3  1  0
  2 31  1  0
  3  4  2  0
  3 27  1  0
  4  5  1  0
  4 32  1  0
  5  6  2  0
  5 33  1  0
  6  7  1  0
  7  8  1  0
  7 34  1  0
  8  9  2  0
  8 10  1  0
 10 11  1  1
 10 12  1  0
 10 26  1  0
 12 13  2  0
 12 17  1  0
 13 14  1  0
 13 35  1  0
 14 15  2  0
 14 21  1  0
 15 16  1  0
 15 18  1  0
 16 17  2  0
 16 36  1  0
 17 37  1  0
 18 19  1  0
 18 24  1  0
 18 25  1  0
 19 20  1  0
 19 38  1  0
 19 39  1  0
 20 21  1  0
 20 40  1  0
 20 41  1  0
 21 22  1  0
 21 23  1  0
 22 42  1  0
 22 43  1  0
 22 44  1  0
 23 45  1  0
 23 46  1  0
 23 47  1  0
 24 48  1  0
 24 49  1  0
 24 50  1  0
 25 51  1  0
 25 52  1  0
 25 53  1  0
 26 54  1  0
 27 28  2  0
 27 29  1  0
 29 55  1  0
M  END

