rmsd140.gzmat
 OpenBabel08211713413D

 55 56  0  0  1  0  0  0  0  0999 V2000
    0.0000    0.0000    0.0000 C   0  0  0  0  0  0  0  0  0  0  0  0
    1.3853    0.0000    0.0000 C   0  0  0  0  0  0  0  0  0  0  0  0
    2.0530    0.0000    1.2293 C   0  0  0  0  0  0  0  0  0  0  0  0
    1.3317    0.0002    2.4236 C   0  0  0  0  0  0  0  0  0  0  0  0
   -0.0588    0.0054    2.4098 C   0  0  0  0  0  0  0  0  0  0  0  0
   -0.7611    0.0022    1.1945 C   0  0  0  0  0  0  0  0  0  0  0  0
   -2.1610    0.0296    1.1263 N   0  0  0  0  0  0  0  0  0  0  0  0
   -2.9975   -0.3133    2.1801 C   0  0  0  0  0  0  0  0  0  0  0  0
   -2.6002   -0.6657    3.2664 O   0  0  0  0  0  0  0  0  0  0  0  0
   -4.5076   -0.1734    1.9137 C   0  0  1  0  0  0  0  0  0  0  0  0
   -5.0468   -1.0174    2.4139 H   0  0  0  0  0  0  0  0  0  0  0  0
   -4.9558    1.1631    2.4295 C   0  0  0  0  0  0  0  0  0  0  0  0
   -4.8331    1.4269    3.7911 C   0  0  0  0  0  0  0  0  0  0  0  0
   -5.2211    2.6579    4.3277 C   0  0  0  0  0  0  0  0  0  0  0  0
   -5.8123    3.6099    3.4878 C   0  0  0  0  0  0  0  0  0  0  0  0
   -5.9043    3.3454    2.1166 C   0  0  0  0  0  0  0  0  0  0  0  0
   -5.4672    2.1399    1.5798 C   0  0  0  0  0  0  0  0  0  0  0  0
   -6.3420    4.9302    4.0019 C   0  0  2  0  0  0  0  0  0  0  0  0
   -6.4865    4.9046    5.5374 C   0  0  0  0  0  0  0  0  0  0  0  0
   -5.2236    4.3621    6.1981 C   0  0  0  0  0  0  0  0  0  0  0  0
   -4.9705    2.8928    5.8021 C   0  0  0  0  0  0  0  0  0  0  0  0
   -3.4981    2.5747    6.1297 C   0  0  0  0  0  0  0  0  0  0  0  0
   -5.8938    1.9662    6.6125 C   0  0  0  0  0  0  0  0  0  0  0  0
   -7.7390    5.2132    3.4156 C   0  0  0  0  0  0  0  0  0  0  0  0
   -5.3721    6.0452    3.5740 C   0  0  0  0  0  0  0  0  0  0  0  0
   -4.6755   -0.3135    0.5196 O   0  0  0  0  0  0  0  0  0  0  0  0
    3.5198    0.0027    1.2111 C   0  0  0  0  0  0  0  0  0  0  0  0
    4.2514   -0.0064    0.2532 O   0  0  0  0  0  0  0  0  0  0  0  0
    4.0427    0.0212    2.4686 O   0  0  0  0  0  0  0  0  0  0  0  0
   -0.6264   -0.0059   -1.1682 F   0  0  0  0  0  0  0  0  0  0  0  0
    1.9545   -0.0031   -0.9366 H   0  0  0  0  0  0  0  0  0  0  0  0
    1.8619   -0.0019    3.3818 H   0  0  0  0  0  0  0  0  0  0  0  0
   -0.6015    0.0118    3.3608 H   0  0  0  0  0  0  0  0  0  0  0  0
   -2.6017    0.2407    0.2277 H   0  0  0  0  0  0  0  0  0  0  0  0
   -4.4058    0.6621    4.4466 H   0  0  0  0  0  0  0  0  0  0  0  0
   -6.3214    4.0998    1.4499 H   0  0  0  0  0  0  0  0  0  0  0  0
   -5.5178    1.9785    0.5045 H   0  0  0  0  0  0  0  0  0  0  0  0
   -6.7066    5.9216    5.9107 H   0  0  0  0  0  0  0  0  0  0  0  0
   -7.3578    4.2829    5.8203 H   0  0  0  0  0  0  0  0  0  0  0  0
   -5.2997    4.4472    7.2979 H   0  0  0  0  0  0  0  0  0  0  0  0
   -4.3539    4.9850    5.9118 H   0  0  0  0  0  0  0  0  0  0  0  0
   -2.8196    3.1172    5.4614 H   0  0  0  0  0  0  0  0  0  0  0  0
   -3.2718    1.5081    6.0221 H   0  0  0  0  0  0  0  0  0  0  0  0
   -3.2536    2.8555    7.1592 H   0  0  0  0  0  0  0  0  0  0  0  0
   -6.9477    2.1616    6.3877 H   0  0  0  0  0  0  0  0  0  0  0  0
   -5.7496    2.1046    7.6889 H   0  0  0  0  0  0  0  0  0  0  0  0
   -5.7038    0.9107    6.3882 H   0  0  0  0  0  0  0  0  0  0  0  0
   -8.4073    4.3566    3.5548 H   0  0  0  0  0  0  0  0  0  0  0  0
   -7.6994    5.4287    2.3436 H   0  0  0  0  0  0  0  0  0  0  0  0
   -8.1994    6.0801    3.9018 H   0  0  0  0  0  0  0  0  0  0  0  0
   -4.3603    5.8582    3.9514 H   0  0  0  0  0  0  0  0  0  0  0  0
   -5.6956    7.0194    3.9537 H   0  0  0  0  0  0  0  0  0  0  0  0
   -5.2996    6.1191    2.4835 H   0  0  0  0  0  0  0  0  0  0  0  0
   -5.6146   -0.1764    0.2689 H   0  0  0  0  0  0  0  0  0  0  0  0
    5.0317    0.0180    2.4757 H   0  0  0  0  0  0  0  0  0  0  0  0
  1  6  1  0  0  0  0
  2  1  2  0  0  0  0
  2  3  1  0  0  0  0
  3  4  2  0  0  0  0
  4 32  1  0  0  0  0
  5  4  1  0  0  0  0
  5 33  1  0  0  0  0
  6  5  2  0  0  0  0
  7  6  1  0  0  0  0
  7  8  1  0  0  0  0
  8  9  2  0  0  0  0
 10  8  1  0  0  0  0
 10 11  1  1  0  0  0
 10 12  1  0  0  0  0
 12 13  2  0  0  0  0
 13 14  1  0  0  0  0
 13 35  1  0  0  0  0
 14 21  1  0  0  0  0
 15 18  1  0  0  0  0
 15 14  2  0  0  0  0
 16 15  1  0  0  0  0
 17 16  2  0  0  0  0
 17 12  1  0  0  0  0
 18 25  1  6  0  0  0
 18 19  1  0  0  0  0
 19 39  1  0  0  0  0
 19 38  1  0  0  0  0
 19 20  1  0  0  0  0
 20 40  1  0  0  0  0
 21 22  1  0  0  0  0
 21 20  1  0  0  0  0
 21 23  1  0  0  0  0
 22 44  1  0  0  0  0
 23 46  1  0  0  0  0
 24 48  1  0  0  0  0
 24 50  1  0  0  0  0
 24 18  1  0  0  0  0
 25 51  1  0  0  0  0
 25 52  1  0  0  0  0
 26 10  1  0  0  0  0
 27  3  1  0  0  0  0
 27 29  1  0  0  0  0
 28 27  2  0  0  0  0
 29 55  1  0  0  0  0
 30  1  1  0  0  0  0
 31  2  1  0  0  0  0
 34  7  1  0  0  0  0
 36 16  1  0  0  0  0
 37 17  1  0  0  0  0
 41 20  1  0  0  0  0
 42 22  1  0  0  0  0
 43 22  1  0  0  0  0
 45 23  1  0  0  0  0
 47 23  1  0  0  0  0
 49 24  1  0  0  0  0
 54 26  1  0  0  0  0
M  RAD  2  25   2  53   2
M  END
$$$$
