55
rmsd94.gzmat
C          0.00000        0.00000        0.00000
C          1.38640        0.00000        0.00000
C          2.04990        0.00000        1.22920
C          1.32540        0.00760        2.42380
C         -0.06400        0.00500        2.41000
C         -0.76350       -0.00270        1.19310
N         -2.16300       -0.03220        1.11980
C         -3.01170        0.33800        2.16000
O         -2.60660        0.70870        3.23620
C         -4.51270        0.20550        1.85810
H         -4.90200       -0.66620        2.45130
C         -5.29440        1.45520        2.12590
C         -6.68100        1.36820        2.00860
C         -7.49900        2.48200        2.21350
C         -6.90810        3.71720        2.50920
C         -5.51640        3.79080        2.63920
C         -4.70890        2.67470        2.45370
C         -7.71350        4.98020        2.72690
C         -9.16710        4.81770        2.23900
C         -9.75910        3.48740        2.69280
C         -8.99460        2.29880        2.07770
C         -9.45440        1.02680        2.81670
C         -9.32620        2.16870        0.58030
C         -7.09380        6.15420        1.94370
C         -7.69490        5.30120        4.23230
O         -4.68010       -0.21040        0.51650
C          3.51500       -0.01400        1.30940
O          4.20590        0.03150        2.29580
O          4.08800       -0.09740        0.07720
F         -0.62630        0.00530       -1.16850
H          1.95190        0.00280       -0.93820
H          1.86050        0.01150        3.38010
H         -0.60810        0.00660        3.36040
H         -2.59700       -0.33380        0.24430
H         -7.13120        0.40780        1.74960
H         -5.04790        4.74190        2.89410
H         -3.62890        2.76690        2.58070
H         -9.78380        5.65650        2.61200
H         -9.20310        4.88760        1.13470
H        -10.82800        3.43150        2.41540
H         -9.73070        3.41870        3.79760
H         -9.07570        1.00950        3.84480
H         -9.10850        0.11390        2.32150
H        -10.54750        0.97230        2.86080
H         -9.00230        3.05610        0.02550
H        -10.40260        2.04850        0.42130
H         -8.82510        1.30440        0.13160
H         -6.93670        5.88940        0.89250
H         -6.12590        6.45700        2.35620
H         -7.74400        7.03550        1.97360
H         -8.11530        4.47670        4.81910
H         -8.27690        6.20120        4.45430
H         -6.67440        5.46700        4.59500
H         -4.94220        0.54260       -0.05980
H          5.07620       -0.11960        0.10980
