55
rmsd93.gzmat
C          0.00000        0.00000        0.00000
C          1.38620        0.00000        0.00000
C          2.05030        0.00000        1.22880
C          1.32510       -0.00130        2.42300
C         -0.06470        0.00060        2.40890
C         -0.76490        0.00020        1.19220
N         -2.16440        0.03420        1.11590
C         -3.02060       -0.27860        2.17030
O         -2.61560       -0.63840        3.25020
C         -4.52430       -0.16700        1.84370
H         -4.94980       -1.20450        1.76780
C         -5.27680        0.65090        2.85280
C         -5.02240        0.52820        4.21390
C         -5.72850        1.28260        5.15810
C         -6.75040        2.13500        4.72770
C         -7.00560        2.24900        3.35530
C         -6.28480        1.51600        2.42230
C         -7.59120        2.95430        5.68240
C         -7.44190        2.45070        7.13230
C         -5.97690        2.22060        7.48890
C         -5.35710        1.11130        6.61560
C         -3.82800        1.18790        6.78920
C         -5.85880       -0.26810        7.07900
C         -9.08310        2.84780        5.30910
C         -7.14060        4.42240        5.58120
O         -4.66420        0.32710        0.53140
C          3.51560        0.00420        1.30300
O          4.21120        0.00280        2.28720
O          4.08280        0.01310        0.06530
F         -0.62250       -0.00060       -1.17070
H          1.95150       -0.00080       -0.93860
H          1.86050       -0.00180        3.37930
H         -0.60740        0.00240        3.35960
H         -2.59230        0.21640        0.20480
H         -4.25600       -0.17210        4.56390
H         -7.78940        2.92140        3.00750
H         -6.53270        1.60550        1.36500
H         -7.89500        3.17820        7.83070
H         -8.01310        1.51120        7.26310
H         -5.88150        1.95450        8.55790
H         -5.40580        3.16040        7.36290
H         -3.42100        2.09210        6.32360
H         -3.31800        0.33150        6.33220
H         -3.55150        1.19880        7.84850
H         -6.93810       -0.37010        6.92210
H         -5.65750       -0.42760        8.14280
H         -5.37060       -1.07740        6.52410
H         -9.37730        1.80400        5.15300
H         -9.31700        3.39850        4.39260
H         -9.71870        3.25860        6.10090
H         -6.08300        4.53230        5.84680
H         -7.72260        5.06320        6.25120
H         -7.25940        4.80870        4.56340
H         -4.68170        1.31240        0.51750
H          5.07140        0.01460        0.09160
