55
rmsd140.gzmat
C          0.00000        0.00000        0.00000
C          1.38530        0.00000        0.00000
C          2.05300        0.00000        1.22930
C          1.33170        0.00020        2.42360
C         -0.05880        0.00540        2.40980
C         -0.76110        0.00220        1.19450
N         -2.16100        0.02960        1.12630
C         -2.99750       -0.31330        2.18010
O         -2.60020       -0.66570        3.26640
C         -4.50760       -0.17340        1.91370
H         -5.04680       -1.01740        2.41390
C         -4.95580        1.16310        2.42950
C         -4.83310        1.42690        3.79110
C         -5.22110        2.65790        4.32770
C         -5.81230        3.60990        3.48780
C         -5.90430        3.34540        2.11660
C         -5.46720        2.13990        1.57980
C         -6.34200        4.93020        4.00190
C         -6.48650        4.90460        5.53740
C         -5.22360        4.36210        6.19810
C         -4.97050        2.89280        5.80210
C         -3.49810        2.57470        6.12970
C         -5.89380        1.96620        6.61250
C         -7.73900        5.21320        3.41560
C         -5.37210        6.04520        3.57400
O         -4.67550       -0.31350        0.51960
C          3.51980        0.00270        1.21110
O          4.25140       -0.00640        0.25320
O          4.04270        0.02120        2.46860
F         -0.62640       -0.00590       -1.16820
H          1.95450       -0.00310       -0.93660
H          1.86190       -0.00190        3.38180
H         -0.60150        0.01180        3.36080
H         -2.60170        0.24070        0.22770
H         -4.40580        0.66210        4.44660
H         -6.32140        4.09980        1.44990
H         -5.51780        1.97850        0.50450
H         -6.70660        5.92160        5.91070
H         -7.35780        4.28290        5.82030
H         -5.29970        4.44720        7.29790
H         -4.35390        4.98500        5.91180
H         -2.81960        3.11720        5.46140
H         -3.27180        1.50810        6.02210
H         -3.25360        2.85550        7.15920
H         -6.94770        2.16160        6.38770
H         -5.74960        2.10460        7.68890
H         -5.70380        0.91070        6.38820
H         -8.40730        4.35660        3.55480
H         -7.69940        5.42870        2.34360
H         -8.19940        6.08010        3.90180
H         -4.36030        5.85820        3.95140
H         -5.69560        7.01940        3.95370
H         -5.29960        6.11910        2.48350
H         -5.61460       -0.17640        0.26890
H          5.03170        0.01800        2.47570
