rmsd78.gzmat
 OpenBabel08211713413D

 55 57  0  0  1  0  0  0  0  0999 V2000
    0.0000    0.0000    0.0000 C   0  0  0  0  0  0  0  0  0  0  0  0
    1.3859    0.0000    0.0000 C   0  0  0  0  0  0  0  0  0  0  0  0
    2.0509    0.0000    1.2284 C   0  0  0  0  0  0  0  0  0  0  0  0
    1.3263   -0.0013    2.4230 C   0  0  0  0  0  0  0  0  0  0  0  0
   -0.0632   -0.0029    2.4097 C   0  0  0  0  0  0  0  0  0  0  0  0
   -0.7648   -0.0038    1.1935 C   0  0  0  0  0  0  0  0  0  0  0  0
   -2.1625    0.0182    1.1181 N   0  0  0  0  0  0  0  0  0  0  0  0
   -3.0189   -0.2649    2.1793 C   0  0  0  0  0  0  0  0  0  0  0  0
   -2.6399   -0.5575    3.2875 O   0  0  0  0  0  0  0  0  0  0  0  0
   -4.5221   -0.1628    1.8590 C   0  0  1  0  0  0  0  0  0  0  0  0
   -5.0376   -1.0769    2.2465 H   0  0  0  0  0  0  0  0  0  0  0  0
   -5.0593    1.1102    2.4381 C   0  0  0  0  0  0  0  0  0  0  0  0
   -5.7641    1.0865    3.6359 C   0  0  0  0  0  0  0  0  0  0  0  0
   -6.2846    2.2619    4.1901 C   0  0  0  0  0  0  0  0  0  0  0  0
   -6.1165    3.4718    3.5069 C   0  0  0  0  0  0  0  0  0  0  0  0
   -5.3788    3.4873    2.3153 C   0  0  0  0  0  0  0  0  0  0  0  0
   -4.8494    2.3217    1.7795 C   0  0  0  0  0  0  0  0  0  0  0  0
   -6.6843    4.7819    4.0094 C   0  0  0  0  0  0  0  0  0  0  0  0
   -7.7432    4.5503    5.1063 C   0  0  0  0  0  0  0  0  0  0  0  0
   -7.2514    3.5412    6.1389 C   0  0  0  0  0  0  0  0  0  0  0  0
   -7.0332    2.1544    5.5013 C   0  0  0  0  0  0  0  0  0  0  0  0
   -6.2332    1.3044    6.5068 C   0  0  0  0  0  0  0  0  0  0  0  0
   -8.3906    1.4818    5.2272 C   0  0  0  0  0  0  0  0  0  0  0  0
   -7.3720    5.5404    2.8572 C   0  0  0  0  0  0  0  0  0  0  0  0
   -5.5266    5.6303    4.5640 C   0  0  0  0  0  0  0  0  0  0  0  0
   -4.6461   -0.1989    0.4500 O   0  0  0  0  0  0  0  0  0  0  0  0
    3.5154    0.0022    1.3016 C   0  0  0  0  0  0  0  0  0  0  0  0
    4.2126    0.0537    2.2835 O   0  0  0  0  0  0  0  0  0  0  0  0
    4.0835   -0.0636    0.0655 O   0  0  0  0  0  0  0  0  0  0  0  0
   -0.6228   -0.0027   -1.1708 F   0  0  0  0  0  0  0  0  0  0  0  0
    1.9514   -0.0043   -0.9382 H   0  0  0  0  0  0  0  0  0  0  0  0
    1.8621    0.0014    3.3790 H   0  0  0  0  0  0  0  0  0  0  0  0
   -0.6065   -0.0029    3.3607 H   0  0  0  0  0  0  0  0  0  0  0  0
   -2.5979    0.1654    0.2031 H   0  0  0  0  0  0  0  0  0  0  0  0
   -5.9062    0.1378    4.1563 H   0  0  0  0  0  0  0  0  0  0  0  0
   -5.2119    4.4316    1.7973 H   0  0  0  0  0  0  0  0  0  0  0  0
   -4.2691    2.3560    0.8583 H   0  0  0  0  0  0  0  0  0  0  0  0
   -7.9924    5.5092    5.5970 H   0  0  0  0  0  0  0  0  0  0  0  0
   -8.6867    4.1949    4.6485 H   0  0  0  0  0  0  0  0  0  0  0  0
   -7.9735    3.4628    6.9726 H   0  0  0  0  0  0  0  0  0  0  0  0
   -6.3069    3.8972    6.5946 H   0  0  0  0  0  0  0  0  0  0  0  0
   -5.1978    1.6562    6.5863 H   0  0  0  0  0  0  0  0  0  0  0  0
   -6.1978    0.2486    6.2185 H   0  0  0  0  0  0  0  0  0  0  0  0
   -6.6815    1.3488    7.5050 H   0  0  0  0  0  0  0  0  0  0  0  0
   -8.9795    2.0573    4.5047 H   0  0  0  0  0  0  0  0  0  0  0  0
   -8.9811    1.3943    6.1449 H   0  0  0  0  0  0  0  0  0  0  0  0
   -8.2647    0.4748    4.8159 H   0  0  0  0  0  0  0  0  0  0  0  0
   -8.0614    4.8878    2.3104 H   0  0  0  0  0  0  0  0  0  0  0  0
   -6.6488    5.9359    2.1369 H   0  0  0  0  0  0  0  0  0  0  0  0
   -7.9468    6.3934    3.2342 H   0  0  0  0  0  0  0  0  0  0  0  0
   -5.0271    5.1243    5.3984 H   0  0  0  0  0  0  0  0  0  0  0  0
   -5.8842    6.5998    4.9258 H   0  0  0  0  0  0  0  0  0  0  0  0
   -4.7646    5.8199    3.8003 H   0  0  0  0  0  0  0  0  0  0  0  0
   -5.4508    0.2819    0.1566 H   0  0  0  0  0  0  0  0  0  0  0  0
    5.0718   -0.0655    0.0930 H   0  0  0  0  0  0  0  0  0  0  0  0
  1  6  1  0  0  0  0
  2  1  2  0  0  0  0
  2  3  1  0  0  0  0
  3 27  1  0  0  0  0
  3  4  2  0  0  0  0
  4 32  1  0  0  0  0
  5  4  1  0  0  0  0
  5 33  1  0  0  0  0
  6  5  2  0  0  0  0
  7  6  1  0  0  0  0
  7  8  1  0  0  0  0
  8  9  2  0  0  0  0
 10  8  1  0  0  0  0
 10 11  1  1  0  0  0
 10 12  1  0  0  0  0
 12 13  2  0  0  0  0
 13 35  1  0  0  0  0
 13 14  1  0  0  0  0
 14 21  1  0  0  0  0
 15 18  1  0  0  0  0
 15 14  2  0  0  0  0
 16 15  1  0  0  0  0
 17 16  2  0  0  0  0
 17 12  1  0  0  0  0
 18 25  1  0  0  0  0
 18 19  1  0  0  0  0
 19 38  1  0  0  0  0
 19 20  1  0  0  0  0
 20 41  1  0  0  0  0
 20 40  1  0  0  0  0
 21 20  1  0  0  0  0
 21 22  1  0  0  0  0
 22 42  1  0  0  0  0
 22 44  1  0  0  0  0
 23 21  1  0  0  0  0
 23 46  1  0  0  0  0
 24 50  1  0  0  0  0
 24 18  1  0  0  0  0
 25 52  1  0  0  0  0
 25 51  1  0  0  0  0
 26 10  1  0  0  0  0
 27 28  2  0  0  0  0
 29 55  1  0  0  0  0
 29 27  1  0  0  0  0
 30  1  1  0  0  0  0
 31  2  1  0  0  0  0
 34  7  1  0  0  0  0
 36 16  1  0  0  0  0
 37 17  1  0  0  0  0
 39 19  1  0  0  0  0
 43 22  1  0  0  0  0
 45 23  1  0  0  0  0
 47 23  1  0  0  0  0
 48 24  1  0  0  0  0
 49 24  1  0  0  0  0
 53 25  1  0  0  0  0
 54 26  1  0  0  0  0
M  END
$$$$
