
     RDKit          3D

 55 57  0  0  0  0  0  0  0  0999 V2000
    0.0254    0.5492    0.5466 C   0  0  0  0  0  0  0  0  0  0  0  0
    1.2784    0.4482    1.1180 C   0  0  0  0  0  0  0  0  0  0  0  0
    1.3884   -0.0659    2.4209 C   0  0  0  0  0  0  0  0  0  0  0  0
    0.2321   -0.4622    3.1070 C   0  0  0  0  0  0  0  0  0  0  0  0
   -1.0264   -0.3561    2.5206 C   0  0  0  0  0  0  0  0  0  0  0  0
   -1.1497    0.1571    1.2171 C   0  0  0  0  0  0  0  0  0  0  0  0
   -2.3510    0.3150    0.5336 N   0  0  0  0  0  0  0  0  0  0  0  0
   -3.6134    0.0032    0.9566 C   0  0  0  0  0  0  0  0  0  0  0  0
   -3.9068   -0.4943    2.0261 O   0  0  0  0  0  0  0  0  0  0  0  0
   -4.7063    0.3874   -0.0589 C   0  0  1  0  0  0  0  0  0  0  0  0
   -5.3727   -0.4925   -0.1105 H   0  0  0  0  0  0  0  0  0  0  0  0
   -5.4820    1.5727    0.4845 C   0  0  0  0  0  0  0  0  0  0  0  0
   -6.5044    1.3756    1.4113 C   0  0  0  0  0  0  0  0  0  0  0  0
   -7.2103    2.4407    1.9927 C   0  0  0  0  0  0  0  0  0  0  0  0
   -6.8894    3.7610    1.6000 C   0  0  0  0  0  0  0  0  0  0  0  0
   -5.8458    3.9470    0.6769 C   0  0  0  0  0  0  0  0  0  0  0  0
   -5.1391    2.8813    0.1284 C   0  0  0  0  0  0  0  0  0  0  0  0
   -7.5982    4.9979    2.1699 C   0  0  0  0  0  0  0  0  0  0  0  0
   -8.9076    4.5884    2.8710 C   0  0  0  0  0  0  0  0  0  0  0  0
   -8.7326    3.3796    3.7753 C   0  0  0  0  0  0  0  0  0  0  0  0
   -8.3221    2.1130    3.0000 C   0  0  0  0  0  0  0  0  0  0  0  0
   -7.8482    1.0648    4.0252 C   0  0  0  0  0  0  0  0  0  0  0  0
   -9.5357    1.5458    2.2321 C   0  0  0  0  0  0  0  0  0  0  0  0
   -7.9545    5.9991    1.0545 C   0  0  0  0  0  0  0  0  0  0  0  0
   -6.6527    5.6903    3.1757 C   0  0  0  0  0  0  0  0  0  0  0  0
   -4.0995    0.6453   -1.3108 O   0  0  0  0  0  0  0  0  0  0  0  0
    2.7016   -0.2037    3.0994 C   0  0  0  0  0  0  0  0  0  0  0  0
    2.8612   -0.6375    4.2170 O   0  0  0  0  0  0  0  0  0  0  0  0
    3.7360    0.2117    2.3342 O   0  0  0  0  0  0  0  0  0  0  0  0
   -0.1086    1.0413   -0.7030 F   0  0  0  0  0  0  0  0  0  0  0  0
    2.1563    0.7657    0.5564 H   0  0  0  0  0  0  0  0  0  0  0  0
    0.3392   -0.8588    4.1176 H   0  0  0  0  0  0  0  0  0  0  0  0
   -1.9276   -0.6629    3.0458 H   0  0  0  0  0  0  0  0  0  0  0  0
   -2.2982    0.6850   -0.4129 H   0  0  0  0  0  0  0  0  0  0  0  0
   -6.7439    0.3518    1.7009 H   0  0  0  0  0  0  0  0  0  0  0  0
   -5.5686    4.9604    0.3822 H   0  0  0  0  0  0  0  0  0  0  0  0
   -4.3227    3.0648   -0.5731 H   0  0  0  0  0  0  0  0  0  0  0  0
   -9.2884    5.4491    3.4451 H   0  0  0  0  0  0  0  0  0  0  0  0
   -9.6705    4.3701    2.1051 H   0  0  0  0  0  0  0  0  0  0  0  0
   -9.6634    3.1724    4.3284 H   0  0  0  0  0  0  0  0  0  0  0  0
   -7.9662    3.5963    4.5376 H   0  0  0  0  0  0  0  0  0  0  0  0
   -6.9197    1.3877    4.5204 H   0  0  0  0  0  0  0  0  0  0  0  0
   -7.6615    0.0819    3.5691 H   0  0  0  0  0  0  0  0  0  0  0  0
   -8.6203    0.9262    4.7990 H   0  0  0  0  0  0  0  0  0  0  0  0
   -9.9328    2.2703    1.5057 H   0  0  0  0  0  0  0  0  0  0  0  0
  -10.3448    1.2800    2.9319 H   0  0  0  0  0  0  0  0  0  0  0  0
   -9.2568    0.6393    1.6739 H   0  0  0  0  0  0  0  0  0  0  0  0
   -8.5499    5.5154    0.2645 H   0  0  0  0  0  0  0  0  0  0  0  0
   -7.0639    6.4431    0.5864 H   0  0  0  0  0  0  0  0  0  0  0  0
   -8.5502    6.8264    1.4728 H   0  0  0  0  0  0  0  0  0  0  0  0
   -6.3894    5.0244    4.0105 H   0  0  0  0  0  0  0  0  0  0  0  0
   -7.1268    6.5945    3.5913 H   0  0  0  0  0  0  0  0  0  0  0  0
   -5.7132    5.9909    2.6878 H   0  0  0  0  0  0  0  0  0  0  0  0
   -4.7390    1.0977   -1.8764 H   0  0  0  0  0  0  0  0  0  0  0  0
    4.5380    0.0797    2.8665 H   0  0  0  0  0  0  0  0  0  0  0  0
  1  2  2  0
  1  6  1  0
  1 30  1  0
  2  3  1  0
  2 31  1  0
  3  4  2  0
  3 27  1  0
  4  5  1  0
  4 32  1  0
  5  6  2  0
  5 33  1  0
  6  7  1  0
  7  8  1  0
  7 34  1  0
  8  9  2  0
  8 10  1  0
 10 11  1  6
 10 12  1  0
 10 26  1  0
 12 13  2  0
 12 17  1  0
 13 14  1  0
 13 35  1  0
 14 15  2  0
 14 21  1  0
 15 16  1  0
 15 18  1  0
 16 17  2  0
 16 36  1  0
 17 37  1  0
 18 19  1  0
 18 24  1  0
 18 25  1  0
 19 20  1  0
 19 38  1  0
 19 39  1  0
 20 21  1  0
 20 40  1  0
 20 41  1  0
 21 22  1  0
 21 23  1  0
 22 42  1  0
 22 43  1  0
 22 44  1  0
 23 45  1  0
 23 46  1  0
 23 47  1  0
 24 48  1  0
 24 49  1  0
 24 50  1  0
 25 51  1  0
 25 52  1  0
 25 53  1  0
 26 54  1  0
 27 28  2  0
 27 29  1  0
 29 55  1  0
M  END

