rmsd72.gzmat
 OpenBabel08211713413D

 55 57  0  0  1  0  0  0  0  0999 V2000
    0.0000    0.0000    0.0000 C   0  0  0  0  0  0  0  0  0  0  0  0
    1.3860    0.0000    0.0000 C   0  0  0  0  0  0  0  0  0  0  0  0
    2.0510    0.0000    1.2284 C   0  0  0  0  0  0  0  0  0  0  0  0
    1.3252    0.0192    2.4220 C   0  0  0  0  0  0  0  0  0  0  0  0
   -0.0645    0.0239    2.4083 C   0  0  0  0  0  0  0  0  0  0  0  0
   -0.7671    0.0027    1.1928 C   0  0  0  0  0  0  0  0  0  0  0  0
   -2.1646   -0.0219    1.1100 N   0  0  0  0  0  0  0  0  0  0  0  0
   -3.0302    0.0134    2.1969 C   0  0  0  0  0  0  0  0  0  0  0  0
   -2.6722    0.1149    3.3465 O   0  0  0  0  0  0  0  0  0  0  0  0
   -4.5308   -0.0632    1.8563 C   0  0  1  0  0  0  0  0  0  0  0  0
   -5.0390   -0.7145    2.6121 H   0  0  0  0  0  0  0  0  0  0  0  0
   -5.0990    1.3242    1.8362 C   0  0  0  0  0  0  0  0  0  0  0  0
   -5.2359    2.0116    3.0384 C   0  0  0  0  0  0  0  0  0  0  0  0
   -5.7639    3.3060    3.0738 C   0  0  0  0  0  0  0  0  0  0  0  0
   -6.2131    3.8915    1.8836 C   0  0  0  0  0  0  0  0  0  0  0  0
   -6.0390    3.2035    0.6767 C   0  0  0  0  0  0  0  0  0  0  0  0
   -5.4776    1.9331    0.6424 C   0  0  0  0  0  0  0  0  0  0  0  0
   -6.8676    5.2552    1.8390 C   0  0  0  0  0  0  0  0  0  0  0  0
   -7.2795    5.7207    3.2507 C   0  0  0  0  0  0  0  0  0  0  0  0
   -6.1458    5.5068    4.2488 C   0  0  0  0  0  0  0  0  0  0  0  0
   -5.8262    4.0072    4.4140 C   0  0  0  0  0  0  0  0  0  0  0  0
   -4.4639    3.9007    5.1264 C   0  0  0  0  0  0  0  0  0  0  0  0
   -6.9084    3.3270    5.2713 C   0  0  0  0  0  0  0  0  0  0  0  0
   -8.1456    5.2043    0.9789 C   0  0  0  0  0  0  0  0  0  0  0  0
   -5.8716    6.2513    1.2198 C   0  0  0  0  0  0  0  0  0  0  0  0
   -4.6176   -0.7106    0.6042 O   0  0  0  0  0  0  0  0  0  0  0  0
    3.5151   -0.0251    1.3066 C   0  0  0  0  0  0  0  0  0  0  0  0
    4.2089    0.0120    2.2919 O   0  0  0  0  0  0  0  0  0  0  0  0
    4.0868   -0.1090    0.0733 O   0  0  0  0  0  0  0  0  0  0  0  0
   -0.6213   -0.0059   -1.1715 F   0  0  0  0  0  0  0  0  0  0  0  0
    1.9508   -0.0011   -0.9385 H   0  0  0  0  0  0  0  0  0  0  0  0
    1.8602    0.0281    3.3784 H   0  0  0  0  0  0  0  0  0  0  0  0
   -0.6040    0.0387    3.3616 H   0  0  0  0  0  0  0  0  0  0  0  0
   -2.5928   -0.1285    0.1859 H   0  0  0  0  0  0  0  0  0  0  0  0
   -4.9067    1.5352    3.9658 H   0  0  0  0  0  0  0  0  0  0  0  0
   -6.3441    3.6718   -0.2588 H   0  0  0  0  0  0  0  0  0  0  0  0
   -5.3291    1.4317   -0.3125 H   0  0  0  0  0  0  0  0  0  0  0  0
   -7.5734    6.7860    3.2256 H   0  0  0  0  0  0  0  0  0  0  0  0
   -8.1812    5.1687    3.5793 H   0  0  0  0  0  0  0  0  0  0  0  0
   -6.4073    5.9465    5.2287 H   0  0  0  0  0  0  0  0  0  0  0  0
   -5.2406    6.0486    3.9113 H   0  0  0  0  0  0  0  0  0  0  0  0
   -3.6478    4.2270    4.4713 H   0  0  0  0  0  0  0  0  0  0  0  0
   -4.2386    2.8738    5.4350 H   0  0  0  0  0  0  0  0  0  0  0  0
   -4.4403    4.5208    6.0284 H   0  0  0  0  0  0  0  0  0  0  0  0
   -7.8883    3.3717    4.7842 H   0  0  0  0  0  0  0  0  0  0  0  0
   -6.9997    3.8079    6.2506 H   0  0  0  0  0  0  0  0  0  0  0  0
   -6.6780    2.2697    5.4420 H   0  0  0  0  0  0  0  0  0  0  0  0
   -8.7955    4.3778    1.2861 H   0  0  0  0  0  0  0  0  0  0  0  0
   -7.9218    5.0690   -0.0839 H   0  0  0  0  0  0  0  0  0  0  0  0
   -8.7185    6.1335    1.0698 H   0  0  0  0  0  0  0  0  0  0  0  0
   -4.9448    6.2996    1.8034 H   0  0  0  0  0  0  0  0  0  0  0  0
   -6.2942    7.2602    1.1764 H   0  0  0  0  0  0  0  0  0  0  0  0
   -5.5953    5.9619    0.2003 H   0  0  0  0  0  0  0  0  0  0  0  0
   -5.5417   -0.7000    0.2727 H   0  0  0  0  0  0  0  0  0  0  0  0
    5.0750   -0.1322    0.1058 H   0  0  0  0  0  0  0  0  0  0  0  0
  1  6  1  0  0  0  0
  2  1  2  0  0  0  0
  2  3  1  0  0  0  0
  3 27  1  0  0  0  0
  3  4  2  0  0  0  0
  4 32  1  0  0  0  0
  5  4  1  0  0  0  0
  5 33  1  0  0  0  0
  6  5  2  0  0  0  0
  7  6  1  0  0  0  0
  7  8  1  0  0  0  0
  8  9  2  0  0  0  0
 10  8  1  0  0  0  0
 10 11  1  1  0  0  0
 12 10  1  0  0  0  0
 12 13  2  0  0  0  0
 13 14  1  0  0  0  0
 13 35  1  0  0  0  0
 14 21  1  0  0  0  0
 15 14  2  0  0  0  0
 16 15  1  0  0  0  0
 17 16  2  0  0  0  0
 17 12  1  0  0  0  0
 18 15  1  0  0  0  0
 18 19  1  0  0  0  0
 19 39  1  0  0  0  0
 19 20  1  0  0  0  0
 20 21  1  0  0  0  0
 20 40  1  0  0  0  0
 21 22  1  0  0  0  0
 21 23  1  0  0  0  0
 22 43  1  0  0  0  0
 22 44  1  0  0  0  0
 23 47  1  0  0  0  0
 23 46  1  0  0  0  0
 24 50  1  0  0  0  0
 24 48  1  0  0  0  0
 24 18  1  0  0  0  0
 25 51  1  0  0  0  0
 25 18  1  0  0  0  0
 26 10  1  0  0  0  0
 27 28  2  0  0  0  0
 29 55  1  0  0  0  0
 29 27  1  0  0  0  0
 30  1  1  0  0  0  0
 31  2  1  0  0  0  0
 34  7  1  0  0  0  0
 36 16  1  0  0  0  0
 37 17  1  0  0  0  0
 38 19  1  0  0  0  0
 41 20  1  0  0  0  0
 42 22  1  0  0  0  0
 45 23  1  0  0  0  0
 49 24  1  0  0  0  0
 52 25  1  0  0  0  0
 53 25  1  0  0  0  0
 54 26  1  0  0  0  0
M  END
$$$$
