55
rmsd69.gzmat
C          0.00000        0.00000        0.00000
C          1.38480        0.00000        0.00000
C          2.05250        0.00000        1.22920
C          1.32860        0.00380        2.42160
C         -0.06240        0.00410        2.40750
C         -0.76630       -0.00090        1.19360
N         -2.16440       -0.01280        1.10770
C         -3.04080        0.05730        2.18990
O         -2.65990        0.11770        3.33450
C         -4.53080       -0.02340        1.80300
H         -4.86280       -1.08940        1.94130
C         -5.44070        0.91160        2.54400
C         -5.15020        1.42500        3.80010
C         -6.04960        2.26570        4.46950
C         -7.28190        2.56010        3.87950
C         -7.56260        2.05160        2.60390
C         -6.66170        1.23220        1.94110
C         -8.32910        3.42000        4.55300
C         -8.03530        3.57580        6.05870
C         -6.57050        3.92610        6.30080
C         -5.63950        2.79060        5.82940
C         -4.20870        3.35980        5.77160
C         -5.68690        1.62010        6.82810
C         -9.72300        2.77520        4.42170
C         -8.33280        4.79610        3.86400
O         -4.63690        0.16270        0.40640
C          3.51940       -0.00700        1.21410
O          4.25370        0.03530        0.25950
O          4.03710       -0.07530        2.47190
F         -0.62170        0.00120       -1.17120
H          1.95480       -0.00020       -0.93640
H          1.85860        0.00390        3.38030
H         -0.59930        0.00410        3.36190
H         -2.58860       -0.09190        0.17800
H         -4.20780        1.16790        4.29530
H         -8.50950        2.29620        2.12350
H         -6.91750        0.82620        0.96180
H         -8.69180        4.35260        6.49180
H         -8.29020        2.63740        6.58820
H         -6.39920        4.13110        7.37370
H         -6.31540        4.86480        5.77240
H         -4.10310        4.08460        4.95720
H         -3.46040        2.57510        5.60860
H         -3.94590        3.86280        6.70790
H         -6.69040        1.18430        6.88080
H         -5.40730        1.94340        7.83550
H         -5.00010        0.81740        6.53490
H         -9.70290        1.72480        4.73260
H        -10.09620        2.80830        3.39340
H        -10.45820        3.29470        5.04590
H         -7.34560        5.26870        3.91930
H         -9.05430        5.47380        4.33050
H         -8.59240        4.71190        2.80340
H         -4.75250        1.11530        0.18340
H          5.02570       -0.09180        2.48320
