
     RDKit          3D

 55 57  0  0  0  0  0  0  0  0999 V2000
    0.2097    0.4785    0.5790 C   0  0  0  0  0  0  0  0  0  0  0  0
    1.5796    0.4216    0.7269 C   0  0  0  0  0  0  0  0  0  0  0  0
    2.1162   -0.2527    1.8363 C   0  0  0  0  0  0  0  0  0  0  0  0
    1.2537   -0.8510    2.7656 C   0  0  0  0  0  0  0  0  0  0  0  0
   -0.1297   -0.7874    2.6056 C   0  0  0  0  0  0  0  0  0  0  0  0
   -0.6774   -0.1154    1.4994 C   0  0  0  0  0  0  0  0  0  0  0  0
   -2.0378    0.0183    1.2427 N   0  0  0  0  0  0  0  0  0  0  0  0
   -3.0903   -0.4557    1.9776 C   0  0  0  0  0  0  0  0  0  0  0  0
   -3.0123   -1.1173    2.9937 O   0  0  0  0  0  0  0  0  0  0  0  0
   -4.4586   -0.0183    1.4222 C   0  0  1  0  0  0  0  0  0  0  0  0
   -5.0964   -0.9188    1.4705 H   0  0  0  0  0  0  0  0  0  0  0  0
   -5.0261    1.0509    2.3361 C   0  0  0  0  0  0  0  0  0  0  0  0
   -4.7223    2.3946    2.1186 C   0  0  0  0  0  0  0  0  0  0  0  0
   -5.1754    3.4183    2.9677 C   0  0  0  0  0  0  0  0  0  0  0  0
   -5.9427    3.0663    4.1005 C   0  0  0  0  0  0  0  0  0  0  0  0
   -6.2447    1.7071    4.3060 C   0  0  0  0  0  0  0  0  0  0  0  0
   -5.7990    0.7076    3.4493 C   0  0  0  0  0  0  0  0  0  0  0  0
   -6.4949    4.1022    5.0897 C   0  0  0  0  0  0  0  0  0  0  0  0
   -5.7669    5.4493    4.9164 C   0  0  0  0  0  0  0  0  0  0  0  0
   -5.6208    5.8542    3.4588 C   0  0  0  0  0  0  0  0  0  0  0  0
   -4.7616    4.8627    2.6514 C   0  0  0  0  0  0  0  0  0  0  0  0
   -4.9508    5.1832    1.1566 C   0  0  0  0  0  0  0  0  0  0  0  0
   -3.2696    5.0365    3.0106 C   0  0  0  0  0  0  0  0  0  0  0  0
   -6.2948    3.6443    6.5470 C   0  0  0  0  0  0  0  0  0  0  0  0
   -8.0064    4.2791    4.8274 C   0  0  0  0  0  0  0  0  0  0  0  0
   -4.2910    0.4247    0.0877 O   0  0  0  0  0  0  0  0  0  0  0  0
    3.5943   -0.2967    1.9688 C   0  0  0  0  0  0  0  0  0  0  0  0
    4.3718    0.2079    1.1909 O   0  0  0  0  0  0  0  0  0  0  0  0
    4.0071   -0.9682    3.0654 O   0  0  0  0  0  0  0  0  0  0  0  0
   -0.3328    1.1222   -0.4757 F   0  0  0  0  0  0  0  0  0  0  0  0
    2.2381    0.8921   -0.0038 H   0  0  0  0  0  0  0  0  0  0  0  0
    1.6742   -1.3733    3.6248 H   0  0  0  0  0  0  0  0  0  0  0  0
   -0.8067   -1.2493    3.3199 H   0  0  0  0  0  0  0  0  0  0  0  0
   -2.3009    0.5073    0.3899 H   0  0  0  0  0  0  0  0  0  0  0  0
   -4.1053    2.6509    1.2564 H   0  0  0  0  0  0  0  0  0  0  0  0
   -6.8497    1.4206    5.1676 H   0  0  0  0  0  0  0  0  0  0  0  0
   -6.0386   -0.3391    3.6483 H   0  0  0  0  0  0  0  0  0  0  0  0
   -6.3129    6.2240    5.4793 H   0  0  0  0  0  0  0  0  0  0  0  0
   -4.7698    5.3790    5.3820 H   0  0  0  0  0  0  0  0  0  0  0  0
   -5.1743    6.8591    3.3801 H   0  0  0  0  0  0  0  0  0  0  0  0
   -6.6179    5.9254    2.9931 H   0  0  0  0  0  0  0  0  0  0  0  0
   -5.9829    4.9740    0.8345 H   0  0  0  0  0  0  0  0  0  0  0  0
   -4.2682    4.6088    0.5133 H   0  0  0  0  0  0  0  0  0  0  0  0
   -4.7469    6.2506    0.9752 H   0  0  0  0  0  0  0  0  0  0  0  0
   -3.0835    4.8443    4.0773 H   0  0  0  0  0  0  0  0  0  0  0  0
   -2.9334    6.0605    2.7798 H   0  0  0  0  0  0  0  0  0  0  0  0
   -2.6446    4.3347    2.4378 H   0  0  0  0  0  0  0  0  0  0  0  0
   -5.2383    3.4066    6.7454 H   0  0  0  0  0  0  0  0  0  0  0  0
   -6.8957    2.7578    6.7970 H   0  0  0  0  0  0  0  0  0  0  0  0
   -6.5995    4.4493    7.2349 H   0  0  0  0  0  0  0  0  0  0  0  0
   -8.2026    4.6382    3.8063 H   0  0  0  0  0  0  0  0  0  0  0  0
   -8.4392    5.0032    5.5369 H   0  0  0  0  0  0  0  0  0  0  0  0
   -8.5391    3.3235    4.9474 H   0  0  0  0  0  0  0  0  0  0  0  0
   -5.0666    0.9439   -0.1630 H   0  0  0  0  0  0  0  0  0  0  0  0
    4.9781   -0.9363    3.0541 H   0  0  0  0  0  0  0  0  0  0  0  0
  1  2  2  0
  1  6  1  0
  1 30  1  0
  2  3  1  0
  2 31  1  0
  3  4  2  0
  3 27  1  0
  4  5  1  0
  4 32  1  0
  5  6  2  0
  5 33  1  0
  6  7  1  0
  7  8  1  0
  7 34  1  0
  8  9  2  0
  8 10  1  0
 10 11  1  6
 10 12  1  0
 10 26  1  0
 12 13  2  0
 12 17  1  0
 13 14  1  0
 13 35  1  0
 14 15  2  0
 14 21  1  0
 15 16  1  0
 15 18  1  0
 16 17  2  0
 16 36  1  0
 17 37  1  0
 18 19  1  0
 18 24  1  0
 18 25  1  0
 19 20  1  0
 19 38  1  0
 19 39  1  0
 20 21  1  0
 20 40  1  0
 20 41  1  0
 21 22  1  0
 21 23  1  0
 22 42  1  0
 22 43  1  0
 22 44  1  0
 23 45  1  0
 23 46  1  0
 23 47  1  0
 24 48  1  0
 24 49  1  0
 24 50  1  0
 25 51  1  0
 25 52  1  0
 25 53  1  0
 26 54  1  0
 27 28  2  0
 27 29  1  0
 29 55  1  0
M  END

