84

O         -0.08870       -0.28620       -0.31140
C          1.12650       -0.27500       -0.16750
N          1.74790       -0.57110        1.01980
C          0.93970       -0.73520        2.22310
C          1.00100       -2.16040        2.79410
C          2.40820       -2.77090        2.86980
H          2.30930       -3.85870        2.98350
N          3.21620       -2.34480        4.03920
C          4.28460       -3.13770        4.33710
O          4.51850       -4.19260        3.75330
C          5.28610       -2.64280        5.35810
C          6.42760       -1.94300        4.85840
C          6.45520       -1.66650        3.37950
O          5.76720       -0.80140        2.89050
C          7.31040       -2.62730        2.53640
H          7.35270       -3.57080        3.09730
P          9.06580       -2.04430        2.56500
O          9.24890       -0.64760        3.05540
O          9.76930       -3.18510        3.47320
O          9.69160       -2.37780        1.11190
C          6.74100       -2.92970        1.16770
C          6.24370       -4.20450        0.95740
C          5.63900       -4.56920       -0.26630
C          5.53630       -3.64910       -1.28410
C          6.04610       -2.33250       -1.12320
C          6.65790       -1.95330        0.12150
C          7.15890       -0.62290        0.24290
C          7.08540        0.26330       -0.81290
C          6.48480       -0.11590       -2.03720
C          5.96590       -1.38250       -2.17880
C          7.44320       -1.55440        5.70490
C          7.37040       -1.84070        7.09560
C          8.39210       -1.44070        7.99910
C          8.30190       -1.74020        9.34200
C          7.18330       -2.45340        9.84180
C          6.17420       -2.85260        8.99100
C          6.23610       -2.55790        7.60170
C          5.20890       -2.94900        6.69900
C          3.00800       -1.05970        4.68750
C          3.14910       -2.51190        1.54820
C          3.12800       -1.04460        1.12770
C          2.01270        0.16100       -1.30470
C          1.79720       -0.38090       -2.60020
C          2.53490        0.06370       -3.67390
C          3.49380        1.10460       -3.52320
C          3.68180        1.68520       -2.22590
C          2.93560        1.17530       -1.13250
C          4.61920        2.74300       -2.07170
C          5.34920        3.20130       -3.14760
C          5.17490        2.61770       -4.42870
C          4.26770        1.59410       -4.61060
H         -0.09410       -0.48550        1.95600
H          1.28400        0.00100        2.96760
H          0.49520       -2.19640        3.77220
H          0.42260       -2.81450        2.12240
H         10.58500       -2.85100        3.87720
H          9.34350       -1.78810        0.42150
H          6.27700       -4.92790        1.77340
H          5.24620       -5.58060       -0.38970
H          5.06600       -3.91570       -2.23380
H          7.57640       -0.27630        1.18880
H          7.47190        1.27800       -0.69440
H          6.41880        0.60030       -2.85620
H          5.48080       -1.67780       -3.11210
H          8.30180       -1.01080        5.30440
H          9.25130       -0.88990        7.60830
H          9.09350       -1.42820       10.02720
H          7.12370       -2.68560       10.90770
H          5.31060       -3.40190        9.37450
H          4.34710       -3.50030        7.08410
H          1.95040       -0.92650        4.95320
H          3.33020       -0.22120        4.05140
H          3.59210       -1.01760        5.61260
H          4.17880       -2.87030        1.62530
H          2.66440       -3.11160        0.75960
H          3.68810       -0.42890        1.84710
H          3.63260       -0.93460        0.16260
H          1.03560       -1.15310       -2.72370
H          2.38100       -0.36900       -4.66590
H          3.09480        1.60510       -0.14080
H          4.75690        3.18110       -1.08010
H          6.06820        4.01340       -3.01720
H          5.76120        2.98580       -5.27390
H          4.12800        1.14790       -5.59870
