
     RDKit          3D

 84 90  0  0  0  0  0  0  0  0999 V2000
   -0.0887   -0.2862   -0.3114 O   0  0  0  0  0  0  0  0  0  0  0  0
    1.1265   -0.2750   -0.1675 C   0  0  0  0  0  0  0  0  0  0  0  0
    1.7479   -0.5711    1.0198 N   0  0  0  0  0  0  0  0  0  0  0  0
    0.9397   -0.7352    2.2231 C   0  0  0  0  0  0  0  0  0  0  0  0
    1.0010   -2.1604    2.7941 C   0  0  0  0  0  0  0  0  0  0  0  0
    2.4082   -2.7709    2.8698 C   0  0  0  0  0  0  0  0  0  0  0  0
    2.3093   -3.8587    2.9835 H   0  0  0  0  0  0  0  0  0  0  0  0
    3.2162   -2.3448    4.0392 N   0  0  0  0  0  0  0  0  0  0  0  0
    4.2846   -3.1377    4.3371 C   0  0  0  0  0  0  0  0  0  0  0  0
    4.5185   -4.1926    3.7533 O   0  0  0  0  0  0  0  0  0  0  0  0
    5.2861   -2.6428    5.3581 C   0  0  0  0  0  0  0  0  0  0  0  0
    6.4276   -1.9430    4.8584 C   0  0  0  0  0  0  0  0  0  0  0  0
    6.4552   -1.6665    3.3795 C   0  0  0  0  0  0  0  0  0  0  0  0
    5.7672   -0.8014    2.8905 O   0  0  0  0  0  0  0  0  0  0  0  0
    7.3104   -2.6273    2.5364 C   0  0  2  0  0  0  0  0  0  0  0  0
    7.3527   -3.5708    3.0973 H   0  0  0  0  0  0  0  0  0  0  0  0
    9.0658   -2.0443    2.5650 P   0  0  0  0  0  0  0  0  0  0  0  0
    9.2489   -0.6476    3.0554 O   0  0  0  0  0  0  0  0  0  0  0  0
    9.7693   -3.1851    3.4732 O   0  0  0  0  0  0  0  0  0  0  0  0
    9.6916   -2.3778    1.1119 O   0  0  0  0  0  0  0  0  0  0  0  0
    6.7410   -2.9297    1.1677 C   0  0  0  0  0  0  0  0  0  0  0  0
    6.2437   -4.2045    0.9574 C   0  0  0  0  0  0  0  0  0  0  0  0
    5.6390   -4.5692   -0.2663 C   0  0  0  0  0  0  0  0  0  0  0  0
    5.5363   -3.6491   -1.2841 C   0  0  0  0  0  0  0  0  0  0  0  0
    6.0461   -2.3325   -1.1232 C   0  0  0  0  0  0  0  0  0  0  0  0
    6.6579   -1.9533    0.1215 C   0  0  0  0  0  0  0  0  0  0  0  0
    7.1589   -0.6229    0.2429 C   0  0  0  0  0  0  0  0  0  0  0  0
    7.0854    0.2633   -0.8129 C   0  0  0  0  0  0  0  0  0  0  0  0
    6.4848   -0.1159   -2.0372 C   0  0  0  0  0  0  0  0  0  0  0  0
    5.9659   -1.3825   -2.1788 C   0  0  0  0  0  0  0  0  0  0  0  0
    7.4432   -1.5544    5.7049 C   0  0  0  0  0  0  0  0  0  0  0  0
    7.3704   -1.8407    7.0956 C   0  0  0  0  0  0  0  0  0  0  0  0
    8.3921   -1.4407    7.9991 C   0  0  0  0  0  0  0  0  0  0  0  0
    8.3019   -1.7402    9.3420 C   0  0  0  0  0  0  0  0  0  0  0  0
    7.1833   -2.4534    9.8418 C   0  0  0  0  0  0  0  0  0  0  0  0
    6.1742   -2.8526    8.9910 C   0  0  0  0  0  0  0  0  0  0  0  0
    6.2361   -2.5579    7.6017 C   0  0  0  0  0  0  0  0  0  0  0  0
    5.2089   -2.9490    6.6990 C   0  0  0  0  0  0  0  0  0  0  0  0
    3.0080   -1.0597    4.6875 C   0  0  0  0  0  0  0  0  0  0  0  0
    3.1491   -2.5119    1.5482 C   0  0  0  0  0  0  0  0  0  0  0  0
    3.1280   -1.0446    1.1277 C   0  0  0  0  0  0  0  0  0  0  0  0
    2.0127    0.1610   -1.3047 C   0  0  0  0  0  0  0  0  0  0  0  0
    1.7972   -0.3809   -2.6002 C   0  0  0  0  0  0  0  0  0  0  0  0
    2.5349    0.0637   -3.6739 C   0  0  0  0  0  0  0  0  0  0  0  0
    3.4938    1.1046   -3.5232 C   0  0  0  0  0  0  0  0  0  0  0  0
    3.6818    1.6852   -2.2259 C   0  0  0  0  0  0  0  0  0  0  0  0
    2.9356    1.1753   -1.1325 C   0  0  0  0  0  0  0  0  0  0  0  0
    4.6192    2.7430   -2.0717 C   0  0  0  0  0  0  0  0  0  0  0  0
    5.3492    3.2013   -3.1476 C   0  0  0  0  0  0  0  0  0  0  0  0
    5.1749    2.6177   -4.4287 C   0  0  0  0  0  0  0  0  0  0  0  0
    4.2677    1.5941   -4.6106 C   0  0  0  0  0  0  0  0  0  0  0  0
   -0.0941   -0.4855    1.9560 H   0  0  0  0  0  0  0  0  0  0  0  0
    1.2840    0.0010    2.9676 H   0  0  0  0  0  0  0  0  0  0  0  0
    0.4952   -2.1964    3.7722 H   0  0  0  0  0  0  0  0  0  0  0  0
    0.4226   -2.8145    2.1224 H   0  0  0  0  0  0  0  0  0  0  0  0
   10.5850   -2.8510    3.8772 H   0  0  0  0  0  0  0  0  0  0  0  0
    9.3435   -1.7881    0.4215 H   0  0  0  0  0  0  0  0  0  0  0  0
    6.2770   -4.9279    1.7734 H   0  0  0  0  0  0  0  0  0  0  0  0
    5.2462   -5.5806   -0.3897 H   0  0  0  0  0  0  0  0  0  0  0  0
    5.0660   -3.9157   -2.2338 H   0  0  0  0  0  0  0  0  0  0  0  0
    7.5764   -0.2763    1.1888 H   0  0  0  0  0  0  0  0  0  0  0  0
    7.4719    1.2780   -0.6944 H   0  0  0  0  0  0  0  0  0  0  0  0
    6.4188    0.6003   -2.8562 H   0  0  0  0  0  0  0  0  0  0  0  0
    5.4808   -1.6778   -3.1121 H   0  0  0  0  0  0  0  0  0  0  0  0
    8.3018   -1.0108    5.3044 H   0  0  0  0  0  0  0  0  0  0  0  0
    9.2513   -0.8899    7.6083 H   0  0  0  0  0  0  0  0  0  0  0  0
    9.0935   -1.4282   10.0272 H   0  0  0  0  0  0  0  0  0  0  0  0
    7.1237   -2.6856   10.9077 H   0  0  0  0  0  0  0  0  0  0  0  0
    5.3106   -3.4019    9.3745 H   0  0  0  0  0  0  0  0  0  0  0  0
    4.3471   -3.5003    7.0841 H   0  0  0  0  0  0  0  0  0  0  0  0
    1.9504   -0.9265    4.9532 H   0  0  0  0  0  0  0  0  0  0  0  0
    3.3302   -0.2212    4.0514 H   0  0  0  0  0  0  0  0  0  0  0  0
    3.5921   -1.0176    5.6126 H   0  0  0  0  0  0  0  0  0  0  0  0
    4.1788   -2.8703    1.6253 H   0  0  0  0  0  0  0  0  0  0  0  0
    2.6644   -3.1116    0.7596 H   0  0  0  0  0  0  0  0  0  0  0  0
    3.6881   -0.4289    1.8471 H   0  0  0  0  0  0  0  0  0  0  0  0
    3.6326   -0.9346    0.1626 H   0  0  0  0  0  0  0  0  0  0  0  0
    1.0356   -1.1531   -2.7237 H   0  0  0  0  0  0  0  0  0  0  0  0
    2.3810   -0.3690   -4.6659 H   0  0  0  0  0  0  0  0  0  0  0  0
    3.0948    1.6051   -0.1408 H   0  0  0  0  0  0  0  0  0  0  0  0
    4.7569    3.1811   -1.0801 H   0  0  0  0  0  0  0  0  0  0  0  0
    6.0682    4.0134   -3.0172 H   0  0  0  0  0  0  0  0  0  0  0  0
    5.7612    2.9858   -5.2739 H   0  0  0  0  0  0  0  0  0  0  0  0
    4.1280    1.1479   -5.5987 H   0  0  0  0  0  0  0  0  0  0  0  0
  1  2  2  0
  2  3  1  0
  2 42  1  0
  3  4  1  0
  3 41  1  0
  4  5  1  0
  4 52  1  0
  4 53  1  0
  5  6  1  0
  5 54  1  0
  5 55  1  0
  6  7  1  0
  6  8  1  0
  6 40  1  0
  8  9  1  0
  8 39  1  0
  9 10  2  0
  9 11  1  0
 11 12  1  0
 11 38  2  0
 12 13  1  0
 12 31  2  0
 13 14  2  0
 13 15  1  0
 15 16  1  1
 15 17  1  0
 15 21  1  0
 17 18  2  0
 17 19  1  0
 17 20  1  0
 19 56  1  0
 20 57  1  0
 21 22  2  0
 21 26  1  0
 22 23  1  0
 22 58  1  0
 23 24  2  0
 23 59  1  0
 24 25  1  0
 24 60  1  0
 25 26  2  0
 25 30  1  0
 26 27  1  0
 27 28  2  0
 27 61  1  0
 28 29  1  0
 28 62  1  0
 29 30  2  0
 29 63  1  0
 30 64  1  0
 31 32  1  0
 31 65  1  0
 32 33  2  0
 32 37  1  0
 33 34  1  0
 33 66  1  0
 34 35  2  0
 34 67  1  0
 35 36  1  0
 35 68  1  0
 36 37  2  0
 36 69  1  0
 37 38  1  0
 38 70  1  0
 39 71  1  0
 39 72  1  0
 39 73  1  0
 40 41  1  0
 40 74  1  0
 40 75  1  0
 41 76  1  0
 41 77  1  0
 42 43  2  0
 42 47  1  0
 43 44  1  0
 43 78  1  0
 44 45  2  0
 44 79  1  0
 45 46  1  0
 45 51  1  0
 46 47  2  0
 46 48  1  0
 47 80  1  0
 48 49  2  0
 48 81  1  0
 49 50  1  0
 49 82  1  0
 50 51  2  0
 50 83  1  0
 51 84  1  0
M  END

