rmsd11.gzmat
 OpenBabel08211713423D

 84 90  0  0  1  0  0  0  0  0999 V2000
    0.0000    0.0000    0.0000 O   0  0  0  0  0  0  0  0  0  0  0  0
    1.2141    0.0000    0.0000 C   0  0  0  0  0  0  0  0  0  0  0  0
    1.9357    0.0000    1.1882 N   0  0  0  0  0  0  0  0  0  0  0  0
    3.3261    0.4620    1.2103 C   0  0  0  0  0  0  0  0  0  0  0  0
    3.4123    1.9901    1.3444 C   0  0  0  0  0  0  0  0  0  0  0  0
    2.5120    2.5933    2.4431 C   0  0  0  0  0  0  0  0  0  0  0  0
    2.2574    3.6391    2.0948 H   0  0  0  0  0  0  0  0  0  0  0  0
    3.2212    2.7570    3.7305 N   0  0  0  0  0  0  0  0  0  0  0  0
    3.8613    1.7397    4.3896 C   0  0  0  0  0  0  0  0  0  0  0  0
    3.7999    0.5770    4.0372 O   0  0  0  0  0  0  0  0  0  0  0  0
    4.6398    2.0973    5.6200 C   0  0  0  0  0  0  0  0  0  0  0  0
    5.9490    2.6262    5.5133 C   0  0  0  0  0  0  0  0  0  0  0  0
    6.5604    2.8575    4.1690 C   0  0  0  0  0  0  0  0  0  0  0  0
    6.5656    3.9603    3.6879 O   0  0  0  0  0  0  0  0  0  0  0  0
    7.1093    1.6173    3.4577 C   0  0  2  0  0  0  0  0  0  0  0  0
    6.5154    0.7118    3.8604 H   0  0  0  0  0  0  0  0  0  0  0  0
    8.8820    1.3208    3.9453 P   0  0  0  0  0  0  0  0  0  0  0  0
   10.0220    1.9840    3.3262 O   0  0  0  0  0  0  0  0  0  0  0  0
    8.7204    1.5897    5.5186 O   0  0  0  0  0  0  0  0  0  0  0  0
    8.8858   -0.2772    3.8295 O   0  0  0  0  0  0  0  0  0  0  0  0
    6.9750    1.6775    1.9472 C   0  0  0  0  0  0  0  0  0  0  0  0
    7.2130    2.8503    1.2662 C   0  0  0  0  0  0  0  0  0  0  0  0
    7.0398    2.9345   -0.1358 C   0  0  0  0  0  0  0  0  0  0  0  0
    6.6630    1.8319   -0.8524 C   0  0  0  0  0  0  0  0  0  0  0  0
    6.4438    0.5941   -0.1888 C   0  0  0  0  0  0  0  0  0  0  0  0
    6.5838    0.5050    1.2168 C   0  0  0  0  0  0  0  0  0  0  0  0
    6.3221   -0.7526    1.8307 C   0  0  0  0  0  0  0  0  0  0  0  0
    5.9587   -1.8459    1.0860 C   0  0  0  0  0  0  0  0  0  0  0  0
    5.8391   -1.7507   -0.3207 C   0  0  0  0  0  0  0  0  0  0  0  0
    6.0766   -0.5537   -0.9430 C   0  0  0  0  0  0  0  0  0  0  0  0
    6.6582    2.9495    6.6412 C   0  0  0  0  0  0  0  0  0  0  0  0
    6.0965    2.7199    7.9287 C   0  0  0  0  0  0  0  0  0  0  0  0
    6.8148    3.0364    9.1143 C   0  0  0  0  0  0  0  0  0  0  0  0
    6.2598    2.7984   10.3451 C   0  0  0  0  0  0  0  0  0  0  0  0
    4.9622    2.2364   10.4494 C   0  0  0  0  0  0  0  0  0  0  0  0
    4.2485    1.9260    9.3207 C   0  0  0  0  0  0  0  0  0  0  0  0
    4.8029    2.1637    8.0330 C   0  0  0  0  0  0  0  0  0  0  0  0
    4.0794    1.8576    6.8475 C   0  0  0  0  0  0  0  0  0  0  0  0
    3.3692    4.1431    4.1926 C   0  0  0  0  0  0  0  0  0  0  0  0
    1.1642    1.8616    2.6318 C   0  0  0  0  0  0  0  0  0  0  0  0
    1.2338    0.3381    2.4329 C   0  0  0  0  0  0  0  0  0  0  0  0
    2.0212   -0.1185   -1.2511 C   0  0  0  0  0  0  0  0  0  0  0  0
    2.2839    1.0581   -1.9960 C   0  0  0  0  0  0  0  0  0  0  0  0
    3.0808    0.9938   -3.1087 C   0  0  0  0  0  0  0  0  0  0  0  0
    3.6352   -0.2482   -3.5269 C   0  0  0  0  0  0  0  0  0  0  0  0
    3.3301   -1.4231   -2.8054 C   0  0  0  0  0  0  0  0  0  0  0  0
    2.5077   -1.3359   -1.6492 C   0  0  0  0  0  0  0  0  0  0  0  0
    3.8723   -2.6660   -3.2341 C   0  0  0  0  0  0  0  0  0  0  0  0
    4.6980   -2.7210   -4.3268 C   0  0  0  0  0  0  0  0  0  0  0  0
    5.0179   -1.5392   -5.0421 C   0  0  0  0  0  0  0  0  0  0  0  0
    4.4970   -0.3319   -4.6548 C   0  0  0  0  0  0  0  0  0  0  0  0
    3.8667    0.1249    0.2968 H   0  0  0  0  0  0  0  0  0  0  0  0
    3.8417   -0.0435    2.0660 H   0  0  0  0  0  0  0  0  0  0  0  0
    4.4696    2.2783    1.5204 H   0  0  0  0  0  0  0  0  0  0  0  0
    3.1391    2.4514    0.3752 H   0  0  0  0  0  0  0  0  0  0  0  0
    9.6088    1.4652    5.9930 H   0  0  0  0  0  0  0  0  0  0  0  0
    9.8300   -0.6106    3.6468 H   0  0  0  0  0  0  0  0  0  0  0  0
    7.5506    3.7539    1.7844 H   0  0  0  0  0  0  0  0  0  0  0  0
    7.2210    3.8883   -0.6271 H   0  0  0  0  0  0  0  0  0  0  0  0
    6.5306    1.8793   -1.9310 H   0  0  0  0  0  0  0  0  0  0  0  0
    6.4026   -0.8567    2.9152 H   0  0  0  0  0  0  0  0  0  0  0  0
    5.7522   -2.7996    1.5681 H   0  0  0  0  0  0  0  0  0  0  0  0
    5.5522   -2.6303   -0.8933 H   0  0  0  0  0  0  0  0  0  0  0  0
    5.9804   -0.4615   -2.0248 H   0  0  0  0  0  0  0  0  0  0  0  0
    7.6594    3.3845    6.5768 H   0  0  0  0  0  0  0  0  0  0  0  0
    7.8109    3.4676    9.0243 H   0  0  0  0  0  0  0  0  0  0  0  0
    6.8035    3.0348   11.2586 H   0  0  0  0  0  0  0  0  0  0  0  0
    4.5463    2.0572   11.4398 H   0  0  0  0  0  0  0  0  0  0  0  0
    3.2517    1.4930    9.3909 H   0  0  0  0  0  0  0  0  0  0  0  0
    3.0804    1.4284    6.9339 H   0  0  0  0  0  0  0  0  0  0  0  0
    3.4569    4.1982    5.2918 H   0  0  0  0  0  0  0  0  0  0  0  0
    2.4887    4.7457    3.9156 H   0  0  0  0  0  0  0  0  0  0  0  0
    4.2715    4.6129    3.7527 H   0  0  0  0  0  0  0  0  0  0  0  0
    0.7568    2.0806    3.6359 H   0  0  0  0  0  0  0  0  0  0  0  0
    0.4336    2.2775    1.9080 H   0  0  0  0  0  0  0  0  0  0  0  0
    1.7827   -0.1445    3.2776 H   0  0  0  0  0  0  0  0  0  0  0  0
    0.2082   -0.0961    2.4111 H   0  0  0  0  0  0  0  0  0  0  0  0
    1.8428    2.0002   -1.6718 H   0  0  0  0  0  0  0  0  0  0  0  0
    3.3017    1.8878   -3.6889 H   0  0  0  0  0  0  0  0  0  0  0  0
    2.2878   -2.2413   -1.0823 H   0  0  0  0  0  0  0  0  0  0  0  0
    3.6170   -3.5678   -2.6796 H   0  0  0  0  0  0  0  0  0  0  0  0
    5.1189   -3.6664   -4.6625 H   0  0  0  0  0  0  0  0  0  0  0  0
    5.6802   -1.6107   -5.9027 H   0  0  0  0  0  0  0  0  0  0  0  0
    4.7318    0.5787   -5.2021 H   0  0  0  0  0  0  0  0  0  0  0  0
  2  1  2  0  0  0  0
  2  3  1  0  0  0  0
  3  4  1  0  0  0  0
  3 41  1  0  0  0  0
  4  5  1  0  0  0  0
  4 53  1  0  0  0  0
  5 54  1  0  0  0  0
  5  6  1  0  0  0  0
  6 40  1  0  0  0  0
  6  8  1  0  0  0  0
  7  6  1  0  0  0  0
  8 39  1  0  0  0  0
  8  9  1  0  0  0  0
  9 11  1  0  0  0  0
 10  9  2  0  0  0  0
 11 38  1  0  0  0  0
 12 11  2  0  0  0  0
 12 31  1  0  0  0  0
 13 12  1  0  0  0  0
 14 13  2  0  0  0  0
 15 16  1  1  0  0  0
 15 17  1  0  0  0  0
 15 13  1  0  0  0  0
 17 19  1  0  0  0  0
 18 17  2  0  0  0  0
 19 56  1  0  0  0  0
 20 17  1  0  0  0  0
 21 15  1  0  0  0  0
 22 58  1  0  0  0  0
 22 21  1  0  0  0  0
 23 22  2  0  0  0  0
 24 25  2  0  0  0  0
 24 23  1  0  0  0  0
 25 26  1  0  0  0  0
 26 27  1  0  0  0  0
 26 21  2  0  0  0  0
 27 61  1  0  0  0  0
 28 62  1  0  0  0  0
 28 27  2  0  0  0  0
 29 28  1  0  0  0  0
 30 29  2  0  0  0  0
 30 25  1  0  0  0  0
 31 32  2  0  0  0  0
 32 37  1  0  0  0  0
 32 33  1  0  0  0  0
 33 34  2  0  0  0  0
 34 35  1  0  0  0  0
 34 67  1  0  0  0  0
 35 68  1  0  0  0  0
 36 69  1  0  0  0  0
 36 35  2  0  0  0  0
 37 36  1  0  0  0  0
 38 70  1  0  0  0  0
 38 37  2  0  0  0  0
 39 71  1  0  0  0  0
 40 74  1  0  0  0  0
 41 40  1  0  0  0  0
 41 76  1  0  0  0  0
 42  2  1  0  0  0  0
 43 78  1  0  0  0  0
 43 42  2  0  0  0  0
 44 43  1  0  0  0  0
 45 44  2  0  0  0  0
 45 46  1  0  0  0  0
 46 47  2  0  0  0  0
 47 42  1  0  0  0  0
 47 80  1  0  0  0  0
 48 46  1  0  0  0  0
 48 81  1  0  0  0  0
 49 48  2  0  0  0  0
 50 51  2  0  0  0  0
 50 49  1  0  0  0  0
 51 45  1  0  0  0  0
 52  4  1  0  0  0  0
 55  5  1  0  0  0  0
 57 20  1  0  0  0  0
 59 23  1  0  0  0  0
 60 24  1  0  0  0  0
 63 29  1  0  0  0  0
 64 30  1  0  0  0  0
 65 31  1  0  0  0  0
 66 33  1  0  0  0  0
 72 39  1  0  0  0  0
 73 39  1  0  0  0  0
 75 40  1  0  0  0  0
 77 41  1  0  0  0  0
 79 44  1  0  0  0  0
 82 49  1  0  0  0  0
 83 50  1  0  0  0  0
 84 51  1  0  0  0  0
M  END
$$$$
