
     RDKit          3D

 84 90  0  0  0  0  0  0  0  0999 V2000
   -0.1068    0.5042   -0.2594 O   0  0  0  0  0  0  0  0  0  0  0  0
    1.0967    0.2887   -0.2817 C   0  0  0  0  0  0  0  0  0  0  0  0
    1.9090    0.5465    0.8026 N   0  0  0  0  0  0  0  0  0  0  0  0
    3.3382    0.8281    0.7207 C   0  0  0  0  0  0  0  0  0  0  0  0
    3.6230    2.3279    0.9136 C   0  0  0  0  0  0  0  0  0  0  0  0
    2.9204    2.9772    2.1125 C   0  0  0  0  0  0  0  0  0  0  0  0
    2.9543    4.0671    1.9846 H   0  0  0  0  0  0  0  0  0  0  0  0
    3.5696    2.7243    3.4232 N   0  0  0  0  0  0  0  0  0  0  0  0
    3.2588    3.6327    4.4049 C   0  0  0  0  0  0  0  0  0  0  0  0
    2.6444    4.6663    4.1730 O   0  0  0  0  0  0  0  0  0  0  0  0
    3.6598    3.3382    5.8265 C   0  0  0  0  0  0  0  0  0  0  0  0
    4.2922    4.3678    6.5891 C   0  0  0  0  0  0  0  0  0  0  0  0
    4.8450    5.6175    5.9599 C   0  0  0  0  0  0  0  0  0  0  0  0
    4.6660    6.7080    6.4417 O   0  0  0  0  0  0  0  0  0  0  0  0
    5.8131    5.3657    4.7914 C   0  0  2  0  0  0  0  0  0  0  0  0
    5.3857    4.6052    4.1330 H   0  0  0  0  0  0  0  0  0  0  0  0
    7.3125    4.5344    5.4840 P   0  0  0  0  0  0  0  0  0  0  0  0
    7.8614    5.1915    6.6975 O   0  0  0  0  0  0  0  0  0  0  0  0
    6.9137    2.9675    5.6767 O   0  0  0  0  0  0  0  0  0  0  0  0
    8.2657    4.3507    4.1895 O   0  0  0  0  0  0  0  0  0  0  0  0
    6.2342    6.5864    4.0108 C   0  0  0  0  0  0  0  0  0  0  0  0
    6.8184    7.6515    4.6784 C   0  0  0  0  0  0  0  0  0  0  0  0
    7.2397    8.8084    3.9831 C   0  0  0  0  0  0  0  0  0  0  0  0
    7.0829    8.8941    2.6183 C   0  0  0  0  0  0  0  0  0  0  0  0
    6.5042    7.8214    1.8876 C   0  0  0  0  0  0  0  0  0  0  0  0
    6.0713    6.6410    2.5852 C   0  0  0  0  0  0  0  0  0  0  0  0
    5.5052    5.5849    1.8156 C   0  0  0  0  0  0  0  0  0  0  0  0
    5.3687    5.6859    0.4475 C   0  0  0  0  0  0  0  0  0  0  0  0
    5.7916    6.8523   -0.2340 C   0  0  0  0  0  0  0  0  0  0  0  0
    6.3471    7.8937    0.4755 C   0  0  0  0  0  0  0  0  0  0  0  0
    4.5053    4.1945    7.9418 C   0  0  0  0  0  0  0  0  0  0  0  0
    4.1229    2.9957    8.6017 C   0  0  0  0  0  0  0  0  0  0  0  0
    4.3575    2.7859    9.9877 C   0  0  0  0  0  0  0  0  0  0  0  0
    3.9676    1.6112   10.5957 C   0  0  0  0  0  0  0  0  0  0  0  0
    3.3260    0.5945    9.8444 C   0  0  0  0  0  0  0  0  0  0  0  0
    3.0856    0.7679    8.4974 C   0  0  0  0  0  0  0  0  0  0  0  0
    3.4787    1.9651    7.8405 C   0  0  0  0  0  0  0  0  0  0  0  0
    3.2567    2.1774    6.4528 C   0  0  0  0  0  0  0  0  0  0  0  0
    4.5165    1.6381    3.6339 C   0  0  0  0  0  0  0  0  0  0  0  0
    1.4398    2.5597    2.1398 C   0  0  0  0  0  0  0  0  0  0  0  0
    1.2748    1.0467    2.0215 C   0  0  0  0  0  0  0  0  0  0  0  0
    1.7218   -0.3245   -1.5040 C   0  0  0  0  0  0  0  0  0  0  0  0
    1.2677    0.1264   -2.7743 C   0  0  0  0  0  0  0  0  0  0  0  0
    1.7421   -0.4482   -3.9304 C   0  0  0  0  0  0  0  0  0  0  0  0
    2.6712   -1.5253   -3.8862 C   0  0  0  0  0  0  0  0  0  0  0  0
    3.1050   -2.0088   -2.6072 C   0  0  0  0  0  0  0  0  0  0  0  0
    2.6116   -1.3807   -1.4328 C   0  0  0  0  0  0  0  0  0  0  0  0
    4.0183   -3.0979   -2.5559 C   0  0  0  0  0  0  0  0  0  0  0  0
    4.4886   -3.6789   -3.7141 C   0  0  0  0  0  0  0  0  0  0  0  0
    4.0635   -3.1978   -4.9783 C   0  0  0  0  0  0  0  0  0  0  0  0
    3.1752   -2.1463   -5.0611 C   0  0  0  0  0  0  0  0  0  0  0  0
    3.7186    0.5168   -0.2575 H   0  0  0  0  0  0  0  0  0  0  0  0
    3.8636    0.2227    1.4766 H   0  0  0  0  0  0  0  0  0  0  0  0
    4.7094    2.5067    0.9384 H   0  0  0  0  0  0  0  0  0  0  0  0
    3.2456    2.8523    0.0208 H   0  0  0  0  0  0  0  0  0  0  0  0
    6.7249    2.7941    6.6121 H   0  0  0  0  0  0  0  0  0  0  0  0
    8.5110    5.2119    3.8162 H   0  0  0  0  0  0  0  0  0  0  0  0
    6.9555    7.5899    5.7572 H   0  0  0  0  0  0  0  0  0  0  0  0
    7.6892    9.6328    4.5409 H   0  0  0  0  0  0  0  0  0  0  0  0
    7.4045    9.7859    2.0746 H   0  0  0  0  0  0  0  0  0  0  0  0
    5.1681    4.6757    2.3093 H   0  0  0  0  0  0  0  0  0  0  0  0
    4.9276    4.8601   -0.1148 H   0  0  0  0  0  0  0  0  0  0  0  0
    5.6760    6.9221   -1.3179 H   0  0  0  0  0  0  0  0  0  0  0  0
    6.6783    8.7997   -0.0383 H   0  0  0  0  0  0  0  0  0  0  0  0
    5.0065    4.9855    8.5037 H   0  0  0  0  0  0  0  0  0  0  0  0
    4.8499    3.5739   10.5626 H   0  0  0  0  0  0  0  0  0  0  0  0
    4.1506    1.4600   11.6619 H   0  0  0  0  0  0  0  0  0  0  0  0
    3.0211   -0.3304   10.3392 H   0  0  0  0  0  0  0  0  0  0  0  0
    2.5898   -0.0143    7.9171 H   0  0  0  0  0  0  0  0  0  0  0  0
    2.7384    1.4030    5.8823 H   0  0  0  0  0  0  0  0  0  0  0  0
    5.2070    1.5661    2.7834 H   0  0  0  0  0  0  0  0  0  0  0  0
    4.0245    0.6592    3.7624 H   0  0  0  0  0  0  0  0  0  0  0  0
    5.1301    1.8446    4.5163 H   0  0  0  0  0  0  0  0  0  0  0  0
    0.9670    2.9439    3.0549 H   0  0  0  0  0  0  0  0  0  0  0  0
    0.9215    3.0334    1.2902 H   0  0  0  0  0  0  0  0  0  0  0  0
    1.7388    0.5394    2.8861 H   0  0  0  0  0  0  0  0  0  0  0  0
    0.2151    0.7709    1.9841 H   0  0  0  0  0  0  0  0  0  0  0  0
    0.5305    0.9303   -2.8059 H   0  0  0  0  0  0  0  0  0  0  0  0
    1.4000   -0.0895   -4.9045 H   0  0  0  0  0  0  0  0  0  0  0  0
    2.9352   -1.7609   -0.4608 H   0  0  0  0  0  0  0  0  0  0  0  0
    4.3431   -3.4664   -1.5793 H   0  0  0  0  0  0  0  0  0  0  0  0
    5.1912   -4.5138   -3.6623 H   0  0  0  0  0  0  0  0  0  0  0  0
    4.4426   -3.6670   -5.8893 H   0  0  0  0  0  0  0  0  0  0  0  0
    2.8435   -1.7764   -6.0347 H   0  0  0  0  0  0  0  0  0  0  0  0
  1  2  2  0
  2  3  1  0
  2 42  1  0
  3  4  1  0
  3 41  1  0
  4  5  1  0
  4 52  1  0
  4 53  1  0
  5  6  1  0
  5 54  1  0
  5 55  1  0
  6  7  1  0
  6  8  1  0
  6 40  1  0
  8  9  1  0
  8 39  1  0
  9 10  2  0
  9 11  1  0
 11 12  1  0
 11 38  2  0
 12 13  1  0
 12 31  2  0
 13 14  2  0
 13 15  1  0
 15 16  1  6
 15 17  1  0
 15 21  1  0
 17 18  2  0
 17 19  1  0
 17 20  1  0
 19 56  1  0
 20 57  1  0
 21 22  2  0
 21 26  1  0
 22 23  1  0
 22 58  1  0
 23 24  2  0
 23 59  1  0
 24 25  1  0
 24 60  1  0
 25 26  2  0
 25 30  1  0
 26 27  1  0
 27 28  2  0
 27 61  1  0
 28 29  1  0
 28 62  1  0
 29 30  2  0
 29 63  1  0
 30 64  1  0
 31 32  1  0
 31 65  1  0
 32 33  2  0
 32 37  1  0
 33 34  1  0
 33 66  1  0
 34 35  2  0
 34 67  1  0
 35 36  1  0
 35 68  1  0
 36 37  2  0
 36 69  1  0
 37 38  1  0
 38 70  1  0
 39 71  1  0
 39 72  1  0
 39 73  1  0
 40 41  1  0
 40 74  1  0
 40 75  1  0
 41 76  1  0
 41 77  1  0
 42 43  2  0
 42 47  1  0
 43 44  1  0
 43 78  1  0
 44 45  2  0
 44 79  1  0
 45 46  1  0
 45 51  1  0
 46 47  2  0
 46 48  1  0
 47 80  1  0
 48 49  2  0
 48 81  1  0
 49 50  1  0
 49 82  1  0
 50 51  2  0
 50 83  1  0
 51 84  1  0
M  END

