84
rmsd17.gzmat
O          0.00000        0.00000        0.00000
C          1.21230        0.00000        0.00000
N          1.92410        0.00000        1.20550
C          3.32840        0.43270        1.20290
C          3.42810        1.96040        1.16680
C          2.59350        2.67950        2.24580
H          2.35550        3.71030        1.84170
N          3.36590        2.87700        3.48810
C          4.00780        4.07040        3.76140
O          4.94530        4.09960        4.54050
C          3.47010        5.34530        3.19570
C          3.89870        5.83880        1.93960
C          4.77450        5.01370        1.05570
O          4.30250        4.47560        0.08880
C          6.22160        4.84590        1.51650
H          6.23490        5.09120        2.65750
P          7.35380        6.13960        0.83570
O          8.64340        6.41680        1.45800
O          7.42400        5.76240       -0.71540
O          6.31410        7.36450        0.87120
C          6.69360        3.40940        1.35770
C          7.11260        2.80810        2.52730
C          7.45760        1.43960        2.57400
C          7.36430        0.67420        1.44340
C          6.95040        1.26050        0.21660
C          6.63700        2.64230        0.14860
C          6.26290        3.16530       -1.12220
C          6.18110        2.36080       -2.23040
C          6.46400        0.97820       -2.14160
C          6.84530        0.44110       -0.94150
C          3.48520        7.06710        1.49340
C          2.61130        7.85810        2.28950
C          2.17190        9.13900        1.85640
C          1.32740        9.88280        2.63950
C          0.88330        9.38270        3.88980
C          1.29070        8.14910        4.32770
C          2.16760        7.35940        3.53390
C          2.61780        6.08450        3.97540
C          3.93200        1.69280        4.14580
C          1.23240        2.00580        2.52620
C          1.21150        0.47090        2.40280
C          2.01890       -0.09450       -1.25140
C          2.58880       -1.34000       -1.61430
C          3.34720       -1.43490       -2.75160
C          3.56610       -0.29110       -3.56940
C          2.98490        0.94380       -3.20650
C          2.19400        1.02150       -2.02810
C          3.21170        2.08900       -4.01930
C          3.98410        1.99400       -5.14770
C          4.56300        0.75310       -5.51660
C          4.36240       -0.36290       -4.74590
H          3.86990       -0.01080        0.33560
H          3.82420        0.01460        2.10660
H          4.49390        2.25550        1.24790
H          3.11380        2.33020        0.16690
H          8.24900        6.18990       -1.13620
H          6.80840        8.24900        0.82780
H          7.16980        3.37550        3.46270
H          7.78990        1.01340        3.51850
H          7.60900       -0.38550        1.46150
H          6.01640        4.22410       -1.23770
H          5.88390        2.77440       -3.19280
H          6.36640        0.35990       -3.03260
H          7.07470       -0.61850       -0.85480
H          3.82180        7.45550        0.52830
H          2.51960        9.51490        0.89520
H          0.98560       10.86520        2.31670
H          0.21520        9.99660        4.49250
H          0.95360        7.75600        5.28600
H          2.28570        5.71620        4.94700
H          4.86530        1.35850        3.65650
H          3.20060        0.87020        4.14710
H          4.17910        1.92980        5.19930
H          0.87380        2.29810        3.53170
H          0.49090        2.42220        1.81150
H          1.67510       -0.00950        3.29180
H          0.15510        0.10990        2.36480
H          2.41230       -2.20710       -0.97730
H          3.79510       -2.38220       -3.04640
H          1.73920        1.97590       -1.75950
H          2.76540        3.03770       -3.72230
H          4.16470        2.86340       -5.77650
H          5.16830        0.70530       -6.42000
H          4.80400       -1.31860       -5.02180
