84
rmsd121.gzmat
O          0.00000        0.00000        0.00000
C          1.21480        0.00000        0.00000
N          1.92580        0.00000        1.19880
C          1.16730       -0.25620        2.43170
C          1.15030       -1.74710        2.82170
C          2.52480       -2.43840        2.76860
H          2.34140       -3.55580        2.71590
N          3.33200       -2.24260        3.99470
C          4.39630       -3.10090        4.18160
O          4.52930       -4.09800        3.49390
C          5.36050       -2.79370        5.28290
C          6.50920       -2.01580        4.98870
C          6.70380       -1.53020        3.58830
O          6.22900       -0.48750        3.22610
C          7.43670       -2.51180        2.66970
H          7.31840       -3.55900        3.16430
P          9.27050       -2.24960        2.68550
O          9.95880       -1.90160        3.92870
O          9.71500       -3.65020        2.05080
O          9.44820       -1.18900        1.50470
C          6.80590       -2.59770        1.28930
C          6.31040       -3.84330        0.95830
C          5.68330       -4.08540       -0.28410
C          5.57190       -3.07490       -1.19980
C          6.07200       -1.77990       -0.89470
C          6.67310       -1.51510        0.36150
C          7.09990       -0.18010        0.61390
C          6.96580        0.80570       -0.33180
C          6.39890        0.51920       -1.59450
C          5.95910       -0.74830       -1.86650
C          7.41570       -1.71760        5.97030
C          7.21850       -2.20910        7.29180
C          8.14800       -1.92200        8.32830
C          7.94540       -2.40720        9.59460
C          6.80690       -3.20120        9.88300
C          5.89670       -3.49280        8.89960
C          6.08440       -3.00010        7.57960
C          5.15140       -3.28470        6.54370
C          3.31970       -0.94940        4.67990
C          3.29380       -2.03670        1.49340
C          3.29780       -0.52340        1.25040
C          2.00030        0.13280       -1.25940
C          2.01200       -0.96140       -2.15910
C          2.69280       -0.85920       -3.34410
C          3.38090        0.34060       -3.67940
C          3.35300        1.43090       -2.78220
C          2.64810        1.30430       -1.55460
C          4.03880        2.63100       -3.11830
C          4.72900        2.72580       -4.29870
C          4.76590        1.62850       -5.19610
C          4.10700        0.46430       -4.89670
H          0.11820        0.10650        2.30380
H          1.61740        0.36700        3.23500
H          0.69750       -1.86810        3.82260
H          0.47330       -2.28340        2.12230
H         10.70830       -3.80030        2.22190
H         10.40880       -0.84420        1.49170
H          6.37470       -4.67860        1.66150
H          5.29800       -5.08130       -0.49220
H          5.10280       -3.24080       -2.16700
H          7.53060        0.08780        1.58070
H          7.29340        1.82110       -0.12200
H          6.30840        1.31350       -2.33380
H          5.51210       -0.98490       -2.83110
H          8.30540       -1.11320        5.76450
H          9.02250       -1.31530        8.09430
H          8.65210       -2.19270       10.39470
H          6.67070       -3.57420       10.89710
H          5.02130       -4.10420        9.11310
H          4.27650       -3.89400        6.77220
H          2.28360       -0.61690        4.85910
H          3.85700       -0.17360        4.09900
H          3.79780       -1.01770        5.67340
H          4.33670       -2.41220        1.54550
H          2.84740       -2.55730        0.62460
H          3.84970        0.00700        2.06180
H          3.84590       -0.28340        0.30990
H          1.46870       -1.86880       -1.89480
H          2.71470       -1.68930       -4.04750
H          2.63630        2.14420       -0.85890
H          4.00420        3.46630       -2.42030
H          5.25600        3.63960       -4.56550
H          5.32590        1.72990       -6.12390
H          4.12850       -0.38080       -5.58200
