rmsd134.gzmat
 OpenBabel08211713423D

 84 90  0  0  1  0  0  0  0  0999 V2000
    0.0000    0.0000    0.0000 O   0  0  0  0  0  0  0  0  0  0  0  0
    1.2136    0.0000    0.0000 C   0  0  0  0  0  0  0  0  0  0  0  0
    1.9204    0.0000    1.2033 N   0  0  0  0  0  0  0  0  0  0  0  0
    1.1756   -0.3632    2.4197 C   0  0  0  0  0  0  0  0  0  0  0  0
    1.2034   -1.8752    2.6792 C   0  0  0  0  0  0  0  0  0  0  0  0
    2.5961   -2.5292    2.5785 C   0  0  0  0  0  0  0  0  0  0  0  0
    2.4183   -3.6206    2.3351 H   0  0  0  0  0  0  0  0  0  0  0  0
    3.3370   -2.4818    3.8501 N   0  0  0  0  0  0  0  0  0  0  0  0
    3.6951   -3.6058    4.5562 C   0  0  0  0  0  0  0  0  0  0  0  0
    4.1658   -3.5032    5.6778 O   0  0  0  0  0  0  0  0  0  0  0  0
    3.5614   -4.9606    3.9389 C   0  0  0  0  0  0  0  0  0  0  0  0
    2.3169   -5.6372    3.9231 C   0  0  0  0  0  0  0  0  0  0  0  0
    1.0687   -4.9386    4.3461 C   0  0  0  0  0  0  0  0  0  0  0  0
    0.2653   -4.5877    3.5219 O   0  0  0  0  0  0  0  0  0  0  0  0
    0.9267   -4.6323    5.8408 C   0  0  2  0  0  0  0  0  0  0  0  0
    1.9904   -4.6002    6.2955 H   0  0  0  0  0  0  0  0  0  0  0  0
    0.1052   -6.0297    6.7353 P   0  0  0  0  0  0  0  0  0  0  0  0
    0.0719   -6.0980    8.1913 O   0  0  0  0  0  0  0  0  0  0  0  0
   -1.3231   -6.0541    6.0160 O   0  0  0  0  0  0  0  0  0  0  0  0
    0.8936   -7.2358    6.0238 O   0  0  0  0  0  0  0  0  0  0  0  0
    0.2485   -3.2884    6.0207 C   0  0  0  0  0  0  0  0  0  0  0  0
   -0.9446   -3.0185    5.3868 C   0  0  0  0  0  0  0  0  0  0  0  0
   -1.5117   -1.7226    5.4168 C   0  0  0  0  0  0  0  0  0  0  0  0
   -0.8763   -0.7078    6.0795 C   0  0  0  0  0  0  0  0  0  0  0  0
    0.3416   -0.9584    6.7687 C   0  0  0  0  0  0  0  0  0  0  0  0
    0.9037   -2.2568    6.7681 C   0  0  0  0  0  0  0  0  0  0  0  0
    2.1042   -2.4627    7.5049 C   0  0  0  0  0  0  0  0  0  0  0  0
    2.7142   -1.4320    8.1728 C   0  0  0  0  0  0  0  0  0  0  0  0
    2.1592   -0.1303    8.1453 C   0  0  0  0  0  0  0  0  0  0  0  0
    0.9959    0.0993    7.4590 C   0  0  0  0  0  0  0  0  0  0  0  0
    2.2326   -6.9325    3.4835 C   0  0  0  0  0  0  0  0  0  0  0  0
    3.3985   -7.6067    3.0248 C   0  0  0  0  0  0  0  0  0  0  0  0
    3.3422   -8.9531    2.5717 C   0  0  0  0  0  0  0  0  0  0  0  0
    4.4765   -9.5820    2.1270 C   0  0  0  0  0  0  0  0  0  0  0  0
    5.7175   -8.8963    2.1151 C   0  0  0  0  0  0  0  0  0  0  0  0
    5.7969   -7.5978    2.5484 C   0  0  0  0  0  0  0  0  0  0  0  0
    4.6351   -6.9248    3.0159 C   0  0  0  0  0  0  0  0  0  0  0  0
    4.6963   -5.5852    3.4899 C   0  0  0  0  0  0  0  0  0  0  0  0
    3.4751   -1.1995    4.5476 C   0  0  0  0  0  0  0  0  0  0  0  0
    3.4429   -1.9584    1.4190 C   0  0  0  0  0  0  0  0  0  0  0  0
    3.3209   -0.4361    1.2498 C   0  0  0  0  0  0  0  0  0  0  0  0
    2.0007    0.1080   -1.2618 C   0  0  0  0  0  0  0  0  0  0  0  0
    1.9837   -1.0034   -2.1414 C   0  0  0  0  0  0  0  0  0  0  0  0
    2.6823   -0.9493   -3.3189 C   0  0  0  0  0  0  0  0  0  0  0  0
    3.4199    0.2168   -3.6669 C   0  0  0  0  0  0  0  0  0  0  0  0
    3.4153    1.3276   -2.7944 C   0  0  0  0  0  0  0  0  0  0  0  0
    2.6837    1.2536   -1.5776 C   0  0  0  0  0  0  0  0  0  0  0  0
    4.1469    2.4949   -3.1480 C   0  0  0  0  0  0  0  0  0  0  0  0
    4.8531    2.5406   -4.3219 C   0  0  0  0  0  0  0  0  0  0  0  0
    4.8608    1.4247   -5.1970 C   0  0  0  0  0  0  0  0  0  0  0  0
    4.1606    0.2901   -4.8791 C   0  0  0  0  0  0  0  0  0  0  0  0
    0.1177   -0.0156    2.3232 H   0  0  0  0  0  0  0  0  0  0  0  0
    1.6114    0.2020    3.2719 H   0  0  0  0  0  0  0  0  0  0  0  0
    0.7544   -2.0858    3.6731 H   0  0  0  0  0  0  0  0  0  0  0  0
    0.5277   -2.3804    1.9550 H   0  0  0  0  0  0  0  0  0  0  0  0
   -1.9756   -6.6065    6.5705 H   0  0  0  0  0  0  0  0  0  0  0  0
    0.8577   -8.0704    6.5992 H   0  0  0  0  0  0  0  0  0  0  0  0
   -1.4778   -3.7938    4.8239 H   0  0  0  0  0  0  0  0  0  0  0  0
   -2.4522   -1.5510    4.8954 H   0  0  0  0  0  0  0  0  0  0  0  0
   -1.2908    0.2980    6.0963 H   0  0  0  0  0  0  0  0  0  0  0  0
    2.5612   -3.4564    7.5379 H   0  0  0  0  0  0  0  0  0  0  0  0
    3.6350   -1.6034    8.7279 H   0  0  0  0  0  0  0  0  0  0  0  0
    2.6657    0.6721    8.6765 H   0  0  0  0  0  0  0  0  0  0  0  0
    0.5507    1.0918    7.4351 H   0  0  0  0  0  0  0  0  0  0  0  0
    1.2773   -7.4642    3.4832 H   0  0  0  0  0  0  0  0  0  0  0  0
    2.3845   -9.4717    2.5864 H   0  0  0  0  0  0  0  0  0  0  0  0
    4.4435  -10.6131    1.7783 H   0  0  0  0  0  0  0  0  0  0  0  0
    6.6026   -9.4206    1.7579 H   0  0  0  0  0  0  0  0  0  0  0  0
    6.7473   -7.0656    2.5453 H   0  0  0  0  0  0  0  0  0  0  0  0
    5.6605   -5.0755    3.5067 H   0  0  0  0  0  0  0  0  0  0  0  0
    2.5581   -0.9517    5.1150 H   0  0  0  0  0  0  0  0  0  0  0  0
    3.6944   -0.3882    3.8376 H   0  0  0  0  0  0  0  0  0  0  0  0
    4.3082   -1.2433    5.2773 H   0  0  0  0  0  0  0  0  0  0  0  0
    4.5058   -2.2310    1.5632 H   0  0  0  0  0  0  0  0  0  0  0  0
    3.1279   -2.4555    0.4798 H   0  0  0  0  0  0  0  0  0  0  0  0
    3.8164    0.0945    2.0973 H   0  0  0  0  0  0  0  0  0  0  0  0
    3.8595   -0.1094    0.3323 H   0  0  0  0  0  0  0  0  0  0  0  0
    1.3999   -1.8840   -1.8705 H   0  0  0  0  0  0  0  0  0  0  0  0
    2.6806   -1.7921   -4.0087 H   0  0  0  0  0  0  0  0  0  0  0  0
    2.6767    2.1148   -0.9085 H   0  0  0  0  0  0  0  0  0  0  0  0
    4.1325    3.3473   -2.4702 H   0  0  0  0  0  0  0  0  0  0  0  0
    5.4156    3.4297   -4.6013 H   0  0  0  0  0  0  0  0  0  0  0  0
    5.4300    1.4885   -6.1231 H   0  0  0  0  0  0  0  0  0  0  0  0
    4.1580   -0.5697   -5.5467 H   0  0  0  0  0  0  0  0  0  0  0  0
  2  1  2  0  0  0  0
  2  3  1  0  0  0  0
  3 41  1  0  0  0  0
  3  4  1  0  0  0  0
  4  5  1  0  0  0  0
  4 53  1  0  0  0  0
  5 54  1  0  0  0  0
  6  5  1  0  0  0  0
  6  8  1  0  0  0  0
  7  6  1  0  0  0  0
  8 39  1  0  0  0  0
  8  9  1  0  0  0  0
  9 10  2  0  0  0  0
 11  9  1  0  0  0  0
 12 11  1  0  0  0  0
 12 13  1  0  0  0  0
 13 15  1  0  0  0  0
 14 13  2  0  0  0  0
 15 21  1  0  0  0  0
 15 16  1  1  0  0  0
 15 17  1  0  0  0  0
 17 18  2  0  0  0  0
 19 56  1  0  0  0  0
 19 17  1  0  0  0  0
 20 57  1  0  0  0  0
 20 17  1  0  0  0  0
 21 26  2  0  0  0  0
 22 23  2  0  0  0  0
 22 21  1  0  0  0  0
 23 24  1  0  0  0  0
 24 60  1  0  0  0  0
 24 25  2  0  0  0  0
 25 30  1  0  0  0  0
 26 25  1  0  0  0  0
 26 27  1  0  0  0  0
 27 61  1  0  0  0  0
 27 28  2  0  0  0  0
 28 62  1  0  0  0  0
 29 28  1  0  0  0  0
 29 63  1  0  0  0  0
 30 29  2  0  0  0  0
 31 12  2  0  0  0  0
 32 31  1  0  0  0  0
 33 66  1  0  0  0  0
 33 32  2  0  0  0  0
 34 33  1  0  0  0  0
 35 34  2  0  0  0  0
 35 36  1  0  0  0  0
 36 37  2  0  0  0  0
 37 32  1  0  0  0  0
 37 38  1  0  0  0  0
 38 70  1  0  0  0  0
 38 11  2  0  0  0  0
 39 71  1  0  0  0  0
 39 73  1  0  0  0  0
 40 74  1  0  0  0  0
 40  6  1  0  0  0  0
 41 40  1  0  0  0  0
 41 76  1  0  0  0  0
 42  2  1  0  0  0  0
 43 78  1  0  0  0  0
 43 42  2  0  0  0  0
 44 43  1  0  0  0  0
 45 44  2  0  0  0  0
 45 46  1  0  0  0  0
 46 47  2  0  0  0  0
 47 42  1  0  0  0  0
 47 80  1  0  0  0  0
 48 46  1  0  0  0  0
 48 81  1  0  0  0  0
 49 48  2  0  0  0  0
 50 51  2  0  0  0  0
 50 49  1  0  0  0  0
 51 45  1  0  0  0  0
 52  4  1  0  0  0  0
 55  5  1  0  0  0  0
 58 22  1  0  0  0  0
 59 23  1  0  0  0  0
 64 30  1  0  0  0  0
 65 31  1  0  0  0  0
 67 34  1  0  0  0  0
 68 35  1  0  0  0  0
 69 36  1  0  0  0  0
 72 39  1  0  0  0  0
 75 40  1  0  0  0  0
 77 41  1  0  0  0  0
 79 44  1  0  0  0  0
 82 49  1  0  0  0  0
 83 50  1  0  0  0  0
 84 51  1  0  0  0  0
M  END
$$$$
