84

O          0.02730       -0.25970       -0.42830
C          1.24590       -0.24210       -0.32360
N          1.88140       -0.34030        0.89650
C          1.04370       -0.42930        2.09060
C          0.88090       -1.88060        2.55660
C          2.19710       -2.67140        2.67640
H          1.92810       -3.72840        2.60440
N          2.86340       -2.51590        3.98440
C          3.58600       -3.53180        4.55580
O          4.29270       -3.37950        5.54560
C          3.49070       -4.90630        3.93420
C          2.29810       -5.69550        3.96680
C          1.01670       -5.23100        4.59230
O         -0.04410       -5.44880        4.04310
C          1.10630       -4.57860        5.97380
H          2.16070       -4.40240        6.20930
P          0.62330       -5.79900        7.26940
O          1.13220       -5.45350        8.62080
O         -0.97240       -5.99310        7.09480
O          1.14360       -7.21920        6.68280
C          0.31580       -3.29450        6.16560
C         -0.91630       -3.12300        5.55320
C         -1.62800       -1.90440        5.66450
C         -1.10610       -0.86000        6.39210
C          0.13150       -1.00500        7.07630
C          0.84640       -2.25010        6.99840
C          2.04990       -2.37990        7.74700
C          2.54190       -1.32810        8.48990
C          1.85800       -0.08980        8.53100
C          0.67380        0.06240        7.84390
C          2.28550       -6.94440        3.37130
C          3.44240       -7.48850        2.76140
C          3.44900       -8.77900        2.16360
C          4.59420       -9.27510        1.57880
C          5.78430       -8.50350        1.56870
C          5.80970       -7.24920        2.14110
C          4.64520       -6.70830        2.75030
C          4.62870       -5.41970        3.34630
C          2.96420       -1.20200        4.60720
C          3.12770       -2.38090        1.47940
C          3.21660       -0.90280        1.08140
C          2.09700       -0.05410       -1.54850
C          1.70920       -0.73620       -2.73460
C          2.40140       -0.54660       -3.90790
C          3.49900        0.35680       -3.97380
C          3.87200        1.07500       -2.78930
C          3.14950        0.84190       -1.58910
C          4.95580        1.99400       -2.85340
C          5.64540        2.19000       -4.03080
C          5.27970        1.47640       -5.20030
C          4.23070        0.58180       -5.17130
H          0.06250       -0.01020        1.84160
H          1.49890        0.19880        2.87070
H          0.32690       -1.92530        3.50480
H          0.26070       -2.39600        1.80670
H         -1.44940       -5.16560        7.26350
H          1.68300       -7.67130        7.34880
H         -1.31450       -3.92870        4.93790
H         -2.58640       -1.79770        5.15150
H         -1.63940        0.09110        6.46610
H          2.58900       -3.32380        7.75530
H          3.46870       -1.45630        9.05310
H          2.26380        0.73700        9.11860
H          0.12500        1.00680        7.88370
H          1.36240       -7.52630        3.39720
H          2.52910       -9.36870        2.17590
H          4.59030      -10.26680        1.12060
H          6.68550       -8.90970        1.10350
H          6.72640       -6.65440        2.13500
H          5.54110       -4.81880        3.33410
H          1.96800       -0.78680        4.80540
H          3.53070       -0.49730        3.97840
H          3.48890       -1.31990        5.55970
H          4.13150       -2.78350        1.68620
H          2.73430       -2.93570        0.61060
H          3.74570       -0.31550        1.85020
H          3.79100       -0.80890        0.15430
H          0.84740       -1.40420       -2.69050
H          2.10770       -1.08310       -4.81380
H          3.42860        1.39980       -0.69190
H          5.23410        2.54260       -1.94980
H          6.47720        2.89730       -4.06750
H          5.83340        1.64080       -6.12770
H          3.94500        0.03350       -6.07260
