84
rmsd180.gzmat
O          0.00000        0.00000        0.00000
C          1.21470        0.00000        0.00000
N          1.92290        0.00000        1.19940
C          1.18420       -0.35140        2.42060
C          1.28550       -1.85310        2.76010
C          2.71280       -2.42790        2.69420
H          2.62980       -3.55590        2.63570
N          3.52210       -2.16900        3.90730
C          4.72090       -2.84060        4.01630
O          5.01990       -3.71920        3.22580
C          5.61930       -2.48530        5.15630
C          6.50940       -1.38960        5.03100
C          6.57640       -0.62980        3.74610
O          6.00540        0.42320        3.62620
C          7.32620       -1.30750        2.59770
H          7.09190       -2.43970        2.67550
P          9.17180       -1.18200        2.80640
O          9.96930       -0.06700        2.31090
O          9.22810       -1.39160        4.39570
O          9.57580       -2.61430        2.21400
C          6.89980       -0.78360        1.24030
C          6.79870        0.57140        1.01460
C          6.39850        1.07640       -0.24510
C          6.11660        0.21850       -1.27270
C          6.20010       -1.18610       -1.07310
C          6.58340       -1.70260        0.18650
C          6.61360       -3.11730        0.34400
C          6.29380       -3.95440       -0.69370
C          5.93000       -3.42870       -1.95680
C          5.88550       -2.07230       -2.13990
C          7.30730       -1.02120        6.08270
C          7.28290       -1.77180        7.29190
C          8.10940       -1.41880        8.39330
C          8.08080       -2.16020        9.54620
C          7.22720       -3.28710        9.65190
C          6.41800       -3.64500        8.60440
C          6.42750       -2.88990        7.39970
C          5.58430       -3.23050        6.30520
C          3.26280       -0.99180        4.73560
C          3.42370       -1.94550        1.41300
C          3.32850       -0.42600        1.23860
C          2.00560        0.11230       -1.25870
C          2.58770        1.35980       -1.59560
C          3.30960        1.48200       -2.75370
C          3.48040        0.36420       -3.61780
C          2.87610       -0.86830       -3.28600
C          2.12820       -0.97620       -2.08200
C          3.03980       -1.98250       -4.15480
C          3.79470       -1.86750       -5.29320
C          4.41360       -0.63430       -5.62000
C          4.25700        0.45760       -4.80600
H          0.10990       -0.06800        2.29970
H          1.58180        0.27830        3.24580
H          0.83420       -2.04560        3.75010
H          0.65880       -2.41860        2.03780
H         10.19020       -1.40880        4.71900
H         10.52660       -2.58170        1.84970
H          7.02980        1.29920        1.79860
H          6.33220        2.15420       -0.37810
H          5.82060        0.59050       -2.25250
H          6.88000       -3.55230        1.31200
H          6.31080       -5.03380       -0.55740
H          5.68740       -4.11210       -2.76660
H          5.59860       -1.64780       -3.10230
H          7.97330       -0.15700        6.01460
H          8.76210       -0.55190        8.30200
H          8.70970       -1.89710       10.39510
H          7.22700       -3.85960       10.57840
H          5.75900       -4.50910        8.67730
H          4.91620       -4.08710        6.39880
H          3.77660       -1.06470        5.71090
H          2.18760       -0.90300        4.96210
H          3.60940       -0.06240        4.24200
H          4.48540       -2.26780        1.41800
H          2.97970       -2.45650        0.53730
H          3.83590        0.10310        2.08040
H          3.86390       -0.10260        0.31600
H          2.44920        2.20630       -0.92230
H          3.76300        2.43250       -3.02960
H          1.66270       -1.92920       -1.83050
H          2.55580       -2.92330       -3.89610
H          3.92860       -2.71460       -5.96330
H          5.00990       -0.57200       -6.52870
H          4.72150        1.41000       -5.05480
