84
rmsd115.gzmat
O          0.00000        0.00000        0.00000
C          1.21670        0.00000        0.00000
N          1.91900        0.00000        1.19090
C          1.19240        0.09970        2.45850
C          1.32730        1.47980        3.13810
C          2.73400        2.08790        2.97300
H          3.06940        2.49610        3.97240
N          2.76980        3.23690        2.04130
C          3.86840        4.05920        2.08270
O          4.78670        3.84240        2.85660
C          3.88850        5.25310        1.18280
C          4.39360        5.14880       -0.13660
C          4.86280        3.82640       -0.64390
O          4.13800        3.13960       -1.31630
C          6.25420        3.37500       -0.19600
H          6.42360        3.80790        0.86480
P          7.55900        4.16190       -1.25690
O          7.28480        5.38210       -2.01480
O          8.70340        4.30120       -0.14880
O          7.99950        2.91090       -2.14780
C          6.35120        1.86170       -0.14870
C          5.97670        1.10140       -1.23430
C          6.01440       -0.31170       -1.18530
C          6.41940       -0.95310       -0.04680
C          6.81680       -0.19970        1.09100
C          6.79530        1.21420        1.04940
C          7.19760        1.92140        2.21810
C          7.58980        1.25690        3.35140
C          7.60490       -0.15830        3.38470
C          7.22640       -0.86970        2.27710
C          4.43380        6.24690       -0.95520
C          3.98590        7.50930       -0.47480
C          4.02610        8.66750       -1.29810
C          3.59200        9.87560       -0.81620
C          3.10080        9.98300        0.50940
C          3.05370        8.88040        1.32330
C          3.49540        7.61660        0.84490
C          3.45210        6.45730        1.66920
C          1.75340        3.40680        1.00320
C          3.73690        0.99440        2.55530
C          3.35250        0.33190        1.23020
C          2.02060       -0.10390       -1.25030
C          2.39530       -1.39790       -1.69170
C          3.13480       -1.53980       -2.83630
C          3.54100       -0.39530       -3.57790
C          3.14910        0.88910       -3.14130
C          2.36290        1.01550       -1.96220
C          3.57730        2.03490       -3.86760
C          4.37280        1.89400       -4.97510
C          4.76220        0.60470       -5.41720
C          4.35290       -0.51480       -4.73950
H          1.58350       -0.69570        3.13510
H          0.11270       -0.13100        2.28670
H          0.54350        2.16570        2.76810
H          1.10600        1.36460        4.21680
H          9.44660        4.90620       -0.49400
H          8.56850        3.23470       -2.93070
H          5.63300        1.56370       -2.16670
H          5.70970       -0.87170       -2.06960
H          6.44840       -2.03870        0.00490
H          7.17800        3.01550        2.22440
H          7.88830        1.80880        4.24040
H          7.91740       -0.66260        4.29590
H          7.23100       -1.95750        2.28530
H          4.81700        6.18150       -1.97880
H          4.41280        8.57530       -2.31270
H          3.61950       10.76800       -1.43940
H          2.76550       10.95560        0.86700
H          2.68210        8.95440        2.34410
H          3.07190        6.54880        2.68690
H          0.99130        4.13910        1.32280
H          1.23900        2.45610        0.77380
H          2.19710        3.75920        0.05200
H          4.75730        1.42960        2.47660
H          3.81020        0.24100        3.36190
H          3.61950        1.00950        0.38180
H          3.93840       -0.60610        1.08240
H          2.08310       -2.26470       -1.10920
H          3.42540       -2.52520       -3.19370
H          2.06180        2.01270       -1.63670
H          3.27610        3.02230       -3.51290
H          4.71940        2.76510       -5.52670
H          5.39130        0.52180       -6.30120
H          4.64230       -1.50790       -5.07580
