
     RDKit          3D

 84 90  0  0  0  0  0  0  0  0999 V2000
    0.4966   -0.6615   -0.1743 O   0  0  0  0  0  0  0  0  0  0  0  0
    1.6624   -0.2879   -0.1287 C   0  0  0  0  0  0  0  0  0  0  0  0
    2.3237   -0.0813    1.0608 N   0  0  0  0  0  0  0  0  0  0  0  0
    3.4184    0.8740    1.2453 C   0  0  0  0  0  0  0  0  0  0  0  0
    2.8932    2.2078    1.7831 C   0  0  0  0  0  0  0  0  0  0  0  0
    1.9826    2.0953    3.0231 C   0  0  0  0  0  0  0  0  0  0  0  0
    1.4019    3.0235    3.0720 H   0  0  0  0  0  0  0  0  0  0  0  0
    2.7192    2.0849    4.3055 N   0  0  0  0  0  0  0  0  0  0  0  0
    2.9150    3.2946    4.9050 C   0  0  0  0  0  0  0  0  0  0  0  0
    2.6067    4.3595    4.3717 O   0  0  0  0  0  0  0  0  0  0  0  0
    3.4501    3.3214    6.3170 C   0  0  0  0  0  0  0  0  0  0  0  0
    4.6223    4.0480    6.7198 C   0  0  0  0  0  0  0  0  0  0  0  0
    5.6709    4.6675    5.8255 C   0  0  0  0  0  0  0  0  0  0  0  0
    6.4734    5.4487    6.2891 O   0  0  0  0  0  0  0  0  0  0  0  0
    5.7626    4.2567    4.3448 C   0  0  2  0  0  0  0  0  0  0  0  0
    4.7468    4.1254    3.9738 H   0  0  0  0  0  0  0  0  0  0  0  0
    6.4726    2.5738    4.1056 P   0  0  0  0  0  0  0  0  0  0  0  0
    5.8897    1.8273    2.9570 O   0  0  0  0  0  0  0  0  0  0  0  0
    8.0929    2.6836    4.0689 O   0  0  0  0  0  0  0  0  0  0  0  0
    6.2958    1.8902    5.5686 O   0  0  0  0  0  0  0  0  0  0  0  0
    6.4868    5.2432    3.4431 C   0  0  0  0  0  0  0  0  0  0  0  0
    7.8039    5.5855    3.7090 C   0  0  0  0  0  0  0  0  0  0  0  0
    8.5331    6.4373    2.8484 C   0  0  0  0  0  0  0  0  0  0  0  0
    7.9460    6.9351    1.7075 C   0  0  0  0  0  0  0  0  0  0  0  0
    6.5918    6.6355    1.4026 C   0  0  0  0  0  0  0  0  0  0  0  0
    5.8298    5.7987    2.2918 C   0  0  0  0  0  0  0  0  0  0  0  0
    4.4537    5.5876    1.9886 C   0  0  0  0  0  0  0  0  0  0  0  0
    3.8828    6.1238    0.8536 C   0  0  0  0  0  0  0  0  0  0  0  0
    4.6480    6.9074   -0.0427 C   0  0  0  0  0  0  0  0  0  0  0  0
    5.9718    7.1634    0.2361 C   0  0  0  0  0  0  0  0  0  0  0  0
    4.8894    4.1709    8.0748 C   0  0  0  0  0  0  0  0  0  0  0  0
    4.0636    3.6055    9.0741 C   0  0  0  0  0  0  0  0  0  0  0  0
    4.3515    3.7342   10.4611 C   0  0  0  0  0  0  0  0  0  0  0  0
    3.5224    3.1651   11.4037 C   0  0  0  0  0  0  0  0  0  0  0  0
    2.3703    2.4423   11.0001 C   0  0  0  0  0  0  0  0  0  0  0  0
    2.0654    2.3003    9.6625 C   0  0  0  0  0  0  0  0  0  0  0  0
    2.9020    2.8748    8.6684 C   0  0  0  0  0  0  0  0  0  0  0  0
    2.6341    2.7591    7.2808 C   0  0  0  0  0  0  0  0  0  0  0  0
    3.2769    0.8438    4.8179 C   0  0  0  0  0  0  0  0  0  0  0  0
    0.9919    0.9244    2.8817 C   0  0  0  0  0  0  0  0  0  0  0  0
    1.5907   -0.3589    2.2915 C   0  0  0  0  0  0  0  0  0  0  0  0
    2.4308   -0.0950   -1.4064 C   0  0  0  0  0  0  0  0  0  0  0  0
    1.7441    0.4865   -2.5078 C   0  0  0  0  0  0  0  0  0  0  0  0
    2.3655    0.6226   -3.7272 C   0  0  0  0  0  0  0  0  0  0  0  0
    3.6959    0.1590   -3.9273 C   0  0  0  0  0  0  0  0  0  0  0  0
    4.3813   -0.4603   -2.8299 C   0  0  0  0  0  0  0  0  0  0  0  0
    3.7184   -0.5687   -1.5787 C   0  0  0  0  0  0  0  0  0  0  0  0
    5.7052   -0.9412   -3.0279 C   0  0  0  0  0  0  0  0  0  0  0  0
    6.3273   -0.8114   -4.2511 C   0  0  0  0  0  0  0  0  0  0  0  0
    5.6510   -0.1958   -5.3347 C   0  0  0  0  0  0  0  0  0  0  0  0
    4.3656    0.2773   -5.1753 C   0  0  0  0  0  0  0  0  0  0  0  0
    3.9271    1.0483    0.2926 H   0  0  0  0  0  0  0  0  0  0  0  0
    4.1688    0.4508    1.9280 H   0  0  0  0  0  0  0  0  0  0  0  0
    3.7443    2.8646    1.9968 H   0  0  0  0  0  0  0  0  0  0  0  0
    2.3019    2.6887    0.9851 H   0  0  0  0  0  0  0  0  0  0  0  0
    8.4120    2.9846    3.2042 H   0  0  0  0  0  0  0  0  0  0  0  0
    6.6522    0.9887    5.5917 H   0  0  0  0  0  0  0  0  0  0  0  0
    8.2863    5.1888    4.5996 H   0  0  0  0  0  0  0  0  0  0  0  0
    9.5677    6.6880    3.0937 H   0  0  0  0  0  0  0  0  0  0  0  0
    8.5083    7.5774    1.0249 H   0  0  0  0  0  0  0  0  0  0  0  0
    3.8133    5.0356    2.6748 H   0  0  0  0  0  0  0  0  0  0  0  0
    2.8229    5.9490    0.6544 H   0  0  0  0  0  0  0  0  0  0  0  0
    4.1833    7.3197   -0.9413 H   0  0  0  0  0  0  0  0  0  0  0  0
    6.5701    7.7868   -0.4333 H   0  0  0  0  0  0  0  0  0  0  0  0
    5.7860    4.7198    8.3667 H   0  0  0  0  0  0  0  0  0  0  0  0
    5.2399    4.2936   10.7642 H   0  0  0  0  0  0  0  0  0  0  0  0
    3.7482    3.2693   12.4673 H   0  0  0  0  0  0  0  0  0  0  0  0
    1.7215    1.9972   11.7582 H   0  0  0  0  0  0  0  0  0  0  0  0
    1.1767    1.7456    9.3510 H   0  0  0  0  0  0  0  0  0  0  0  0
    1.7352    2.2218    6.9680 H   0  0  0  0  0  0  0  0  0  0  0  0
    3.9143    0.3751    4.0564 H   0  0  0  0  0  0  0  0  0  0  0  0
    2.4881    0.1359    5.1183 H   0  0  0  0  0  0  0  0  0  0  0  0
    3.9059    1.0544    5.6865 H   0  0  0  0  0  0  0  0  0  0  0  0
    0.5021    0.7183    3.8472 H   0  0  0  0  0  0  0  0  0  0  0  0
    0.1981    1.2531    2.1924 H   0  0  0  0  0  0  0  0  0  0  0  0
    2.2836   -0.8453    2.9950 H   0  0  0  0  0  0  0  0  0  0  0  0
    0.7882   -1.0661    2.0530 H   0  0  0  0  0  0  0  0  0  0  0  0
    0.7132    0.8126   -2.3607 H   0  0  0  0  0  0  0  0  0  0  0  0
    1.8376    1.0824   -4.5667 H   0  0  0  0  0  0  0  0  0  0  0  0
    4.2405   -1.0500   -0.7485 H   0  0  0  0  0  0  0  0  0  0  0  0
    6.2230   -1.4141   -2.1893 H   0  0  0  0  0  0  0  0  0  0  0  0
    7.3453   -1.1827   -4.3905 H   0  0  0  0  0  0  0  0  0  0  0  0
    6.1542   -0.0989   -6.2998 H   0  0  0  0  0  0  0  0  0  0  0  0
    3.8415    0.7499   -6.0101 H   0  0  0  0  0  0  0  0  0  0  0  0
  1  2  2  0
  2  3  1  0
  2 42  1  0
  3  4  1  0
  3 41  1  0
  4  5  1  0
  4 52  1  0
  4 53  1  0
  5  6  1  0
  5 54  1  0
  5 55  1  0
  6  7  1  0
  6  8  1  0
  6 40  1  0
  8  9  1  0
  8 39  1  0
  9 10  2  0
  9 11  1  0
 11 12  1  0
 11 38  2  0
 12 13  1  0
 12 31  2  0
 13 14  2  0
 13 15  1  0
 15 16  1  6
 15 17  1  0
 15 21  1  0
 17 18  2  0
 17 19  1  0
 17 20  1  0
 19 56  1  0
 20 57  1  0
 21 22  2  0
 21 26  1  0
 22 23  1  0
 22 58  1  0
 23 24  2  0
 23 59  1  0
 24 25  1  0
 24 60  1  0
 25 26  2  0
 25 30  1  0
 26 27  1  0
 27 28  2  0
 27 61  1  0
 28 29  1  0
 28 62  1  0
 29 30  2  0
 29 63  1  0
 30 64  1  0
 31 32  1  0
 31 65  1  0
 32 33  2  0
 32 37  1  0
 33 34  1  0
 33 66  1  0
 34 35  2  0
 34 67  1  0
 35 36  1  0
 35 68  1  0
 36 37  2  0
 36 69  1  0
 37 38  1  0
 38 70  1  0
 39 71  1  0
 39 72  1  0
 39 73  1  0
 40 41  1  0
 40 74  1  0
 40 75  1  0
 41 76  1  0
 41 77  1  0
 42 43  2  0
 42 47  1  0
 43 44  1  0
 43 78  1  0
 44 45  2  0
 44 79  1  0
 45 46  1  0
 45 51  1  0
 46 47  2  0
 46 48  1  0
 47 80  1  0
 48 49  2  0
 48 81  1  0
 49 50  1  0
 49 82  1  0
 50 51  2  0
 50 83  1  0
 51 84  1  0
M  END

