84
rmsd168.gzmat
O          0.00000        0.00000        0.00000
C          1.21200        0.00000        0.00000
N          1.91860        0.00000        1.20820
C          3.32870        0.40740        1.23350
C          3.48370        1.93540        1.32170
C          2.62930        2.59960        2.41930
H          2.50650        3.69230        2.13110
N          3.29970        2.62180        3.73690
C          2.83120        3.55070        4.65370
O          2.05060        4.41220        4.29840
C          3.35120        3.48930        6.05100
C          4.34970        4.38450        6.49990
C          4.95640        5.44190        5.63280
O          4.82480        6.60240        5.91710
C          5.75680        4.99850        4.39790
H          5.08100        4.26330        3.82210
P          7.26290        4.02070        4.87600
O          8.59440        4.59010        5.04330
O          6.66400        3.30120        6.17950
O          7.16520        2.87810        3.74980
C          6.11800        6.15750        3.48770
C          6.59730        7.33670        4.01380
C          6.89760        8.44180        3.18180
C          6.72620        8.35360        1.82720
C          6.24790        7.14700        1.24720
C          5.93980        6.03810        2.06980
C          5.47260        4.85290        1.43610
C          5.32290        4.78100        0.07500
C          5.62940        5.89740       -0.73920
C          6.08250        7.05460       -0.16280
C          4.79800        4.31930        7.79870
C          4.26720        3.35590        8.69750
C          4.73450        3.25550       10.03770
C          4.20040        2.32360       10.88880
C          3.17410        1.45080       10.44410
C          2.70760        1.52750        9.15780
C          3.24980        2.48320        8.25400
C          2.79650        2.57330        6.91130
C          4.11720        1.48520        4.15410
C          1.21080        1.99350        2.49760
C          1.18870        0.46180        2.40190
C          2.01170       -0.09520       -1.25460
C          2.17670        1.08410       -2.02420
C          2.90660        1.04190       -3.18310
C          3.49300       -0.17830       -3.62210
C          3.30660       -1.35250       -2.85960
C          2.54580       -1.29000       -1.65980
C          3.88780       -2.57240       -3.30260
C          4.62630       -2.60790       -4.45690
C          4.81490       -1.42970       -5.22300
C          4.26110       -0.24280       -4.81770
H          3.85730        0.02040        0.33330
H          3.81110       -0.09490        2.10200
H          4.55370        2.18950        1.45870
H          3.19390        2.38090        0.34720
H          7.37990        2.75020        6.64470
H          8.08640        2.49610        3.55760
H          6.75540        7.45900        5.08940
H          7.26570        9.35730        3.64180
H          6.95150        9.19600        1.17670
H          5.23220        3.98010        2.04660
H          4.97100        3.86840       -0.40130
H          5.50060        5.82010       -1.81590
H          6.32400        7.92300       -0.77300
H          5.56630        5.00810        8.15820
H          5.52010        3.93230       10.37060
H          4.55040        2.23900       11.91640
H          2.76580        0.72350       11.14420
H          1.91790        0.86410        8.80880
H          2.00430        1.90210        6.57980
H          4.96620        1.35230        3.45650
H          3.53370        0.55180        4.19780
H          4.56880        1.64640        5.15120
H          0.70850        2.32650        3.42680
H          0.59560        2.41810        1.67690
H          1.65040       -0.00590        3.29740
H          0.13680        0.09090        2.35430
H          1.70480        2.00800       -1.68820
H          3.04470        1.93660       -3.78900
H          2.39820       -2.19960       -1.07650
H          3.73260       -3.47270       -2.70950
H          5.07600       -3.53700       -4.80350
H          5.40380       -1.48680       -6.13710
H          4.39750        0.66540       -5.40240
