44

O         -0.04970       -0.02570       -0.07240
C          1.30400        0.00520       -0.01650
C          2.08930        0.01280        1.14830
C          3.47230        0.06930        0.91400
C          4.02940        0.11250       -0.37990
C          3.22380        0.10300       -1.51370
C          1.83620        0.05070       -1.31380
C          0.70640        0.04160       -2.21920
O          0.93410        0.08650       -3.52230
C         -0.07660       -0.20080       -4.52960
C          0.50480        0.30680       -5.83530
C         -0.37940       -1.69060       -4.53540
C         -0.43080        0.00170       -1.41630
C         -1.87570       -0.00110       -1.62040
O         -2.44160        0.03200       -2.71170
N         -2.59940       -0.04760       -0.44120
C         -3.97170       -0.06520       -0.38560
N         -4.69120       -0.11460        0.71880
N         -5.98370       -0.11760        0.30820
N         -6.07390       -0.07350       -0.97270
N         -4.80730       -0.03950       -1.44250
H         -4.54820        0.00000       -2.42470
C          1.50740       -0.01860        2.50960
C          0.36230       -0.78570        2.79490
C         -0.17450       -0.81430        4.08250
C          0.42020       -0.07710        5.11020
C          1.55770        0.68860        4.84030
C          2.09510        0.71870        3.55290
H          4.14270        0.05740        1.77560
H          5.11570        0.14630       -0.48540
H          3.63940        0.13440       -2.52180
H         -0.98580        0.35240       -4.26410
H          0.72580        1.38240       -5.77110
H         -0.21370        0.14700       -6.65310
H          1.43680       -0.22660       -6.08060
H          0.52390       -2.27210       -4.77850
H         -1.15240       -1.90890       -5.28770
H         -0.76500       -2.02050       -3.56060
H         -2.11100       -0.04930        0.44950
H         -0.10000       -1.37740        2.00400
H         -1.06170       -1.41890        4.28440
H         -0.00360       -0.09680        6.11690
H          2.02470        1.27510        5.63510
H          2.96830        1.34090        3.34610
