44
rmsd212.gzmat
O          0.00000        0.00000        0.00000
C          1.36800        0.00000        0.00000
C          2.16460        0.00000        1.14660
C          3.54020       -0.00660        0.92110
C          4.08090       -0.00450       -0.37660
C          3.26920        0.00580       -1.50460
C          1.89090        0.00650       -1.31040
C          0.72320        0.00810       -2.18410
O          0.95870        0.00020       -3.47580
C         -0.14320        0.09990       -4.42510
C         -0.60530        1.54430       -4.46080
C          0.54080       -0.33820       -5.71420
C         -0.39090       -0.00550       -1.36400
C         -1.81590       -0.04670       -1.54510
O         -2.39620       -0.08910       -2.61720
N         -2.58790       -0.04470       -0.36870
C         -3.96610       -0.12180       -0.41790
N         -4.82560       -0.20510        0.65120
N         -6.06750       -0.25510        0.14210
N         -6.06460       -0.21390       -1.15420
N         -4.76580       -0.12210       -1.56810
H         -4.48200       -0.10910       -2.53750
C          1.56750        0.00890        2.47970
C          0.47870       -0.82340        2.76110
C         -0.10590       -0.80110        4.02400
C          0.39390        0.04750        5.01060
C          1.47890        0.87680        4.73240
C          2.06570        0.86090        3.46940
H          4.21980       -0.02010        1.77630
H          5.16370       -0.01170       -0.49330
H          3.68720        0.01150       -2.51000
H         -0.94320       -0.60910       -4.11730
H         -1.12280        1.82780       -3.53340
H         -1.31460        1.71260       -5.28140
H          0.23420        2.23720       -4.59550
H          1.38120        0.31920       -5.97130
H         -0.16660       -0.32290       -6.55220
H          0.94090       -1.35720       -5.63090
H         -2.16060       -0.00220        0.56030
H          0.09120       -1.49140        1.99200
H         -0.95820       -1.44500        4.23960
H         -0.06460        0.06440        5.99750
H          1.86670        1.54180        5.50170
H          2.90160        1.52150        3.24900
