
     RDKit          3D

 44 47  0  0  0  0  0  0  0  0999 V2000
   -0.0497   -0.0257   -0.0724 O   0  0  0  0  0  0  0  0  0  0  0  0
    1.3040    0.0052   -0.0165 C   0  0  0  0  0  0  0  0  0  0  0  0
    2.0893    0.0128    1.1483 C   0  0  0  0  0  0  0  0  0  0  0  0
    3.4723    0.0693    0.9140 C   0  0  0  0  0  0  0  0  0  0  0  0
    4.0294    0.1125   -0.3799 C   0  0  0  0  0  0  0  0  0  0  0  0
    3.2238    0.1030   -1.5137 C   0  0  0  0  0  0  0  0  0  0  0  0
    1.8362    0.0507   -1.3138 C   0  0  0  0  0  0  0  0  0  0  0  0
    0.7064    0.0416   -2.2192 C   0  0  0  0  0  0  0  0  0  0  0  0
    0.9341    0.0865   -3.5223 O   0  0  0  0  0  0  0  0  0  0  0  0
   -0.0766   -0.2008   -4.5296 C   0  0  0  0  0  0  0  0  0  0  0  0
    0.5048    0.3068   -5.8353 C   0  0  0  0  0  0  0  0  0  0  0  0
   -0.3794   -1.6906   -4.5354 C   0  0  0  0  0  0  0  0  0  0  0  0
   -0.4308    0.0017   -1.4163 C   0  0  0  0  0  0  0  0  0  0  0  0
   -1.8757   -0.0011   -1.6204 C   0  0  0  0  0  0  0  0  0  0  0  0
   -2.4416    0.0320   -2.7117 O   0  0  0  0  0  0  0  0  0  0  0  0
   -2.5994   -0.0476   -0.4412 N   0  0  0  0  0  0  0  0  0  0  0  0
   -3.9717   -0.0652   -0.3856 C   0  0  0  0  0  0  0  0  0  0  0  0
   -4.6912   -0.1146    0.7188 N   0  0  0  0  0  0  0  0  0  0  0  0
   -5.9837   -0.1176    0.3082 N   0  0  0  0  0  0  0  0  0  0  0  0
   -6.0739   -0.0735   -0.9727 N   0  0  0  0  0  0  0  0  0  0  0  0
   -4.8073   -0.0395   -1.4425 N   0  0  0  0  0  0  0  0  0  0  0  0
   -4.5482    0.0000   -2.4247 H   0  0  0  0  0  0  0  0  0  0  0  0
    1.5074   -0.0186    2.5096 C   0  0  0  0  0  0  0  0  0  0  0  0
    0.3623   -0.7857    2.7949 C   0  0  0  0  0  0  0  0  0  0  0  0
   -0.1745   -0.8143    4.0825 C   0  0  0  0  0  0  0  0  0  0  0  0
    0.4202   -0.0771    5.1102 C   0  0  0  0  0  0  0  0  0  0  0  0
    1.5577    0.6886    4.8403 C   0  0  0  0  0  0  0  0  0  0  0  0
    2.0951    0.7187    3.5529 C   0  0  0  0  0  0  0  0  0  0  0  0
    4.1427    0.0574    1.7756 H   0  0  0  0  0  0  0  0  0  0  0  0
    5.1157    0.1463   -0.4854 H   0  0  0  0  0  0  0  0  0  0  0  0
    3.6394    0.1344   -2.5218 H   0  0  0  0  0  0  0  0  0  0  0  0
   -0.9858    0.3524   -4.2641 H   0  0  0  0  0  0  0  0  0  0  0  0
    0.7258    1.3824   -5.7711 H   0  0  0  0  0  0  0  0  0  0  0  0
   -0.2137    0.1470   -6.6531 H   0  0  0  0  0  0  0  0  0  0  0  0
    1.4368   -0.2266   -6.0806 H   0  0  0  0  0  0  0  0  0  0  0  0
    0.5239   -2.2721   -4.7785 H   0  0  0  0  0  0  0  0  0  0  0  0
   -1.1524   -1.9089   -5.2877 H   0  0  0  0  0  0  0  0  0  0  0  0
   -0.7650   -2.0205   -3.5606 H   0  0  0  0  0  0  0  0  0  0  0  0
   -2.1110   -0.0493    0.4495 H   0  0  0  0  0  0  0  0  0  0  0  0
   -0.1000   -1.3774    2.0040 H   0  0  0  0  0  0  0  0  0  0  0  0
   -1.0617   -1.4189    4.2844 H   0  0  0  0  0  0  0  0  0  0  0  0
   -0.0036   -0.0968    6.1169 H   0  0  0  0  0  0  0  0  0  0  0  0
    2.0247    1.2751    5.6351 H   0  0  0  0  0  0  0  0  0  0  0  0
    2.9683    1.3409    3.3461 H   0  0  0  0  0  0  0  0  0  0  0  0
  1  2  1  0
  1 13  1  0
  2  3  2  0
  2  7  1  0
  3  4  1  0
  3 23  1  0
  4  5  2  0
  4 29  1  0
  5  6  1  0
  5 30  1  0
  6  7  2  0
  6 31  1  0
  7  8  1  0
  8  9  1  0
  8 13  2  0
  9 10  1  0
 10 11  1  0
 10 12  1  0
 10 32  1  0
 11 33  1  0
 11 34  1  0
 11 35  1  0
 12 36  1  0
 12 37  1  0
 12 38  1  0
 13 14  1  0
 14 15  2  0
 14 16  1  0
 16 17  1  0
 16 39  1  0
 17 18  2  0
 17 21  1  0
 18 19  1  0
 19 20  2  0
 20 21  1  0
 21 22  1  0
 23 24  2  0
 23 28  1  0
 24 25  1  0
 24 40  1  0
 25 26  2  0
 25 41  1  0
 26 27  1  0
 26 42  1  0
 27 28  2  0
 27 43  1  0
 28 44  1  0
M  END

