rmsd212.gzmat
 OpenBabel08211713403D

 44 47  0  0  0  0  0  0  0  0999 V2000
    0.0000    0.0000    0.0000 O   0  0  0  0  0  0  0  0  0  0  0  0
    1.3680    0.0000    0.0000 C   0  0  0  0  0  0  0  0  0  0  0  0
    2.1646    0.0000    1.1466 C   0  0  0  0  0  0  0  0  0  0  0  0
    3.5402   -0.0066    0.9211 C   0  0  0  0  0  0  0  0  0  0  0  0
    4.0809   -0.0045   -0.3766 C   0  0  0  0  0  0  0  0  0  0  0  0
    3.2692    0.0058   -1.5046 C   0  0  0  0  0  0  0  0  0  0  0  0
    1.8909    0.0065   -1.3104 C   0  0  0  0  0  0  0  0  0  0  0  0
    0.7232    0.0081   -2.1841 C   0  0  0  0  0  0  0  0  0  0  0  0
    0.9587    0.0002   -3.4758 O   0  0  0  0  0  0  0  0  0  0  0  0
   -0.1432    0.0999   -4.4251 C   0  0  0  0  0  0  0  0  0  0  0  0
   -0.6053    1.5443   -4.4608 C   0  0  0  0  0  0  0  0  0  0  0  0
    0.5408   -0.3382   -5.7142 C   0  0  0  0  0  0  0  0  0  0  0  0
   -0.3909   -0.0055   -1.3640 C   0  0  0  0  0  0  0  0  0  0  0  0
   -1.8159   -0.0467   -1.5451 C   0  0  0  0  0  0  0  0  0  0  0  0
   -2.3962   -0.0891   -2.6172 O   0  0  0  0  0  0  0  0  0  0  0  0
   -2.5879   -0.0447   -0.3687 N   0  0  0  0  0  0  0  0  0  0  0  0
   -3.9661   -0.1218   -0.4179 C   0  0  0  0  0  0  0  0  0  0  0  0
   -4.8256   -0.2051    0.6512 N   0  0  0  0  0  0  0  0  0  0  0  0
   -6.0675   -0.2551    0.1421 N   0  0  0  0  0  0  0  0  0  0  0  0
   -6.0646   -0.2139   -1.1542 N   0  0  0  0  0  0  0  0  0  0  0  0
   -4.7658   -0.1221   -1.5681 N   0  0  0  0  0  0  0  0  0  0  0  0
   -4.4820   -0.1091   -2.5375 H   0  0  0  0  0  0  0  0  0  0  0  0
    1.5675    0.0089    2.4797 C   0  0  0  0  0  0  0  0  0  0  0  0
    0.4787   -0.8234    2.7611 C   0  0  0  0  0  0  0  0  0  0  0  0
   -0.1059   -0.8011    4.0240 C   0  0  0  0  0  0  0  0  0  0  0  0
    0.3939    0.0475    5.0106 C   0  0  0  0  0  0  0  0  0  0  0  0
    1.4789    0.8768    4.7324 C   0  0  0  0  0  0  0  0  0  0  0  0
    2.0657    0.8609    3.4694 C   0  0  0  0  0  0  0  0  0  0  0  0
    4.2198   -0.0201    1.7763 H   0  0  0  0  0  0  0  0  0  0  0  0
    5.1637   -0.0117   -0.4933 H   0  0  0  0  0  0  0  0  0  0  0  0
    3.6872    0.0115   -2.5100 H   0  0  0  0  0  0  0  0  0  0  0  0
   -0.9432   -0.6091   -4.1173 H   0  0  0  0  0  0  0  0  0  0  0  0
   -1.1228    1.8278   -3.5334 H   0  0  0  0  0  0  0  0  0  0  0  0
   -1.3146    1.7126   -5.2814 H   0  0  0  0  0  0  0  0  0  0  0  0
    0.2342    2.2372   -4.5955 H   0  0  0  0  0  0  0  0  0  0  0  0
    1.3812    0.3192   -5.9713 H   0  0  0  0  0  0  0  0  0  0  0  0
   -0.1666   -0.3229   -6.5522 H   0  0  0  0  0  0  0  0  0  0  0  0
    0.9409   -1.3572   -5.6309 H   0  0  0  0  0  0  0  0  0  0  0  0
   -2.1606   -0.0022    0.5603 H   0  0  0  0  0  0  0  0  0  0  0  0
    0.0912   -1.4914    1.9920 H   0  0  0  0  0  0  0  0  0  0  0  0
   -0.9582   -1.4450    4.2396 H   0  0  0  0  0  0  0  0  0  0  0  0
   -0.0646    0.0644    5.9975 H   0  0  0  0  0  0  0  0  0  0  0  0
    1.8667    1.5418    5.5017 H   0  0  0  0  0  0  0  0  0  0  0  0
    2.9016    1.5215    3.2490 H   0  0  0  0  0  0  0  0  0  0  0  0
  1  2  1  0  0  0  0
  2  3  2  0  0  0  0
  3 23  1  0  0  0  0
  4  3  1  0  0  0  0
  4 29  1  0  0  0  0
  5  4  2  0  0  0  0
  6  7  2  0  0  0  0
  6  5  1  0  0  0  0
  7  2  1  0  0  0  0
  8 13  2  0  0  0  0
  8  7  1  0  0  0  0
  9  8  1  0  0  0  0
 10 32  1  0  0  0  0
 10  9  1  0  0  0  0
 11 10  1  0  0  0  0
 11 33  1  0  0  0  0
 12 38  1  0  0  0  0
 12 10  1  0  0  0  0
 13  1  1  0  0  0  0
 14 13  1  0  0  0  0
 14 16  1  0  0  0  0
 15 14  2  0  0  0  0
 16 39  1  0  0  0  0
 17 16  1  0  0  0  0
 17 18  2  0  0  0  0
 19 18  1  0  0  0  0
 20 19  2  0  0  0  0
 21 20  1  0  0  0  0
 21 17  1  0  0  0  0
 22 21  1  0  0  0  0
 23 24  2  0  0  0  0
 23 28  1  0  0  0  0
 24 25  1  0  0  0  0
 25 41  1  0  0  0  0
 25 26  2  0  0  0  0
 26 42  1  0  0  0  0
 27 26  1  0  0  0  0
 27 43  1  0  0  0  0
 28 27  2  0  0  0  0
 30  5  1  0  0  0  0
 31  6  1  0  0  0  0
 34 11  1  0  0  0  0
 35 11  1  0  0  0  0
 36 12  1  0  0  0  0
 37 12  1  0  0  0  0
 40 24  1  0  0  0  0
 44 28  1  0  0  0  0
M  END
$$$$
