44
rmsd200.gzmat
O          0.00000        0.00000        0.00000
C          1.36830        0.00000        0.00000
C          2.16770        0.00000        1.14380
C          3.54310       -0.00460        0.91690
C          4.08330       -0.00460       -0.38090
C          3.26950        0.00170       -1.50730
C          1.89190        0.00330       -1.31050
C          0.72490        0.00730       -2.18390
O          0.95680        0.00520       -3.47680
C         -0.14820        0.13170       -4.41880
C         -0.60630        1.57820       -4.41960
C          0.52720       -0.28280       -5.71970
C         -0.38870        0.00320       -1.36390
C         -1.81360       -0.01640       -1.55010
O         -2.39070       -0.17590       -2.61280
N         -2.58880        0.17100       -0.39170
C         -3.96870        0.13660       -0.44190
N         -4.83430        0.25090        0.61890
N         -6.07540        0.17090        0.11200
N         -6.06660        0.01290       -1.17530
N         -4.76380       -0.01170       -1.58570
H         -4.47710       -0.14430       -2.54510
C          1.58360        0.00370        2.48270
C          0.55720       -0.89150        2.80030
C          0.00250       -0.88710        4.07730
C          0.46460        0.01190        5.03770
C          1.48210        0.90980        4.71970
C          2.04310        0.90720        3.44500
H          4.22200       -0.01570        1.77250
H          5.16610       -0.01130       -0.49890
H          3.68490        0.00430       -2.51370
H         -0.95070       -0.58090       -4.12330
H         -1.07220        1.85660       -3.46430
H         -1.35770        1.75390       -5.20040
H          0.22510        2.27150       -4.59640
H          1.36380        0.38040       -5.97410
H         -0.18640       -0.25780       -6.55170
H          0.92960       -1.30230       -5.65450
H         -2.16250        0.32040        0.52680
H          0.19570       -1.59380        2.04930
H         -0.79560       -1.58580        4.32480
H          0.02980        0.01460        6.03530
H          1.83820        1.61690        5.46640
H          2.83050        1.61510        3.19460
