44
rmsd232.gzmat
O          0.00000        0.00000        0.00000
C          1.36810        0.00000        0.00000
C          2.16460        0.00000        1.14650
C          3.54010        0.00730        0.92100
C          4.08110        0.00490       -0.37660
C          3.26960       -0.00870       -1.50480
C          1.89140       -0.01210       -1.31090
C          0.72380       -0.02580       -2.18430
O          0.95710       -0.03680       -3.47660
C         -0.14430       -0.18930       -4.41970
C          0.53330        0.20440       -5.72620
C         -0.59220       -1.63850       -4.39480
C         -0.39030       -0.00390       -1.36450
C         -1.81480        0.04370       -1.54770
O         -2.39430        0.06690       -2.62040
N         -2.58730        0.07570       -0.37260
C         -3.96540        0.15210       -0.42440
N         -4.82570        0.24140        0.64360
N         -6.06700        0.29010        0.13310
N         -6.06280        0.24040       -1.16270
N         -4.76340        0.14830       -1.57490
H         -4.47980        0.11920       -2.54380
C          1.56970       -0.01610        2.48030
C          2.06860       -0.87720        3.46190
C          1.48050       -0.90760        4.72400
C          0.39460       -0.08210        5.01030
C         -0.10210        0.77960        4.03350
C          0.48330        0.81530        2.77110
H          4.21850        0.02080        1.77690
H          5.16400        0.01350       -0.49250
H          3.68730       -0.01490       -2.51020
H         -0.95160        0.52320       -4.13930
H          0.93830        1.22390       -5.67630
H         -0.17930        0.16800       -6.55890
H          1.36930       -0.46380       -5.96920
H          0.24920       -2.32900       -4.53070
H         -1.32320       -1.84010       -5.18850
H         -1.08210       -1.89560       -3.44500
H         -2.16190        0.04660        0.55730
H          2.90720       -1.53270        3.23590
H          1.86830       -1.58130        5.48570
H         -0.06690       -0.11240        5.99550
H         -0.95260        1.42360        4.25510
H          0.09790        1.49380        2.01040
