rmsd200.gzmat
 OpenBabel08211713403D

 44 47  0  0  0  0  0  0  0  0999 V2000
    0.0000    0.0000    0.0000 O   0  0  0  0  0  0  0  0  0  0  0  0
    1.3683    0.0000    0.0000 C   0  0  0  0  0  0  0  0  0  0  0  0
    2.1677    0.0000    1.1438 C   0  0  0  0  0  0  0  0  0  0  0  0
    3.5431   -0.0046    0.9169 C   0  0  0  0  0  0  0  0  0  0  0  0
    4.0833   -0.0046   -0.3809 C   0  0  0  0  0  0  0  0  0  0  0  0
    3.2695    0.0017   -1.5073 C   0  0  0  0  0  0  0  0  0  0  0  0
    1.8919    0.0033   -1.3105 C   0  0  0  0  0  0  0  0  0  0  0  0
    0.7249    0.0073   -2.1839 C   0  0  0  0  0  0  0  0  0  0  0  0
    0.9568    0.0052   -3.4768 O   0  0  0  0  0  0  0  0  0  0  0  0
   -0.1482    0.1317   -4.4188 C   0  0  0  0  0  0  0  0  0  0  0  0
   -0.6063    1.5782   -4.4196 C   0  0  0  0  0  0  0  0  0  0  0  0
    0.5272   -0.2828   -5.7197 C   0  0  0  0  0  0  0  0  0  0  0  0
   -0.3887    0.0032   -1.3639 C   0  0  0  0  0  0  0  0  0  0  0  0
   -1.8136   -0.0164   -1.5501 C   0  0  0  0  0  0  0  0  0  0  0  0
   -2.3907   -0.1759   -2.6128 O   0  0  0  0  0  0  0  0  0  0  0  0
   -2.5888    0.1710   -0.3917 N   0  0  0  0  0  0  0  0  0  0  0  0
   -3.9687    0.1366   -0.4419 C   0  0  0  0  0  0  0  0  0  0  0  0
   -4.8343    0.2509    0.6189 N   0  0  0  0  0  0  0  0  0  0  0  0
   -6.0754    0.1709    0.1120 N   0  0  0  0  0  0  0  0  0  0  0  0
   -6.0666    0.0129   -1.1753 N   0  0  0  0  0  0  0  0  0  0  0  0
   -4.7638   -0.0117   -1.5857 N   0  0  0  0  0  0  0  0  0  0  0  0
   -4.4771   -0.1443   -2.5451 H   0  0  0  0  0  0  0  0  0  0  0  0
    1.5836    0.0037    2.4827 C   0  0  0  0  0  0  0  0  0  0  0  0
    0.5572   -0.8915    2.8003 C   0  0  0  0  0  0  0  0  0  0  0  0
    0.0025   -0.8871    4.0773 C   0  0  0  0  0  0  0  0  0  0  0  0
    0.4646    0.0119    5.0377 C   0  0  0  0  0  0  0  0  0  0  0  0
    1.4821    0.9098    4.7197 C   0  0  0  0  0  0  0  0  0  0  0  0
    2.0431    0.9072    3.4450 C   0  0  0  0  0  0  0  0  0  0  0  0
    4.2220   -0.0157    1.7725 H   0  0  0  0  0  0  0  0  0  0  0  0
    5.1661   -0.0113   -0.4989 H   0  0  0  0  0  0  0  0  0  0  0  0
    3.6849    0.0043   -2.5137 H   0  0  0  0  0  0  0  0  0  0  0  0
   -0.9507   -0.5809   -4.1233 H   0  0  0  0  0  0  0  0  0  0  0  0
   -1.0722    1.8566   -3.4643 H   0  0  0  0  0  0  0  0  0  0  0  0
   -1.3577    1.7539   -5.2004 H   0  0  0  0  0  0  0  0  0  0  0  0
    0.2251    2.2715   -4.5964 H   0  0  0  0  0  0  0  0  0  0  0  0
    1.3638    0.3804   -5.9741 H   0  0  0  0  0  0  0  0  0  0  0  0
   -0.1864   -0.2578   -6.5517 H   0  0  0  0  0  0  0  0  0  0  0  0
    0.9296   -1.3023   -5.6545 H   0  0  0  0  0  0  0  0  0  0  0  0
   -2.1625    0.3204    0.5268 H   0  0  0  0  0  0  0  0  0  0  0  0
    0.1957   -1.5938    2.0493 H   0  0  0  0  0  0  0  0  0  0  0  0
   -0.7956   -1.5858    4.3248 H   0  0  0  0  0  0  0  0  0  0  0  0
    0.0298    0.0146    6.0353 H   0  0  0  0  0  0  0  0  0  0  0  0
    1.8382    1.6169    5.4664 H   0  0  0  0  0  0  0  0  0  0  0  0
    2.8305    1.6151    3.1946 H   0  0  0  0  0  0  0  0  0  0  0  0
  1  2  1  0  0  0  0
  2  3  2  0  0  0  0
  3 23  1  0  0  0  0
  4  3  1  0  0  0  0
  4 29  1  0  0  0  0
  5  4  2  0  0  0  0
  6  7  2  0  0  0  0
  6  5  1  0  0  0  0
  7  2  1  0  0  0  0
  8 13  2  0  0  0  0
  8  7  1  0  0  0  0
  9  8  1  0  0  0  0
 10 32  1  0  0  0  0
 10  9  1  0  0  0  0
 11 10  1  0  0  0  0
 11 33  1  0  0  0  0
 12 38  1  0  0  0  0
 12 10  1  0  0  0  0
 13  1  1  0  0  0  0
 14 13  1  0  0  0  0
 14 16  1  0  0  0  0
 15 14  2  0  0  0  0
 16 39  1  0  0  0  0
 17 16  1  0  0  0  0
 17 18  2  0  0  0  0
 19 18  1  0  0  0  0
 20 19  2  0  0  0  0
 21 20  1  0  0  0  0
 21 17  1  0  0  0  0
 22 21  1  0  0  0  0
 23 24  2  0  0  0  0
 23 28  1  0  0  0  0
 24 25  1  0  0  0  0
 25 41  1  0  0  0  0
 25 26  2  0  0  0  0
 26 42  1  0  0  0  0
 27 26  1  0  0  0  0
 27 43  1  0  0  0  0
 28 27  2  0  0  0  0
 30  5  1  0  0  0  0
 31  6  1  0  0  0  0
 34 11  1  0  0  0  0
 35 11  1  0  0  0  0
 36 12  1  0  0  0  0
 37 12  1  0  0  0  0
 40 24  1  0  0  0  0
 44 28  1  0  0  0  0
M  END
$$$$
