44
rmsd104.gzmat
O          0.00000        0.00000        0.00000
C          1.36760        0.00000        0.00000
C          2.16140        0.00000        1.14850
C          3.53710       -0.00290        0.92620
C          4.07990       -0.00200       -0.37080
C          3.27050        0.00500       -1.50060
C          1.89170        0.00680       -1.31000
C          0.72420        0.01290       -2.18410
O          0.95520        0.03100       -3.47680
C         -0.15750       -0.00040       -4.41880
C          0.51520        0.50060       -5.69050
C         -0.64280       -1.43380       -4.52620
C         -0.39020        0.00350       -1.36440
C         -1.81640       -0.00880       -1.54210
O         -2.40490        0.09650       -2.60490
N         -2.57860       -0.17580       -0.37180
C         -3.95750       -0.23530       -0.41690
N         -4.80780       -0.45370        0.64060
N         -6.05420       -0.43320        0.14080
N         -6.06240       -0.22450       -1.13930
N         -4.76650       -0.08670       -1.55010
H         -4.49100        0.06350       -2.51060
C          1.55810        0.00740        2.47840
C          0.46590       -0.82320        2.75190
C         -0.12930       -0.79830        4.00970
C          0.36330        0.05170        4.99890
C          1.45290        0.87780        4.72870
C          2.05160        0.85780        3.47140
H          4.21490       -0.01230        1.78280
H          5.16310       -0.00750       -0.48390
H          3.68870        0.00880       -2.50570
H         -0.94470        0.70170       -4.06370
H          0.98180        1.48300       -5.53640
H         -0.21680        0.60200       -6.50100
H          1.30350       -0.18120       -6.03320
H          0.17990       -2.13030       -4.72760
H         -1.37910       -1.54160       -5.33330
H         -1.13880       -1.76520       -3.60330
H         -2.14340       -0.25250        0.55080
H          0.08430       -1.49230        1.98120
H         -0.98430       -1.44060        4.21830
H         -0.10410        0.07230        5.98140
H          1.83510        1.54470        5.49910
H          2.89300        1.51390        3.25820
