44
rmsd109.gzmat
O          0.00000        0.00000        0.00000
C          1.36840        0.00000        0.00000
C          2.16600        0.00000        1.14590
C          3.54150       -0.00460        0.91970
C          4.08270       -0.00960       -0.37780
C          3.27040       -0.00640       -1.50530
C          1.89220       -0.00050       -1.31070
C          0.72460       -0.00380       -2.18440
O          0.95780        0.00080       -3.47710
C         -0.14860       -0.10760       -4.42070
C          0.51870        0.34060       -5.71470
C         -0.59790       -1.55660       -4.45320
C         -0.38960       -0.00570       -1.36440
C         -1.81490       -0.00890       -1.54950
O         -2.39450        0.08870       -2.61840
N         -2.58910       -0.15490       -0.38410
C         -3.96900       -0.18780       -0.44160
N         -4.83240       -0.37510        0.61120
N         -6.07420       -0.33730        0.10050
N         -6.06750       -0.14390       -1.18210
N         -4.76580       -0.03860       -1.58370
H         -4.48170        0.09490       -2.54410
C          1.57380        0.00150        2.48120
C          0.49430       -0.84200        2.76510
C         -0.08530       -0.82860        4.03050
C          0.41260        0.02040        5.01800
C          1.48950        0.85950        4.73750
C          2.06980        0.85350        3.47130
H          4.22110       -0.01240        1.77470
H          5.16570       -0.01810       -0.49390
H          3.68810       -0.01090       -2.51080
H         -0.95330        0.59410       -4.10630
H          0.94330        1.34890       -5.61800
H         -0.20600        0.36130       -6.53780
H          1.33780       -0.32890       -6.00570
H          0.24380       -2.24150       -4.61360
H         -1.32590       -1.72670       -5.25710
H         -1.09070       -1.85010       -3.51590
H         -2.16310       -0.22610        0.54320
H          0.11110       -1.51280        1.99680
H         -0.93160       -1.47990        4.24770
H         -0.04250        0.03050        6.00660
H          1.87500        1.52580        5.50680
H          2.89900        1.52190        3.24940
