rmsd58.gzmat
 OpenBabel08211713403D

 44 47  0  0  0  0  0  0  0  0999 V2000
    0.0000    0.0000    0.0000 O   0  0  0  0  0  0  0  0  0  0  0  0
    1.3684    0.0000    0.0000 C   0  0  0  0  0  0  0  0  0  0  0  0
    2.1653    0.0000    1.1461 C   0  0  0  0  0  0  0  0  0  0  0  0
    3.5408    0.0083    0.9204 C   0  0  0  0  0  0  0  0  0  0  0  0
    4.0819    0.0112   -0.3770 C   0  0  0  0  0  0  0  0  0  0  0  0
    3.2702    0.0048   -1.5051 C   0  0  0  0  0  0  0  0  0  0  0  0
    1.8921   -0.0003   -1.3107 C   0  0  0  0  0  0  0  0  0  0  0  0
    0.7249   -0.0006   -2.1846 C   0  0  0  0  0  0  0  0  0  0  0  0
    0.9571    0.0010   -3.4773 O   0  0  0  0  0  0  0  0  0  0  0  0
   -0.1529   -0.0588   -4.4203 C   0  0  0  0  0  0  0  0  0  0  0  0
    0.5328    0.3746   -5.7099 C   0  0  0  0  0  0  0  0  0  0  0  0
   -0.6603   -1.4878   -4.4673 C   0  0  0  0  0  0  0  0  0  0  0  0
   -0.3887    0.0019   -1.3647 C   0  0  0  0  0  0  0  0  0  0  0  0
   -1.8141    0.0270   -1.5479 C   0  0  0  0  0  0  0  0  0  0  0  0
   -2.3933    0.2209   -2.6034 O   0  0  0  0  0  0  0  0  0  0  0  0
   -2.5856   -0.1938   -0.3927 N   0  0  0  0  0  0  0  0  0  0  0  0
   -3.9655   -0.1560   -0.4363 C   0  0  0  0  0  0  0  0  0  0  0  0
   -4.8282   -0.3361    0.6179 N   0  0  0  0  0  0  0  0  0  0  0  0
   -6.0703   -0.2129    0.1224 N   0  0  0  0  0  0  0  0  0  0  0  0
   -6.0646    0.0298   -1.1518 N   0  0  0  0  0  0  0  0  0  0  0  0
   -4.7630    0.0738   -1.5646 N   0  0  0  0  0  0  0  0  0  0  0  0
   -4.4781    0.2585   -2.5164 H   0  0  0  0  0  0  0  0  0  0  0  0
    1.5724   -0.0083    2.4809 C   0  0  0  0  0  0  0  0  0  0  0  0
    2.0769   -0.8571    3.4703 C   0  0  0  0  0  0  0  0  0  0  0  0
    1.4982   -0.8693    4.7371 C   0  0  0  0  0  0  0  0  0  0  0  0
    0.4148   -0.0391    5.0196 C   0  0  0  0  0  0  0  0  0  0  0  0
   -0.0910    0.8068    4.0335 C   0  0  0  0  0  0  0  0  0  0  0  0
    0.4858    0.8256    2.7667 C   0  0  0  0  0  0  0  0  0  0  0  0
    4.2190    0.0200    1.7764 H   0  0  0  0  0  0  0  0  0  0  0  0
    5.1647    0.0201   -0.4931 H   0  0  0  0  0  0  0  0  0  0  0  0
    3.6871    0.0056   -2.5109 H   0  0  0  0  0  0  0  0  0  0  0  0
   -0.9303    0.6705   -4.0995 H   0  0  0  0  0  0  0  0  0  0  0  0
    1.0086    1.3583   -5.5990 H   0  0  0  0  0  0  0  0  0  0  0  0
   -0.1926    0.4447   -6.5294 H   0  0  0  0  0  0  0  0  0  0  0  0
    1.3166   -0.3307   -6.0136 H   0  0  0  0  0  0  0  0  0  0  0  0
    0.1465   -2.2024   -4.6705 H   0  0  0  0  0  0  0  0  0  0  0  0
   -1.4210   -1.6103   -5.2496 H   0  0  0  0  0  0  0  0  0  0  0  0
   -1.1320   -1.7833   -3.5202 H   0  0  0  0  0  0  0  0  0  0  0  0
   -2.1560   -0.3781    0.5179 H   0  0  0  0  0  0  0  0  0  0  0  0
    2.9131   -1.5169    3.2475 H   0  0  0  0  0  0  0  0  0  0  0  0
    1.8915   -1.5316    5.5058 H   0  0  0  0  0  0  0  0  0  0  0  0
   -0.0383   -0.0532    6.0090 H   0  0  0  0  0  0  0  0  0  0  0  0
   -0.9410    1.4522    4.2524 H   0  0  0  0  0  0  0  0  0  0  0  0
    0.0943    1.4928    1.9990 H   0  0  0  0  0  0  0  0  0  0  0  0
  1  2  1  0  0  0  0
  2  3  2  0  0  0  0
  3 23  1  0  0  0  0
  4  3  1  0  0  0  0
  4 29  1  0  0  0  0
  5  4  2  0  0  0  0
  6  7  2  0  0  0  0
  6  5  1  0  0  0  0
  7  2  1  0  0  0  0
  8 13  2  0  0  0  0
  8  7  1  0  0  0  0
  9  8  1  0  0  0  0
 10 32  1  0  0  0  0
 10  9  1  0  0  0  0
 11 33  1  0  0  0  0
 11 10  1  0  0  0  0
 12 10  1  0  0  0  0
 12 38  1  0  0  0  0
 13  1  1  0  0  0  0
 14 13  1  0  0  0  0
 14 16  1  0  0  0  0
 15 14  2  0  0  0  0
 16 39  1  0  0  0  0
 17 16  1  0  0  0  0
 17 18  2  0  0  0  0
 19 18  1  0  0  0  0
 20 19  2  0  0  0  0
 21 20  1  0  0  0  0
 21 17  1  0  0  0  0
 22 21  1  0  0  0  0
 23 28  2  0  0  0  0
 23 24  1  0  0  0  0
 24 25  2  0  0  0  0
 25 26  1  0  0  0  0
 25 41  1  0  0  0  0
 26 42  1  0  0  0  0
 27 43  1  0  0  0  0
 27 26  2  0  0  0  0
 28 27  1  0  0  0  0
 30  5  1  0  0  0  0
 31  6  1  0  0  0  0
 34 11  1  0  0  0  0
 35 11  1  0  0  0  0
 36 12  1  0  0  0  0
 37 12  1  0  0  0  0
 40 24  1  0  0  0  0
 44 28  1  0  0  0  0
M  END
$$$$
