44
rmsd248.gzmat
O          0.00000        0.00000        0.00000
C          1.36770        0.00000        0.00000
C          2.16320        0.00000        1.14720
C          3.53890       -0.00350        0.92310
C          4.08050        0.00230       -0.37420
C          3.26980        0.01570       -1.50290
C          1.89150        0.01480       -1.31020
C          0.72400        0.02990       -2.18380
O          0.95620        0.03770       -3.47660
C         -0.14550        0.20890       -4.41640
C         -0.56880        1.66550       -4.38730
C          0.51870       -0.19390       -5.72680
C         -0.39030        0.00860       -1.36410
C         -1.81550       -0.02840       -1.54560
O         -2.39830       -0.02230       -2.61690
N         -2.58500       -0.08710       -0.36970
C         -3.96440       -0.14240       -0.41880
N         -4.82350       -0.21120        0.65170
N         -6.06630       -0.25000        0.14420
N         -6.06430       -0.21330       -1.15210
N         -4.76470       -0.14240       -1.56800
H         -4.48320       -0.11180       -2.53780
C          1.56320        0.01350        2.47870
C          0.48410       -0.82930        2.76580
C         -0.10860       -0.79590        4.02460
C          0.37280        0.07510        5.00090
C          1.45020        0.91260        4.71780
C          2.04620        0.88430        3.45940
H          4.21700       -0.01650        1.77930
H          5.16340       -0.00310       -0.48940
H          3.68760        0.02590       -2.50820
H         -0.96370       -0.49040       -4.13480
H         -1.04940        1.92880       -3.43420
H         -1.29990        1.88020       -5.17740
H          0.28320        2.34170       -4.52620
H          1.35880        0.46590       -5.97830
H         -0.20070       -0.15200       -6.55390
H          0.91390       -1.21720       -5.67830
H         -2.15710       -0.07660        0.55960
H          0.11130       -1.51450        2.00470
H         -0.95290       -1.44870        4.24480
H         -0.09470        0.10340        5.98320
H          1.82400        1.59440        5.47930
H          2.87730        1.54970        3.23540
