
     RDKit          3D

 42 44  0  0  0  0  0  0  0  0999 V2000
    0.0038    0.3579   -0.1016 S   0  0  0  0  0  0  0  0  0  0  0  0
    1.7537    0.2291   -0.1077 N   0  0  0  0  0  0  0  0  0  0  0  0
    2.2487    0.0565    1.1374 C   0  0  0  0  0  0  0  0  0  0  0  0
    1.3651   -0.0175    2.1187 N   0  0  0  0  0  0  0  0  0  0  0  0
    0.0856    0.1001    1.7078 C   0  0  0  0  0  0  0  0  0  0  0  0
   -0.9346    0.0529    2.5091 N   0  0  0  0  0  0  0  0  0  0  0  0
   -2.4641    0.1841    1.8956 S   0  0  0  0  0  0  0  0  0  0  0  0
   -3.2213    1.1503    2.6841 O   0  0  0  0  0  0  0  0  0  0  0  0
   -2.3764    0.3544    0.4154 O   0  0  0  0  0  0  0  0  0  0  0  0
   -3.1406   -1.4381    2.1966 C   0  0  0  0  0  0  0  0  0  0  0  0
   -3.7719   -1.6960    3.4157 C   0  0  0  0  0  0  0  0  0  0  0  0
   -4.2717   -2.9732    3.6580 C   0  0  0  0  0  0  0  0  0  0  0  0
   -4.1557   -3.9944    2.6987 C   0  0  0  0  0  0  0  0  0  0  0  0
   -3.5227   -3.7004    1.4815 C   0  0  0  0  0  0  0  0  0  0  0  0
   -3.0136   -2.4272    1.2215 C   0  0  0  0  0  0  0  0  0  0  0  0
   -4.7189   -5.3646    2.9743 C   0  0  0  0  0  0  0  0  0  0  0  0
    3.6877   -0.0670    1.4292 C   0  0  0  0  0  0  0  0  0  0  0  0
    4.6847    0.6285    0.7165 C   0  0  0  0  0  0  0  0  0  0  0  0
    6.0227    0.5043    1.0626 C   0  0  0  0  0  0  0  0  0  0  0  0
    6.4058   -0.3222    2.1344 C   0  0  0  0  0  0  0  0  0  0  0  0
    5.4190   -1.0048    2.8661 C   0  0  0  0  0  0  0  0  0  0  0  0
    4.0780   -0.8640    2.5170 C   0  0  0  0  0  0  0  0  0  0  0  0
    7.7287   -0.3887    2.3909 O   0  0  0  0  0  0  0  0  0  0  0  0
    8.1852   -1.1793    3.4685 C   0  0  0  0  0  0  0  0  0  0  0  0
    2.4343    0.1205   -1.3859 C   0  0  0  0  0  0  0  0  0  0  0  0
   -3.8689   -0.8955    4.1505 H   0  0  0  0  0  0  0  0  0  0  0  0
   -4.7670   -3.1843    4.6097 H   0  0  0  0  0  0  0  0  0  0  0  0
   -3.4310   -4.4809    0.7218 H   0  0  0  0  0  0  0  0  0  0  0  0
   -2.5313   -2.1903    0.2721 H   0  0  0  0  0  0  0  0  0  0  0  0
   -4.4333   -6.0849    2.1942 H   0  0  0  0  0  0  0  0  0  0  0  0
   -5.8207   -5.3360    3.0187 H   0  0  0  0  0  0  0  0  0  0  0  0
   -4.3679   -5.7522    3.9441 H   0  0  0  0  0  0  0  0  0  0  0  0
    4.4139    1.3073   -0.0924 H   0  0  0  0  0  0  0  0  0  0  0  0
    6.8006    1.0497    0.5261 H   0  0  0  0  0  0  0  0  0  0  0  0
    5.6845   -1.6397    3.7105 H   0  0  0  0  0  0  0  0  0  0  0  0
    3.3033   -1.3710    3.0936 H   0  0  0  0  0  0  0  0  0  0  0  0
    9.2779   -1.0784    3.4874 H   0  0  0  0  0  0  0  0  0  0  0  0
    7.9238   -2.2434    3.3322 H   0  0  0  0  0  0  0  0  0  0  0  0
    7.7740   -0.8303    4.4319 H   0  0  0  0  0  0  0  0  0  0  0  0
    1.7744   -0.3960   -2.0982 H   0  0  0  0  0  0  0  0  0  0  0  0
    3.3524   -0.4698   -1.2721 H   0  0  0  0  0  0  0  0  0  0  0  0
    2.6887    1.1090   -1.8017 H   0  0  0  0  0  0  0  0  0  0  0  0
  1  2  1  0
  1  5  1  0
  2  3  1  0
  2 25  1  0
  3  4  2  0
  3 17  1  0
  4  5  1  0
  5  6  2  0
  7  6  1  0
  7  8  2  0
  7  9  2  0
  7 10  1  0
 10 11  2  0
 10 15  1  0
 11 12  1  0
 11 26  1  0
 12 13  2  0
 12 27  1  0
 13 14  1  0
 13 16  1  0
 14 15  2  0
 14 28  1  0
 15 29  1  0
 16 30  1  0
 16 31  1  0
 16 32  1  0
 17 18  2  0
 17 22  1  0
 18 19  1  0
 18 33  1  0
 19 20  2  0
 19 34  1  0
 20 21  1  0
 20 23  1  0
 21 22  2  0
 21 35  1  0
 22 36  1  0
 23 24  1  0
 24 37  1  0
 24 38  1  0
 24 39  1  0
 25 40  1  0
 25 41  1  0
 25 42  1  0
M  END

