42
rmsd35.gzmat
S          0.00000        0.00000        0.00000
N          1.81720        0.00000        0.00000
C          2.33230        0.00000        1.24680
N          1.43780        0.01230        2.27190
C          0.14510       -0.00050        1.87070
N         -0.94360        0.00560        2.59080
S         -2.40970       -0.06440        1.73030
O         -1.87900        0.07190        0.28880
O         -3.21710       -1.20650        2.04160
C         -3.31030        1.38410        2.07810
C         -3.09380        2.54130        1.32850
C         -3.80970        3.69960        1.61500
C         -4.74920        3.70830        2.65060
C         -4.96810        2.54490        3.39500
C         -4.25260        1.38630        3.10820
C         -5.50200        4.95300        2.96700
C          3.76920       -0.00510        1.54880
C          4.30270        1.01000        2.35570
C          5.65650        1.02540        2.64690
C          6.47110       -0.00060        2.13540
C          5.94820       -1.03410        1.35670
C          4.58560       -1.02970        1.07000
O          7.77410        0.14140        2.48510
C          8.68320       -0.85660        2.04070
C          2.59640        0.00640       -1.22360
H         -2.36950        2.55580        0.50480
H         -3.63730        4.60040        1.03050
H         -5.69960        2.54490        4.20020
H         -4.44610        0.48190        3.69820
H         -6.50400        4.74900        3.37060
H         -5.63950        5.59910        2.08830
H         -4.96690        5.55120        3.72290
H          3.63860        1.77920        2.76010
H          6.09440        1.80330        3.26810
H          6.57500       -1.83540        0.98320
H          4.15650       -1.83900        0.47730
H          9.63510       -0.50800        2.46480
H          8.73640       -0.87780        0.94850
H          8.41940       -1.83660        2.45010
H          2.11620        0.65080       -1.98510
H          2.67430       -1.01540       -1.64330
H          3.61990        0.39460       -1.06290
