42
rmsd41.gzmat
S          0.00000        0.00000        0.00000
N          1.81690        0.00000        0.00000
C          2.33170        0.00000        1.24700
N          1.43730       -0.05060        2.27150
C          0.14470       -0.06750        1.86990
N         -0.94270       -0.09410        2.59070
S         -2.41150       -0.11050        1.73110
O         -1.88230        0.06480        0.29430
O         -3.24090       -1.24590        2.00690
C         -3.27180        1.34710        2.13700
C         -3.02080        2.52590        1.43320
C         -3.68080        3.69980        1.78340
C         -4.60020        3.70170        2.83710
C         -4.86140        2.51440        3.52860
C         -4.20070        1.34080        3.17860
C         -5.28520        4.96260        3.23340
C          3.76680        0.03890        1.55110
C          4.57490        1.04510        1.00470
C          5.93080        1.07420        1.28230
C          6.47040        0.08500        2.12490
C          5.67350       -0.90620        2.69950
C          4.31040       -0.91440        2.41470
O          7.80830        0.22340        2.29790
C          8.46810       -0.74710        3.09950
C          2.59510       -0.02440       -1.22420
H         -2.31090        2.54620        0.59700
H         -3.47750        4.61780        1.23660
H         -5.58110        2.50810        4.34430
H         -4.42520        0.41940        3.72990
H         -6.29890        4.78780        3.62180
H         -5.38140        5.67310        2.40040
H         -4.72250        5.47680        4.03030
H          4.13160        1.81340        0.36910
H          6.57940        1.84280        0.87020
H          6.09010       -1.65520        3.36410
H          3.65600       -1.66310        2.87230
H          9.51080       -0.40210        3.06580
H          8.38140       -1.74340        2.65510
H          8.09120       -0.72960        4.12710
H          2.12790       -0.70340       -1.96400
H          3.62700       -0.38610       -1.05440
H          2.65130        0.98430       -1.67570
