42
rmsd150.gzmat
S          0.00000        0.00000        0.00000
N          1.81760        0.00000        0.00000
C          2.33140        0.00000        1.24720
N          1.43620       -0.04340        2.27170
C          0.14430       -0.05740        1.86980
N         -0.94460       -0.07430        2.58970
S         -2.41030       -0.10550        1.72650
O         -1.87550        0.06640        0.29000
O         -3.23330       -1.24580        2.00230
C         -3.29400        1.34430        2.11080
C         -2.97530        2.54670        1.47760
C         -3.67610        3.70660        1.79290
C         -4.70650        3.67160        2.73780
C         -5.02590        2.46400        3.36670
C         -4.32250        1.30460        3.05360
C         -5.45040        4.91570        3.07690
C          3.76620        0.03550        1.55540
C          4.57240        1.05010        1.03930
C          5.93260        1.08560        1.33330
C          6.46330        0.09290        2.15940
C          5.65980       -0.92410        2.70540
C          4.30780       -0.93950        2.40600
O          7.76570       -0.01710        2.52130
C          8.65530        1.00330        2.08920
C          2.59730       -0.02370       -1.22320
H         -2.18220        2.59690        0.72190
H         -3.42170        4.64270        1.30100
H         -5.82590        2.42950        4.10290
H         -4.59350        0.36620        3.55360
H         -6.47930        4.71710        3.40860
H         -5.52090        5.60880        2.22620
H         -4.94870        5.46070        3.89330
H          4.13530        1.82810        0.41140
H          6.55300        1.87620        0.92710
H          6.10480       -1.67250        3.35720
H          3.65080       -1.70160        2.83670
H          9.60820        0.67990        2.53130
H          8.35880        1.97720        2.49110
H          8.72810        1.02210        0.99790
H          2.13020       -0.70050       -1.96580
H          3.62840       -0.38650       -1.05120
H          2.65460        0.98510       -1.67400
