
     RDKit          3D

 42 44  0  0  0  0  0  0  0  0999 V2000
   -0.0316   -0.3969   -0.2117 S   0  0  0  0  0  0  0  0  0  0  0  0
    1.7171   -0.2794   -0.1267 N   0  0  0  0  0  0  0  0  0  0  0  0
    2.1521   -0.1811    1.1487 C   0  0  0  0  0  0  0  0  0  0  0  0
    1.2231   -0.1574    2.0892 N   0  0  0  0  0  0  0  0  0  0  0  0
   -0.0359   -0.2447    1.6116 C   0  0  0  0  0  0  0  0  0  0  0  0
   -1.0931   -0.2394    2.3645 N   0  0  0  0  0  0  0  0  0  0  0  0
   -2.5917   -0.3290    1.6720 S   0  0  0  0  0  0  0  0  0  0  0  0
   -2.4332   -0.4071    0.1898 O   0  0  0  0  0  0  0  0  0  0  0  0
   -3.3846   -1.3411    2.3616 O   0  0  0  0  0  0  0  0  0  0  0  0
   -3.2828    1.2727    2.0411 C   0  0  0  0  0  0  0  0  0  0  0  0
   -3.1098    2.3204    1.1369 C   0  0  0  0  0  0  0  0  0  0  0  0
   -3.6316    3.5760    1.4513 C   0  0  0  0  0  0  0  0  0  0  0  0
   -4.3222    3.7949    2.6529 C   0  0  0  0  0  0  0  0  0  0  0  0
   -4.4834    2.7161    3.5399 C   0  0  0  0  0  0  0  0  0  0  0  0
   -3.9719    1.4553    3.2424 C   0  0  0  0  0  0  0  0  0  0  0  0
   -4.8977    5.1468    2.9872 C   0  0  0  0  0  0  0  0  0  0  0  0
    3.5759   -0.0851    1.5157 C   0  0  0  0  0  0  0  0  0  0  0  0
    3.9210    0.6580    2.6641 C   0  0  0  0  0  0  0  0  0  0  0  0
    5.2399    0.7596    3.0733 C   0  0  0  0  0  0  0  0  0  0  0  0
    6.2593    0.1003    2.3596 C   0  0  0  0  0  0  0  0  0  0  0  0
    5.9261   -0.6692    1.2337 C   0  0  0  0  0  0  0  0  0  0  0  0
    4.5946   -0.7543    0.8227 C   0  0  0  0  0  0  0  0  0  0  0  0
    7.5131    0.2554    2.8331 O   0  0  0  0  0  0  0  0  0  0  0  0
    8.5843   -0.3904    2.1791 C   0  0  0  0  0  0  0  0  0  0  0  0
    2.4590   -0.1021   -1.3621 C   0  0  0  0  0  0  0  0  0  0  0  0
   -2.5824    2.1421    0.1988 H   0  0  0  0  0  0  0  0  0  0  0  0
   -3.5041    4.4023    0.7472 H   0  0  0  0  0  0  0  0  0  0  0  0
   -5.0237    2.8684    4.4782 H   0  0  0  0  0  0  0  0  0  0  0  0
   -4.1034    0.6108    3.9203 H   0  0  0  0  0  0  0  0  0  0  0  0
   -6.0003    5.1166    2.9878 H   0  0  0  0  0  0  0  0  0  0  0  0
   -4.5833    5.9118    2.2628 H   0  0  0  0  0  0  0  0  0  0  0  0
   -4.5845    5.4760    3.9910 H   0  0  0  0  0  0  0  0  0  0  0  0
    3.1245    1.1464    3.2267 H   0  0  0  0  0  0  0  0  0  0  0  0
    5.5186    1.3399    3.9543 H   0  0  0  0  0  0  0  0  0  0  0  0
    6.6889   -1.2146    0.6797 H   0  0  0  0  0  0  0  0  0  0  0  0
    4.3557   -1.3895   -0.0307 H   0  0  0  0  0  0  0  0  0  0  0  0
    9.4941   -0.1224    2.7314 H   0  0  0  0  0  0  0  0  0  0  0  0
    8.6857   -0.0528    1.1325 H   0  0  0  0  0  0  0  0  0  0  0  0
    8.4662   -1.4883    2.1911 H   0  0  0  0  0  0  0  0  0  0  0  0
    1.8386    0.4632   -2.0729 H   0  0  0  0  0  0  0  0  0  0  0  0
    2.7252   -1.0668   -1.8242 H   0  0  0  0  0  0  0  0  0  0  0  0
    3.3755    0.4697   -1.1688 H   0  0  0  0  0  0  0  0  0  0  0  0
  1  2  1  0
  1  5  1  0
  2  3  1  0
  2 25  1  0
  3  4  2  0
  3 17  1  0
  4  5  1  0
  5  6  2  0
  7  6  1  0
  7  8  2  0
  7  9  2  0
  7 10  1  0
 10 11  2  0
 10 15  1  0
 11 12  1  0
 11 26  1  0
 12 13  2  0
 12 27  1  0
 13 14  1  0
 13 16  1  0
 14 15  2  0
 14 28  1  0
 15 29  1  0
 16 30  1  0
 16 31  1  0
 16 32  1  0
 17 18  2  0
 17 22  1  0
 18 19  1  0
 18 33  1  0
 19 20  2  0
 19 34  1  0
 20 21  1  0
 20 23  1  0
 21 22  2  0
 21 35  1  0
 22 36  1  0
 23 24  1  0
 24 37  1  0
 24 38  1  0
 24 39  1  0
 25 40  1  0
 25 41  1  0
 25 42  1  0
M  END

