rmsd49.gzmat
 OpenBabel08211713403D

 42 45  0  0  0  0  0  0  0  0999 V2000
    0.0000    0.0000    0.0000 S   0  0  1  0  0  0  0  0  0  0  0  0
    1.8181    0.0000    0.0000 N   0  0  0  0  0  0  0  0  0  0  0  0
    2.3316    0.0000    1.2464 C   0  0  0  0  0  0  0  0  0  0  0  0
    1.4360   -0.0477    2.2711 N   0  0  0  0  0  0  0  0  0  0  0  0
    0.1441   -0.0538    1.8698 C   0  0  0  0  0  0  0  0  0  0  0  0
   -0.9442   -0.0567    2.5904 N   0  0  0  0  0  0  0  0  0  0  0  0
   -2.4121   -0.0499    1.7304 S   0  0  1  0  0  0  0  0  0  0  0  0
   -1.8756    0.0806    0.2909 O   0  0  0  0  0  0  0  0  0  0  0  0
   -3.2784   -1.1527    2.0269 O   0  0  0  0  0  0  0  0  0  0  0  0
   -3.2355    1.4403    2.0951 C   0  0  0  0  0  0  0  0  0  0  0  0
   -2.7938    2.6391    1.5324 C   0  0  0  0  0  0  0  0  0  0  0  0
   -3.4453    3.8309    1.8342 C   0  0  0  0  0  0  0  0  0  0  0  0
   -4.5460    3.8325    2.6970 C   0  0  0  0  0  0  0  0  0  0  0  0
   -4.9897    2.6289    3.2534 C   0  0  0  0  0  0  0  0  0  0  0  0
   -4.3357    1.4374    2.9541 C   0  0  0  0  0  0  0  0  0  0  0  0
   -5.2270    5.1131    3.0320 C   0  0  0  0  0  0  0  0  0  0  0  0
    3.7639    0.0458    1.5642 C   0  0  0  0  0  0  0  0  0  0  0  0
    4.5607    1.0910    1.0785 C   0  0  0  0  0  0  0  0  0  0  0  0
    5.9027    1.1544    1.4136 C   0  0  0  0  0  0  0  0  0  0  0  0
    6.4389    0.1598    2.2517 C   0  0  0  0  0  0  0  0  0  0  0  0
    5.6571   -0.8854    2.7449 C   0  0  0  0  0  0  0  0  0  0  0  0
    4.3083   -0.9289    2.4023 C   0  0  0  0  0  0  0  0  0  0  0  0
    7.7587    0.3454    2.5040 O   0  0  0  0  0  0  0  0  0  0  0  0
    8.3799   -0.5469    3.4202 C   0  0  0  0  0  0  0  0  0  0  0  0
    2.5928    0.0039   -1.2264 C   0  0  0  0  0  0  0  0  0  0  0  0
   -1.9391    2.6636    0.8463 H   0  0  0  0  0  0  0  0  0  0  0  0
   -3.0970    4.7644    1.3983 H   0  0  0  0  0  0  0  0  0  0  0  0
   -5.8464    2.6233    3.9236 H   0  0  0  0  0  0  0  0  0  0  0  0
   -4.6994    0.5033    3.4005 H   0  0  0  0  0  0  0  0  0  0  0  0
   -6.2895    4.9771    3.2786 H   0  0  0  0  0  0  0  0  0  0  0  0
   -5.1809    5.8425    2.2106 H   0  0  0  0  0  0  0  0  0  0  0  0
   -4.7539    5.5885    3.9071 H   0  0  0  0  0  0  0  0  0  0  0  0
    4.1170    1.8644    0.4497 H   0  0  0  0  0  0  0  0  0  0  0  0
    6.5422    1.9567    1.0546 H   0  0  0  0  0  0  0  0  0  0  0  0
    6.0735   -1.6499    3.3918 H   0  0  0  0  0  0  0  0  0  0  0  0
    3.6645   -1.7197    2.7991 H   0  0  0  0  0  0  0  0  0  0  0  0
    9.3963   -0.1356    3.4896 H   0  0  0  0  0  0  0  0  0  0  0  0
    8.4055   -1.5628    3.0151 H   0  0  0  0  0  0  0  0  0  0  0  0
    7.8877   -0.5137    4.3976 H   0  0  0  0  0  0  0  0  0  0  0  0
    2.1810   -0.7345   -1.9427 H   0  0  0  0  0  0  0  0  0  0  0  0
    3.6526   -0.2602   -1.0519 H   0  0  0  0  0  0  0  0  0  0  0  0
    2.5581    0.9996   -1.7084 H   0  0  0  0  0  0  0  0  0  0  0  0
  1  2  1  0  0  0  0
  1  8  1  1  0  0  0
  1  5  1  0  0  0  0
  2  3  1  0  0  0  0
  3 17  1  0  0  0  0
  3  4  2  0  0  0  0
  5  4  2  0  0  0  0
  5  6  2  0  0  0  0
  7  9  1  1  0  0  0
  7 10  1  0  0  0  0
  7  6  1  0  0  0  0
  8  7  1  0  0  0  0
 10 15  2  0  0  0  0
 11 12  2  0  0  0  0
 11 10  1  0  0  0  0
 12 13  1  0  0  0  0
 13 16  1  0  0  0  0
 13 14  2  0  0  0  0
 14 28  1  0  0  0  0
 15 14  1  0  0  0  0
 15 29  1  0  0  0  0
 16 30  1  0  0  0  0
 16 32  1  0  0  0  0
 17 22  2  0  0  0  0
 18 19  2  0  0  0  0
 18 17  1  0  0  0  0
 19 20  1  0  0  0  0
 20 23  1  0  0  0  0
 20 21  2  0  0  0  0
 21 35  1  0  0  0  0
 22 21  1  0  0  0  0
 22 36  1  0  0  0  0
 23 24  1  0  0  0  0
 24 37  1  0  0  0  0
 24 39  1  0  0  0  0
 25 41  1  0  0  0  0
 25  2  1  0  0  0  0
 26 11  1  0  0  0  0
 27 12  1  0  0  0  0
 31 16  1  0  0  0  0
 33 18  1  0  0  0  0
 34 19  1  0  0  0  0
 38 24  1  0  0  0  0
 40 25  1  0  0  0  0
 42 25  1  0  0  0  0
M  RAD  1   9   2
M  END
$$$$
