
     RDKit          3D

 42 44  0  0  0  0  0  0  0  0999 V2000
    0.0910    0.0029   -0.3840 S   0  0  0  0  0  0  0  0  0  0  0  0
    1.8377    0.0778   -0.2343 N   0  0  0  0  0  0  0  0  0  0  0  0
    2.2320    0.0549    1.0579 C   0  0  0  0  0  0  0  0  0  0  0  0
    1.2763   -0.0516    1.9652 N   0  0  0  0  0  0  0  0  0  0  0  0
    0.0336   -0.1011    1.4416 C   0  0  0  0  0  0  0  0  0  0  0  0
   -1.0457   -0.1859    2.1576 N   0  0  0  0  0  0  0  0  0  0  0  0
   -2.5201   -0.2384    1.4118 S   0  0  0  0  0  0  0  0  0  0  0  0
   -2.3192   -0.0957   -0.0605 O   0  0  0  0  0  0  0  0  0  0  0  0
   -3.2865   -1.3705    1.9225 O   0  0  0  0  0  0  0  0  0  0  0  0
   -3.2901    1.2645    1.9831 C   0  0  0  0  0  0  0  0  0  0  0  0
   -3.1152    2.4436    1.2584 C   0  0  0  0  0  0  0  0  0  0  0  0
   -3.7006    3.6186    1.7308 C   0  0  0  0  0  0  0  0  0  0  0  0
   -4.4575    3.6284    2.9127 C   0  0  0  0  0  0  0  0  0  0  0  0
   -4.6175    2.4224    3.6164 C   0  0  0  0  0  0  0  0  0  0  0  0
   -4.0423    1.2387    3.1592 C   0  0  0  0  0  0  0  0  0  0  0  0
   -5.1089    4.8933    3.4087 C   0  0  0  0  0  0  0  0  0  0  0  0
    3.6424    0.1294    1.4775 C   0  0  0  0  0  0  0  0  0  0  0  0
    4.6067    0.8882    0.7993 C   0  0  0  0  0  0  0  0  0  0  0  0
    5.9232    0.9626    1.2584 C   0  0  0  0  0  0  0  0  0  0  0  0
    6.2961    0.2658    2.4187 C   0  0  0  0  0  0  0  0  0  0  0  0
    5.3291   -0.4828    3.1170 C   0  0  0  0  0  0  0  0  0  0  0  0
    4.0235   -0.5397    2.6596 C   0  0  0  0  0  0  0  0  0  0  0  0
    7.5407    0.2635    2.9396 O   0  0  0  0  0  0  0  0  0  0  0  0
    8.5597    1.0014    2.2998 C   0  0  0  0  0  0  0  0  0  0  0  0
    2.6395   -0.0577   -1.4371 C   0  0  0  0  0  0  0  0  0  0  0  0
   -2.5353    2.4287    0.3345 H   0  0  0  0  0  0  0  0  0  0  0  0
   -3.5706    4.5470    1.1687 H   0  0  0  0  0  0  0  0  0  0  0  0
   -5.2066    2.4120    4.5374 H   0  0  0  0  0  0  0  0  0  0  0  0
   -4.1712    0.2967    3.6941 H   0  0  0  0  0  0  0  0  0  0  0  0
   -6.1961    4.8748    3.2202 H   0  0  0  0  0  0  0  0  0  0  0  0
   -4.6998    5.7830    2.9085 H   0  0  0  0  0  0  0  0  0  0  0  0
   -4.9720    5.0150    4.4947 H   0  0  0  0  0  0  0  0  0  0  0  0
    4.3319    1.4685   -0.0819 H   0  0  0  0  0  0  0  0  0  0  0  0
    6.6420    1.5731    0.7136 H   0  0  0  0  0  0  0  0  0  0  0  0
    5.6367   -1.0054    4.0243 H   0  0  0  0  0  0  0  0  0  0  0  0
    3.2652   -1.0995    3.2083 H   0  0  0  0  0  0  0  0  0  0  0  0
    9.4722    0.8501    2.8904 H   0  0  0  0  0  0  0  0  0  0  0  0
    8.3246    2.0800    2.2707 H   0  0  0  0  0  0  0  0  0  0  0  0
    8.7345    0.6454    1.2691 H   0  0  0  0  0  0  0  0  0  0  0  0
    2.1096   -0.7095   -2.1473 H   0  0  0  0  0  0  0  0  0  0  0  0
    3.6036   -0.5211   -1.1920 H   0  0  0  0  0  0  0  0  0  0  0  0
    2.8195    0.9145   -1.9244 H   0  0  0  0  0  0  0  0  0  0  0  0
  1  2  1  0
  1  5  1  0
  2  3  1  0
  2 25  1  0
  3  4  2  0
  3 17  1  0
  4  5  1  0
  5  6  2  0
  7  6  1  0
  7  8  2  0
  7  9  2  0
  7 10  1  0
 10 11  2  0
 10 15  1  0
 11 12  1  0
 11 26  1  0
 12 13  2  0
 12 27  1  0
 13 14  1  0
 13 16  1  0
 14 15  2  0
 14 28  1  0
 15 29  1  0
 16 30  1  0
 16 31  1  0
 16 32  1  0
 17 18  2  0
 17 22  1  0
 18 19  1  0
 18 33  1  0
 19 20  2  0
 19 34  1  0
 20 21  1  0
 20 23  1  0
 21 22  2  0
 21 35  1  0
 22 36  1  0
 23 24  1  0
 24 37  1  0
 24 38  1  0
 24 39  1  0
 25 40  1  0
 25 41  1  0
 25 42  1  0
M  END

