rmsd41.gzmat
 OpenBabel08211713403D

 42 45  0  0  0  0  0  0  0  0999 V2000
    0.0000    0.0000    0.0000 S   0  0  1  0  0  0  0  0  0  0  0  0
    1.8169    0.0000    0.0000 N   0  0  0  0  0  0  0  0  0  0  0  0
    2.3317    0.0000    1.2470 C   0  0  0  0  0  0  0  0  0  0  0  0
    1.4373   -0.0506    2.2715 N   0  0  0  0  0  0  0  0  0  0  0  0
    0.1447   -0.0675    1.8699 C   0  0  0  0  0  0  0  0  0  0  0  0
   -0.9427   -0.0941    2.5907 N   0  0  0  0  0  0  0  0  0  0  0  0
   -2.4115   -0.1105    1.7311 S   0  0  1  0  0  0  0  0  0  0  0  0
   -1.8823    0.0648    0.2943 O   0  0  0  0  0  0  0  0  0  0  0  0
   -3.2409   -1.2459    2.0069 O   0  0  0  0  0  0  0  0  0  0  0  0
   -3.2718    1.3471    2.1370 C   0  0  0  0  0  0  0  0  0  0  0  0
   -3.0208    2.5259    1.4332 C   0  0  0  0  0  0  0  0  0  0  0  0
   -3.6808    3.6998    1.7834 C   0  0  0  0  0  0  0  0  0  0  0  0
   -4.6002    3.7017    2.8371 C   0  0  0  0  0  0  0  0  0  0  0  0
   -4.8614    2.5144    3.5286 C   0  0  0  0  0  0  0  0  0  0  0  0
   -4.2007    1.3408    3.1786 C   0  0  0  0  0  0  0  0  0  0  0  0
   -5.2852    4.9626    3.2334 C   0  0  0  0  0  0  0  0  0  0  0  0
    3.7668    0.0389    1.5511 C   0  0  0  0  0  0  0  0  0  0  0  0
    4.5749    1.0451    1.0047 C   0  0  0  0  0  0  0  0  0  0  0  0
    5.9308    1.0742    1.2823 C   0  0  0  0  0  0  0  0  0  0  0  0
    6.4704    0.0850    2.1249 C   0  0  0  0  0  0  0  0  0  0  0  0
    5.6735   -0.9062    2.6995 C   0  0  0  0  0  0  0  0  0  0  0  0
    4.3104   -0.9144    2.4147 C   0  0  0  0  0  0  0  0  0  0  0  0
    7.8083    0.2234    2.2979 O   0  0  0  0  0  0  0  0  0  0  0  0
    8.4681   -0.7471    3.0995 C   0  0  0  0  0  0  0  0  0  0  0  0
    2.5951   -0.0244   -1.2242 C   0  0  0  0  0  0  0  0  0  0  0  0
   -2.3109    2.5462    0.5970 H   0  0  0  0  0  0  0  0  0  0  0  0
   -3.4775    4.6178    1.2366 H   0  0  0  0  0  0  0  0  0  0  0  0
   -5.5811    2.5081    4.3443 H   0  0  0  0  0  0  0  0  0  0  0  0
   -4.4252    0.4194    3.7299 H   0  0  0  0  0  0  0  0  0  0  0  0
   -6.2989    4.7878    3.6218 H   0  0  0  0  0  0  0  0  0  0  0  0
   -5.3814    5.6731    2.4004 H   0  0  0  0  0  0  0  0  0  0  0  0
   -4.7225    5.4768    4.0303 H   0  0  0  0  0  0  0  0  0  0  0  0
    4.1316    1.8134    0.3691 H   0  0  0  0  0  0  0  0  0  0  0  0
    6.5794    1.8428    0.8702 H   0  0  0  0  0  0  0  0  0  0  0  0
    6.0901   -1.6552    3.3641 H   0  0  0  0  0  0  0  0  0  0  0  0
    3.6560   -1.6631    2.8723 H   0  0  0  0  0  0  0  0  0  0  0  0
    9.5108   -0.4021    3.0658 H   0  0  0  0  0  0  0  0  0  0  0  0
    8.3814   -1.7434    2.6551 H   0  0  0  0  0  0  0  0  0  0  0  0
    8.0912   -0.7296    4.1271 H   0  0  0  0  0  0  0  0  0  0  0  0
    2.1279   -0.7034   -1.9640 H   0  0  0  0  0  0  0  0  0  0  0  0
    3.6270   -0.3861   -1.0544 H   0  0  0  0  0  0  0  0  0  0  0  0
    2.6513    0.9843   -1.6757 H   0  0  0  0  0  0  0  0  0  0  0  0
  1  2  1  0  0  0  0
  1  8  1  1  0  0  0
  1  5  1  0  0  0  0
  2  3  1  0  0  0  0
  3 17  1  0  0  0  0
  3  4  2  0  0  0  0
  5  4  2  0  0  0  0
  5  6  2  0  0  0  0
  7  9  1  1  0  0  0
  7 10  1  0  0  0  0
  7  6  1  0  0  0  0
  8  7  1  0  0  0  0
 10 15  2  0  0  0  0
 11 12  2  0  0  0  0
 11 10  1  0  0  0  0
 12 13  1  0  0  0  0
 13 16  1  0  0  0  0
 13 14  2  0  0  0  0
 14 28  1  0  0  0  0
 15 14  1  0  0  0  0
 15 29  1  0  0  0  0
 16 30  1  0  0  0  0
 16 32  1  0  0  0  0
 17 22  2  0  0  0  0
 18 19  2  0  0  0  0
 18 17  1  0  0  0  0
 19 20  1  0  0  0  0
 20 23  1  0  0  0  0
 20 21  2  0  0  0  0
 21 35  1  0  0  0  0
 22 21  1  0  0  0  0
 22 36  1  0  0  0  0
 23 24  1  0  0  0  0
 24 39  1  0  0  0  0
 25 41  1  0  0  0  0
 25  2  1  0  0  0  0
 26 11  1  0  0  0  0
 27 12  1  0  0  0  0
 31 16  1  0  0  0  0
 33 18  1  0  0  0  0
 34 19  1  0  0  0  0
 37 24  1  0  0  0  0
 38 24  1  0  0  0  0
 40 25  1  0  0  0  0
 42 25  1  0  0  0  0
M  RAD  1   9   2
M  END
$$$$
