42

S         -0.03160       -0.39690       -0.21170
N          1.71710       -0.27940       -0.12670
C          2.15210       -0.18110        1.14870
N          1.22310       -0.15740        2.08920
C         -0.03590       -0.24470        1.61160
N         -1.09310       -0.23940        2.36450
S         -2.59170       -0.32900        1.67200
O         -2.43320       -0.40710        0.18980
O         -3.38460       -1.34110        2.36160
C         -3.28280        1.27270        2.04110
C         -3.10980        2.32040        1.13690
C         -3.63160        3.57600        1.45130
C         -4.32220        3.79490        2.65290
C         -4.48340        2.71610        3.53990
C         -3.97190        1.45530        3.24240
C         -4.89770        5.14680        2.98720
C          3.57590       -0.08510        1.51570
C          3.92100        0.65800        2.66410
C          5.23990        0.75960        3.07330
C          6.25930        0.10030        2.35960
C          5.92610       -0.66920        1.23370
C          4.59460       -0.75430        0.82270
O          7.51310        0.25540        2.83310
C          8.58430       -0.39040        2.17910
C          2.45900       -0.10210       -1.36210
H         -2.58240        2.14210        0.19880
H         -3.50410        4.40230        0.74720
H         -5.02370        2.86840        4.47820
H         -4.10340        0.61080        3.92030
H         -6.00030        5.11660        2.98780
H         -4.58330        5.91180        2.26280
H         -4.58450        5.47600        3.99100
H          3.12450        1.14640        3.22670
H          5.51860        1.33990        3.95430
H          6.68890       -1.21460        0.67970
H          4.35570       -1.38950       -0.03070
H          9.49410       -0.12240        2.73140
H          8.68570       -0.05280        1.13250
H          8.46620       -1.48830        2.19110
H          1.83860        0.46320       -2.07290
H          2.72520       -1.06680       -1.82420
H          3.37550        0.46970       -1.16880
