42
rmsd151.gzmat
S          0.00000        0.00000        0.00000
N          1.81770        0.00000        0.00000
C          2.33130        0.00000        1.24680
N          1.43600       -0.03850        2.27160
C          0.14390       -0.04420        1.87080
N         -0.94510       -0.04410        2.59060
S         -2.41100       -0.07570        1.72740
O         -1.87560        0.07090        0.28840
O         -3.24060       -1.20630        2.02280
C         -3.28670        1.38590        2.08570
C         -2.97520        2.57180        1.41850
C         -3.66710        3.74170        1.71690
C         -4.67920        3.73370        2.68200
C         -4.99660        2.54100        3.33920
C         -4.30370        1.37150        3.04150
C         -5.40360        4.98970        3.01950
C          3.76540        0.03200        1.55860
C          4.57090        1.05740        1.06400
C          5.92860        1.09370        1.37000
C          6.45700        0.09040        2.18480
C          5.65410       -0.93920        2.70720
C          4.30450       -0.95500        2.39730
O          7.75630       -0.01570        2.55980
C          8.64720        1.00270        2.12370
C          2.59190       -0.00900       -1.22690
H         -2.19380        2.60170        0.64970
H         -3.41880        4.66440        1.19750
H         -5.78700        2.52730        4.08590
H         -4.57310        0.44510        3.56420
H         -6.42830        4.80500        3.37280
H         -5.47950        5.67710        2.16500
H         -4.88360        5.53590        3.82390
H          4.13510        1.84330        0.44580
H          6.54810        1.89450        0.98380
H          6.09790       -1.69670        3.34910
H          3.64680       -1.72620        2.81000
H          9.60560        0.66640        2.54300
H          8.36510        1.97270        2.54570
H          8.70070        1.03670        1.03120
H          2.15460       -0.72400       -1.95230
H          3.64150       -0.31390       -1.05670
H          2.59310        0.99300       -1.69700
