rmsd96.gzmat
 OpenBabel08211713403D

 42 45  0  0  0  0  0  0  0  0999 V2000
    0.0000    0.0000    0.0000 S   0  0  2  0  0  0  0  0  0  0  0  0
    1.8179    0.0000    0.0000 N   0  0  0  0  0  0  0  0  0  0  0  0
    2.3322    0.0000    1.2471 C   0  0  0  0  0  0  0  0  0  0  0  0
    1.4357    0.0068    2.2712 N   0  0  0  0  0  0  0  0  0  0  0  0
    0.1432    0.0150    1.8699 C   0  0  0  0  0  0  0  0  0  0  0  0
   -0.9433    0.0080    2.5927 N   0  0  0  0  0  0  0  0  0  0  0  0
   -2.4125    0.0111    1.7344 S   0  0  1  0  0  0  0  0  0  0  0  0
   -3.2804    1.1037    2.0554 O   0  0  0  0  0  0  0  0  0  0  0  0
   -1.8863   -0.0885    0.2899 O   0  0  0  0  0  0  0  0  0  0  0  0
   -3.2070   -1.4978    2.0907 C   0  0  0  0  0  0  0  0  0  0  0  0
   -3.7444   -1.7164    3.3605 C   0  0  0  0  0  0  0  0  0  0  0  0
   -4.3460   -2.9341    3.6608 C   0  0  0  0  0  0  0  0  0  0  0  0
   -4.4182   -3.9411    2.6924 C   0  0  0  0  0  0  0  0  0  0  0  0
   -3.8906   -3.7128    1.4184 C   0  0  0  0  0  0  0  0  0  0  0  0
   -3.2866   -2.4949    1.1185 C   0  0  0  0  0  0  0  0  0  0  0  0
   -5.0412   -5.2505    3.0299 C   0  0  0  0  0  0  0  0  0  0  0  0
    3.7656   -0.0368    1.5610 C   0  0  0  0  0  0  0  0  0  0  0  0
    4.6446    0.9057    1.0118 C   0  0  0  0  0  0  0  0  0  0  0  0
    5.9960    0.8510    1.3098 C   0  0  0  0  0  0  0  0  0  0  0  0
    6.4587   -0.1539    2.1790 C   0  0  0  0  0  0  0  0  0  0  0  0
    5.5914   -1.0838    2.7540 C   0  0  0  0  0  0  0  0  0  0  0  0
    4.2361   -1.0109    2.4449 C   0  0  0  0  0  0  0  0  0  0  0  0
    7.8003   -0.1027    2.3723 O   0  0  0  0  0  0  0  0  0  0  0  0
    8.3693   -1.0562    3.2600 C   0  0  0  0  0  0  0  0  0  0  0  0
    2.5941   -0.0391   -1.2254 C   0  0  0  0  0  0  0  0  0  0  0  0
   -3.6983   -0.9423    4.1354 H   0  0  0  0  0  0  0  0  0  0  0  0
   -4.7590   -3.1055    4.6523 H   0  0  0  0  0  0  0  0  0  0  0  0
   -3.9491   -4.4890    0.6592 H   0  0  0  0  0  0  0  0  0  0  0  0
   -2.8769   -2.3379    0.1121 H   0  0  0  0  0  0  0  0  0  0  0  0
   -5.2675   -5.8596    2.1441 H   0  0  0  0  0  0  0  0  0  0  0  0
   -5.9855   -5.1290    3.5810 H   0  0  0  0  0  0  0  0  0  0  0  0
   -4.3716   -5.8505    3.6677 H   0  0  0  0  0  0  0  0  0  0  0  0
    4.2610    1.6921    0.3591 H   0  0  0  0  0  0  0  0  0  0  0  0
    6.6990    1.5680    0.8932 H   0  0  0  0  0  0  0  0  0  0  0  0
    5.9481   -1.8477    3.4357 H   0  0  0  0  0  0  0  0  0  0  0  0
    3.5295   -1.7113    2.8999 H   0  0  0  0  0  0  0  0  0  0  0  0
    9.4371   -0.7995    3.2214 H   0  0  0  0  0  0  0  0  0  0  0  0
    8.2088   -2.0761    2.8972 H   0  0  0  0  0  0  0  0  0  0  0  0
    7.9806   -0.9240    4.2748 H   0  0  0  0  0  0  0  0  0  0  0  0
    2.1097   -0.6991   -1.9707 H   0  0  0  0  0  0  0  0  0  0  0  0
    3.6166   -0.4283   -1.0599 H   0  0  0  0  0  0  0  0  0  0  0  0
    2.6736    0.9724   -1.6692 H   0  0  0  0  0  0  0  0  0  0  0  0
  1  2  1  0  0  0  0
  1  9  1  1  0  0  0
  1  5  1  0  0  0  0
  2  3  1  0  0  0  0
  3 17  1  0  0  0  0
  3  4  2  0  0  0  0
  5  4  2  0  0  0  0
  5  6  2  0  0  0  0
  7  8  1  1  0  0  0
  7 10  1  0  0  0  0
  7  6  1  0  0  0  0
  9  7  1  0  0  0  0
 10 11  2  0  0  0  0
 11 12  1  0  0  0  0
 11 26  1  0  0  0  0
 12 27  1  0  0  0  0
 13 16  1  0  0  0  0
 13 12  2  0  0  0  0
 14 13  1  0  0  0  0
 15 14  2  0  0  0  0
 15 10  1  0  0  0  0
 16 31  1  0  0  0  0
 16 32  1  0  0  0  0
 17 22  2  0  0  0  0
 18 19  2  0  0  0  0
 18 17  1  0  0  0  0
 19 20  1  0  0  0  0
 20 23  1  0  0  0  0
 20 21  2  0  0  0  0
 21 35  1  0  0  0  0
 22 21  1  0  0  0  0
 22 36  1  0  0  0  0
 23 24  1  0  0  0  0
 24 39  1  0  0  0  0
 25 41  1  0  0  0  0
 25  2  1  0  0  0  0
 28 14  1  0  0  0  0
 29 15  1  0  0  0  0
 30 16  1  0  0  0  0
 33 18  1  0  0  0  0
 34 19  1  0  0  0  0
 37 24  1  0  0  0  0
 38 24  1  0  0  0  0
 40 25  1  0  0  0  0
 42 25  1  0  0  0  0
M  RAD  1   8   2
M  END
$$$$
