42

S          0.09100        0.00290       -0.38400
N          1.83770        0.07780       -0.23430
C          2.23200        0.05490        1.05790
N          1.27630       -0.05160        1.96520
C          0.03360       -0.10110        1.44160
N         -1.04570       -0.18590        2.15760
S         -2.52010       -0.23840        1.41180
O         -2.31920       -0.09570       -0.06050
O         -3.28650       -1.37050        1.92250
C         -3.29010        1.26450        1.98310
C         -3.11520        2.44360        1.25840
C         -3.70060        3.61860        1.73080
C         -4.45750        3.62840        2.91270
C         -4.61750        2.42240        3.61640
C         -4.04230        1.23870        3.15920
C         -5.10890        4.89330        3.40870
C          3.64240        0.12940        1.47750
C          4.60670        0.88820        0.79930
C          5.92320        0.96260        1.25840
C          6.29610        0.26580        2.41870
C          5.32910       -0.48280        3.11700
C          4.02350       -0.53970        2.65960
O          7.54070        0.26350        2.93960
C          8.55970        1.00140        2.29980
C          2.63950       -0.05770       -1.43710
H         -2.53530        2.42870        0.33450
H         -3.57060        4.54700        1.16870
H         -5.20660        2.41200        4.53740
H         -4.17120        0.29670        3.69410
H         -6.19610        4.87480        3.22020
H         -4.69980        5.78300        2.90850
H         -4.97200        5.01500        4.49470
H          4.33190        1.46850       -0.08190
H          6.64200        1.57310        0.71360
H          5.63670       -1.00540        4.02430
H          3.26520       -1.09950        3.20830
H          9.47220        0.85010        2.89040
H          8.32460        2.08000        2.27070
H          8.73450        0.64540        1.26910
H          2.10960       -0.70950       -2.14730
H          3.60360       -0.52110       -1.19200
H          2.81950        0.91450       -1.92440
