rmsd133.gzmat
 OpenBabel08211713403D

 42 45  0  0  0  0  0  0  0  0999 V2000
    0.0000    0.0000    0.0000 S   0  0  1  0  0  0  0  0  0  0  0  0
    1.8187    0.0000    0.0000 N   0  0  0  0  0  0  0  0  0  0  0  0
    2.3339    0.0000    1.2462 C   0  0  0  0  0  0  0  0  0  0  0  0
    1.4362   -0.0537    2.2699 N   0  0  0  0  0  0  0  0  0  0  0  0
    0.1450   -0.0729    1.8680 C   0  0  0  0  0  0  0  0  0  0  0  0
   -0.9434   -0.1044    2.5883 N   0  0  0  0  0  0  0  0  0  0  0  0
   -2.4089   -0.1377    1.7254 S   0  0  1  0  0  0  0  0  0  0  0  0
   -1.8765    0.0660    0.2923 O   0  0  0  0  0  0  0  0  0  0  0  0
   -3.2170   -1.2939    1.9788 O   0  0  0  0  0  0  0  0  0  0  0  0
   -3.3122    1.2916    2.1414 C   0  0  0  0  0  0  0  0  0  0  0  0
   -3.0078    2.5137    1.5396 C   0  0  0  0  0  0  0  0  0  0  0  0
   -3.7312    3.6541    1.8746 C   0  0  0  0  0  0  0  0  0  0  0  0
   -4.7668    3.5806    2.8116 C   0  0  0  0  0  0  0  0  0  0  0  0
   -5.0682    2.3548    3.4131 C   0  0  0  0  0  0  0  0  0  0  0  0
   -4.3444    1.2144    3.0777 C   0  0  0  0  0  0  0  0  0  0  0  0
   -5.5340    4.8033    3.1752 C   0  0  0  0  0  0  0  0  0  0  0  0
    3.7639    0.0468    1.5722 C   0  0  0  0  0  0  0  0  0  0  0  0
    4.5971    0.9993    0.9857 C   0  0  0  0  0  0  0  0  0  0  0  0
    5.9481    1.0523    1.3181 C   0  0  0  0  0  0  0  0  0  0  0  0
    6.4407    0.1491    2.2617 C   0  0  0  0  0  0  0  0  0  0  0  0
    5.6107   -0.8053    2.8766 C   0  0  0  0  0  0  0  0  0  0  0  0
    4.2711   -0.8457    2.5298 C   0  0  0  0  0  0  0  0  0  0  0  0
    7.7253    0.0816    2.6913 O   0  0  0  0  0  0  0  0  0  0  0  0
    8.6386    1.0418    2.1770 C   0  0  0  0  0  0  0  0  0  0  0  0
    2.5864   -0.0172   -1.2303 C   0  0  0  0  0  0  0  0  0  0  0  0
   -2.2071    2.5947    0.7949 H   0  0  0  0  0  0  0  0  0  0  0  0
   -3.4909    4.6052    1.4054 H   0  0  0  0  0  0  0  0  0  0  0  0
   -5.8709    2.2915    4.1442 H   0  0  0  0  0  0  0  0  0  0  0  0
   -4.6033    0.2607    3.5548 H   0  0  0  0  0  0  0  0  0  0  0  0
   -6.5684    4.5807    3.4740 H   0  0  0  0  0  0  0  0  0  0  0  0
   -5.5910    5.5271    2.3498 H   0  0  0  0  0  0  0  0  0  0  0  0
   -5.0607    5.3231    4.0244 H   0  0  0  0  0  0  0  0  0  0  0  0
    4.1892    1.7195    0.2750 H   0  0  0  0  0  0  0  0  0  0  0  0
    6.5896    1.7910    0.8521 H   0  0  0  0  0  0  0  0  0  0  0  0
    6.0252   -1.4838    3.6192 H   0  0  0  0  0  0  0  0  0  0  0  0
    3.5926   -1.5599    3.0083 H   0  0  0  0  0  0  0  0  0  0  0  0
    9.5582    0.8048    2.7303 H   0  0  0  0  0  0  0  0  0  0  0  0
    8.3096    2.0608    2.4032 H   0  0  0  0  0  0  0  0  0  0  0  0
    8.7890    0.8973    1.1029 H   0  0  0  0  0  0  0  0  0  0  0  0
    2.1251   -0.7112   -1.9611 H   0  0  0  0  0  0  0  0  0  0  0  0
    3.6265   -0.3582   -1.0688 H   0  0  0  0  0  0  0  0  0  0  0  0
    2.6141    0.9894   -1.6890 H   0  0  0  0  0  0  0  0  0  0  0  0
  1  2  1  0  0  0  0
  1  8  1  1  0  0  0
  1  5  1  0  0  0  0
  2  3  1  0  0  0  0
  3 17  1  0  0  0  0
  3  4  2  0  0  0  0
  5  4  2  0  0  0  0
  5  6  2  0  0  0  0
  7  9  1  1  0  0  0
  7 10  1  0  0  0  0
  7  6  1  0  0  0  0
  8  7  1  0  0  0  0
 10 15  2  0  0  0  0
 11 12  2  0  0  0  0
 11 10  1  0  0  0  0
 12 13  1  0  0  0  0
 13 16  1  0  0  0  0
 13 14  2  0  0  0  0
 14 28  1  0  0  0  0
 15 14  1  0  0  0  0
 15 29  1  0  0  0  0
 16 30  1  0  0  0  0
 16 32  1  0  0  0  0
 17 22  2  0  0  0  0
 18 19  2  0  0  0  0
 18 17  1  0  0  0  0
 19 20  1  0  0  0  0
 20 23  1  0  0  0  0
 20 21  2  0  0  0  0
 21 35  1  0  0  0  0
 22 21  1  0  0  0  0
 22 36  1  0  0  0  0
 24 38  1  0  0  0  0
 24 23  1  0  0  0  0
 24 37  1  0  0  0  0
 25 41  1  0  0  0  0
 25  2  1  0  0  0  0
 26 11  1  0  0  0  0
 27 12  1  0  0  0  0
 31 16  1  0  0  0  0
 33 18  1  0  0  0  0
 34 19  1  0  0  0  0
 39 24  1  0  0  0  0
 40 25  1  0  0  0  0
 42 25  1  0  0  0  0
M  RAD  1   9   2
M  END
$$$$
