39
rmsd168.gzmat
S          0.00000        0.00000        0.00000
O          1.43690        0.00000        0.00000
O         -0.73980        0.00000       -1.24350
C         -0.61910        1.22640        1.05900
C          0.06600        1.55310        2.23300
C         -0.41510        2.55260        3.06640
C         -1.59600        3.24070        2.72500
C         -2.28860        2.90880        1.55100
C         -1.79280        1.90590        0.72700
N         -2.03760        4.22960        3.62830
C         -2.93220        5.24510        3.31080
O         -3.47550        5.32590        2.23180
C         -3.26710        6.20730        4.41030
C         -4.63400        6.41730        4.60880
C         -5.07380        7.33710        5.55860
C         -4.14960        8.06510        6.30490
C         -2.78540        7.86730        6.10480
C         -2.34430        6.93000        5.16690
C         -0.88480        6.74060        5.05040
O         -0.26570        5.70450        5.09980
O         -0.24730        7.92540        4.93360
N         -0.52200       -1.54520        0.69120
C         -0.32140       -1.92580        2.01230
O          0.14890       -1.14350        2.81040
C         -0.73210       -3.32480        2.37550
H          0.99030        1.02550        2.51300
H          0.12520        2.80530        3.97720
H         -3.20620        3.43000        1.27500
H         -2.33950        1.66390       -0.19440
H         -1.50820        4.30930        4.50550
H         -5.35950        5.86600        4.00280
H         -6.14240        7.49270        5.70960
H         -4.49120        8.79310        7.04050
H         -2.05880        8.44810        6.67840
H          0.74130        7.83400        4.85810
H         -0.92220       -2.21650        0.04050
H         -0.09530       -4.07250        1.88240
H         -1.77560       -3.53760        2.11360
H         -0.63030       -3.48040        3.46200
