
     RDKit          3D

 39 40  0  0  0  0  0  0  0  0999 V2000
   -0.0620   -0.0746    0.0184 S   0  0  0  0  0  0  0  0  0  0  0  0
    1.3939   -0.0392   -0.0985 O   0  0  0  0  0  0  0  0  0  0  0  0
   -0.9410   -0.0501   -1.1481 O   0  0  0  0  0  0  0  0  0  0  0  0
   -0.5564    1.2100    1.1435 C   0  0  0  0  0  0  0  0  0  0  0  0
    0.4113    1.9457    1.8285 C   0  0  0  0  0  0  0  0  0  0  0  0
    0.0266    2.9533    2.7120 C   0  0  0  0  0  0  0  0  0  0  0  0
   -1.3411    3.2275    2.9032 C   0  0  0  0  0  0  0  0  0  0  0  0
   -2.3059    2.4800    2.1910 C   0  0  0  0  0  0  0  0  0  0  0  0
   -1.9197    1.4806    1.3107 C   0  0  0  0  0  0  0  0  0  0  0  0
   -1.8274    4.2160    3.7600 N   0  0  0  0  0  0  0  0  0  0  0  0
   -1.1228    4.9951    4.6322 C   0  0  0  0  0  0  0  0  0  0  0  0
    0.0934    4.9615    4.7399 O   0  0  0  0  0  0  0  0  0  0  0  0
   -1.9077    6.0060    5.4667 C   0  0  0  0  0  0  0  0  0  0  0  0
   -1.1127    7.0990    5.8509 C   0  0  0  0  0  0  0  0  0  0  0  0
   -1.5948    8.1240    6.6601 C   0  0  0  0  0  0  0  0  0  0  0  0
   -2.8992    8.0620    7.1494 C   0  0  0  0  0  0  0  0  0  0  0  0
   -3.6996    6.9744    6.8153 C   0  0  0  0  0  0  0  0  0  0  0  0
   -3.2406    5.9496    5.9640 C   0  0  0  0  0  0  0  0  0  0  0  0
   -4.2477    4.8888    5.6544 C   0  0  0  0  0  0  0  0  0  0  0  0
   -4.3536    4.2668    4.6122 O   0  0  0  0  0  0  0  0  0  0  0  0
   -5.1204    4.6949    6.6510 O   0  0  0  0  0  0  0  0  0  0  0  0
   -0.5157   -1.5182    0.8016 N   0  0  0  0  0  0  0  0  0  0  0  0
    0.0627   -2.2094    1.8724 C   0  0  0  0  0  0  0  0  0  0  0  0
   -0.4019   -3.2782    2.1997 O   0  0  0  0  0  0  0  0  0  0  0  0
    1.2307   -1.5488    2.5607 C   0  0  0  0  0  0  0  0  0  0  0  0
    1.4671    1.7304    1.6595 H   0  0  0  0  0  0  0  0  0  0  0  0
    0.7666    3.5328    3.2564 H   0  0  0  0  0  0  0  0  0  0  0  0
   -3.3658    2.6973    2.3409 H   0  0  0  0  0  0  0  0  0  0  0  0
   -2.6650    0.9147    0.7496 H   0  0  0  0  0  0  0  0  0  0  0  0
   -2.8474    4.3014    3.8013 H   0  0  0  0  0  0  0  0  0  0  0  0
   -0.0812    7.1097    5.4995 H   0  0  0  0  0  0  0  0  0  0  0  0
   -0.9451    8.9636    6.9171 H   0  0  0  0  0  0  0  0  0  0  0  0
   -3.2921    8.8495    7.7958 H   0  0  0  0  0  0  0  0  0  0  0  0
   -4.7127    6.9083    7.2100 H   0  0  0  0  0  0  0  0  0  0  0  0
   -5.7656    4.0376    6.3367 H   0  0  0  0  0  0  0  0  0  0  0  0
   -1.2901   -1.9919    0.3389 H   0  0  0  0  0  0  0  0  0  0  0  0
    0.9261   -0.5819    2.9914 H   0  0  0  0  0  0  0  0  0  0  0  0
    2.0380   -1.3472    1.8429 H   0  0  0  0  0  0  0  0  0  0  0  0
    1.5762   -2.2149    3.3595 H   0  0  0  0  0  0  0  0  0  0  0  0
  1  2  2  0
  1  3  2  0
  1  4  1  0
  1 22  1  0
  4  5  2  0
  4  9  1  0
  5  6  1  0
  5 26  1  0
  6  7  2  0
  6 27  1  0
  7  8  1  0
  7 10  1  0
  8  9  2  0
  8 28  1  0
  9 29  1  0
 10 11  1  0
 10 30  1  0
 11 12  2  0
 11 13  1  0
 13 14  2  0
 13 18  1  0
 14 15  1  0
 14 31  1  0
 15 16  2  0
 15 32  1  0
 16 17  1  0
 16 33  1  0
 17 18  2  0
 17 34  1  0
 18 19  1  0
 19 20  2  0
 19 21  1  0
 21 35  1  0
 22 23  1  0
 22 36  1  0
 23 24  2  0
 23 25  1  0
 25 37  1  0
 25 38  1  0
 25 39  1  0
M  END

