
     RDKit          3D

 39 40  0  0  0  0  0  0  0  0999 V2000
    0.0257   -0.0948    0.0092 S   0  0  0  0  0  0  0  0  0  0  0  0
    1.4801   -0.1053    0.0665 O   0  0  0  0  0  0  0  0  0  0  0  0
   -0.7028   -0.1059   -1.2602 O   0  0  0  0  0  0  0  0  0  0  0  0
   -0.5883    1.2175    1.0320 C   0  0  0  0  0  0  0  0  0  0  0  0
    0.1756    1.6638    2.1150 C   0  0  0  0  0  0  0  0  0  0  0  0
   -0.3205    2.6949    2.9005 C   0  0  0  0  0  0  0  0  0  0  0  0
   -1.5709    3.2843    2.6162 C   0  0  0  0  0  0  0  0  0  0  0  0
   -2.3219    2.8271    1.5152 C   0  0  0  0  0  0  0  0  0  0  0  0
   -1.8236    1.7929    0.7266 C   0  0  0  0  0  0  0  0  0  0  0  0
   -1.9853    4.3094    3.4711 N   0  0  0  0  0  0  0  0  0  0  0  0
   -3.0949    5.0958    3.3702 C   0  0  0  0  0  0  0  0  0  0  0  0
   -3.9469    4.9628    2.5043 O   0  0  0  0  0  0  0  0  0  0  0  0
   -3.3050    6.1602    4.4472 C   0  0  0  0  0  0  0  0  0  0  0  0
   -4.6629    6.4832    4.6096 C   0  0  0  0  0  0  0  0  0  0  0  0
   -5.0948    7.4667    5.4949 C   0  0  0  0  0  0  0  0  0  0  0  0
   -4.1585    8.1967    6.2269 C   0  0  0  0  0  0  0  0  0  0  0  0
   -2.8045    7.9242    6.0614 C   0  0  0  0  0  0  0  0  0  0  0  0
   -2.3537    6.9034    5.2009 C   0  0  0  0  0  0  0  0  0  0  0  0
   -0.8730    6.6953    5.1910 C   0  0  0  0  0  0  0  0  0  0  0  0
   -0.2885    5.6363    5.0520 O   0  0  0  0  0  0  0  0  0  0  0  0
   -0.1887    7.8241    5.4180 O   0  0  0  0  0  0  0  0  0  0  0  0
   -0.5639   -1.5209    0.7680 N   0  0  0  0  0  0  0  0  0  0  0  0
   -0.1833   -1.9751    2.0210 C   0  0  0  0  0  0  0  0  0  0  0  0
    0.5338   -1.3306    2.7540 O   0  0  0  0  0  0  0  0  0  0  0  0
   -0.7528   -3.3347    2.3781 C   0  0  0  0  0  0  0  0  0  0  0  0
    1.1332    1.1932    2.3333 H   0  0  0  0  0  0  0  0  0  0  0  0
    0.2626    3.0632    3.7476 H   0  0  0  0  0  0  0  0  0  0  0  0
   -3.2767    3.2938    1.2911 H   0  0  0  0  0  0  0  0  0  0  0  0
   -2.3844    1.4367   -0.1389 H   0  0  0  0  0  0  0  0  0  0  0  0
   -1.3272    4.5500    4.2177 H   0  0  0  0  0  0  0  0  0  0  0  0
   -5.3786    5.9380    3.9947 H   0  0  0  0  0  0  0  0  0  0  0  0
   -6.1627    7.6700    5.6013 H   0  0  0  0  0  0  0  0  0  0  0  0
   -4.4763    8.9814    6.9167 H   0  0  0  0  0  0  0  0  0  0  0  0
   -2.0654    8.5035    6.6136 H   0  0  0  0  0  0  0  0  0  0  0  0
    0.7526    7.5794    5.4522 H   0  0  0  0  0  0  0  0  0  0  0  0
   -1.1846   -2.0558    0.1666 H   0  0  0  0  0  0  0  0  0  0  0  0
   -0.3316   -4.1080    1.7157 H   0  0  0  0  0  0  0  0  0  0  0  0
   -1.8481   -3.3487    2.2622 H   0  0  0  0  0  0  0  0  0  0  0  0
   -0.4883   -3.5636    3.4173 H   0  0  0  0  0  0  0  0  0  0  0  0
  1  2  2  0
  1  3  2  0
  1  4  1  0
  1 22  1  0
  4  5  2  0
  4  9  1  0
  5  6  1  0
  5 26  1  0
  6  7  2  0
  6 27  1  0
  7  8  1  0
  7 10  1  0
  8  9  2  0
  8 28  1  0
  9 29  1  0
 10 11  1  0
 10 30  1  0
 11 12  2  0
 11 13  1  0
 13 14  2  0
 13 18  1  0
 14 15  1  0
 14 31  1  0
 15 16  2  0
 15 32  1  0
 16 17  1  0
 16 33  1  0
 17 18  2  0
 17 34  1  0
 18 19  1  0
 19 20  2  0
 19 21  1  0
 21 35  1  0
 22 23  1  0
 22 36  1  0
 23 24  2  0
 23 25  1  0
 25 37  1  0
 25 38  1  0
 25 39  1  0
M  END

