39
rmsd246.gzmat
S          0.00000        0.00000        0.00000
O          1.44150        0.00000        0.00000
O         -0.77640        0.00000       -1.21490
C         -0.59680        1.26430        1.04150
C          0.10530        1.60990        2.19820
C         -0.37270        2.60710        3.03490
C         -1.57070        3.27730        2.71280
C         -2.26640        2.94280        1.54100
C         -1.77170        1.94230        0.71390
N         -1.98520        4.30230        3.58440
C         -3.28490        4.79770        3.65080
O         -4.16770        4.40360        2.92280
C         -3.52250        5.92320        4.60950
C         -4.17130        7.02980        4.05650
C         -4.50340        8.12220        4.85530
C         -4.20480        8.10720        6.21580
C         -3.56790        7.00160        6.77530
C         -3.21470        5.91480        5.97060
C         -2.49770        4.80240        6.62460
O         -1.47910        4.26210        6.26300
O         -3.09630        4.44920        7.78210
N         -0.39160       -1.47350        0.86210
C         -1.63350       -2.11540        0.95950
O         -1.66470       -3.19040        1.51870
C         -2.84930       -1.44010        0.41000
H          1.04250        1.10390        2.46090
H          0.17140        2.86550        3.94210
H         -3.18920        3.45940        1.27140
H         -2.32070        1.70350       -0.20760
H         -1.33740        4.54820        4.34410
H         -4.43140        7.02930        2.99370
H         -5.00490        8.98480        4.41450
H         -4.47360        8.95590        6.84500
H         -3.34920        6.98100        7.84590
H         -2.63510        3.70120        8.25160
H          0.40160       -2.01500        1.22500
H         -2.74770       -1.19820       -0.66410
H         -3.09330       -0.51340        0.94670
H         -3.72480       -2.10420        0.50340
