39
rmsd136.gzmat
S          0.00000        0.00000        0.00000
O          1.43720        0.00000        0.00000
O         -0.73860        0.00000       -1.24390
C         -0.62290        1.21590        1.06670
C          0.08620        1.56790        2.21930
C         -0.42020        2.52630        3.08480
C         -1.65830        3.14010        2.80550
C         -2.36030        2.80090        1.63920
C         -1.83610        1.84380        0.77960
N         -2.13260        4.05940        3.76170
C         -3.27250        4.84320        3.62740
O         -3.99010        4.80310        2.65380
C         -3.64320        5.68150        4.81390
C         -4.96610        5.53580        5.23900
C         -5.45130        6.29580        6.30130
C         -4.62330        7.22220        6.93120
C         -3.30750        7.38170        6.50290
C         -2.81320        6.60120        5.45420
C         -1.39300        6.78220        5.09520
O         -0.54460        5.93030        4.98190
O         -1.08960        8.09020        4.94970
N         -0.52530       -1.54260        0.69710
C         -0.37860       -1.88970        2.03360
O          0.07350       -1.09040        2.82610
C         -0.81380       -3.27280        2.42660
H          1.04620        1.08730        2.45920
H          0.13860        2.79490        3.97910
H         -3.31070        3.27780        1.39470
H         -2.39420        1.59420       -0.13280
H         -1.50450        4.25760        4.55100
H         -5.62510        4.83050        4.72370
H         -6.48270        6.17050        6.63210
H         -5.00420        7.82640        7.75430
H         -2.66200        8.12000        6.98410
H         -0.13630        8.24800        4.71060
H         -0.90220       -2.22750        0.04750
H          0.02940       -3.97570        2.34800
H         -1.64140       -3.66460        1.82600
H         -1.13510       -3.28300        3.48090
