39

S          0.28810       -0.08160        0.19380
O          1.70410       -0.25790        0.51700
O         -0.17270        0.16480       -1.16460
C         -0.41480        1.13970        1.27320
C          0.26590        1.48280        2.44320
C         -0.26500        2.44460        3.29910
C         -1.48600        3.06490        2.97100
C         -2.15390        2.70750        1.78290
C         -1.62510        1.74820        0.92950
N         -2.08080        4.04400        3.77480
C         -1.67610        4.51150        5.00740
O         -0.68380        4.13830        5.59920
C         -2.55630        5.61430        5.54520
C         -2.68310        6.79560        4.80280
C         -3.35780        7.90070        5.32870
C         -3.90730        7.83620        6.61060
C         -3.79200        6.66180        7.35490
C         -3.13650        5.54290        6.82750
C         -3.12400        4.30770        7.67060
O         -3.19830        4.30610        8.87480
O         -3.08990        3.17890        6.93800
N         -0.39160       -1.55980        0.74700
C         -1.73510       -1.89510        0.67510
O         -2.58110       -1.10330        0.32210
C         -2.03280       -3.32530        1.08050
H          1.21900        1.00370        2.67210
H          0.24710        2.72700        4.21480
H         -3.10140        3.19060        1.52940
H         -2.13960        1.45470        0.01560
H         -2.96840        4.40250        3.44180
H         -2.21800        6.86180        3.81620
H         -3.44000        8.81700        4.73960
H         -4.42670        8.70000        7.03110
H         -4.21850        6.58470        8.35650
H         -3.03820        2.43590        7.56300
H          0.31330       -2.22110        1.06170
H         -1.58300       -3.56620        2.05650
H         -1.61730       -4.02160        0.33420
H         -3.12030       -3.45670        1.13080
