39
rmsd10.gzmat
S          0.00000        0.00000        0.00000
O          1.44630        0.00000        0.00000
O         -0.73460        0.00000       -1.23520
C         -0.59800        1.22430        1.07290
C          0.26640        1.84810        1.97520
C         -0.20500        2.81510        2.85320
C         -1.56340        3.16840        2.82780
C         -2.43390        2.55520        1.90470
C         -1.94760        1.58590        1.03850
N         -2.11240        4.15600        3.66810
C         -1.52190        4.60790        4.85030
O         -0.42730        4.25830        5.22010
C         -2.31510        5.64990        5.57680
C         -1.90320        6.97340        5.42710
C         -2.55760        7.98610        6.12710
C         -3.61210        7.67650        6.98450
C         -4.02020        6.35370        7.13850
C         -3.37730        5.33870        6.42450
C         -3.86680        3.96380        6.63870
O         -4.39520        3.51050        7.61820
O         -3.68910        3.20240        5.52590
N         -0.33620       -1.53450        0.81590
C         -1.56560       -1.88000        1.36440
O         -2.48040       -1.08400        1.36470
C         -1.66860       -3.25740        1.95510
H          1.33320        1.58690        2.00180
H          0.48360        3.28670        3.55640
H         -3.48660        2.82280        1.87600
H         -2.64270        1.10200        0.33610
H         -3.09670        4.38450        3.51800
H         -1.06360        7.21440        4.77180
H         -2.23740        9.02160        6.00800
H         -4.11540        8.46770        7.54010
H         -4.83720        6.10390        7.82190
H         -3.97940        2.26030        5.63750
H          0.41620       -2.21840        0.82250
H         -0.88260       -3.45560        2.69510
H         -1.61320       -4.03360        1.17870
H         -2.63730       -3.38170        2.46660
