rmsd141.gzmat
 OpenBabel08211713383D

 39 40  0  0  0  0  0  0  0  0999 V2000
    0.0000    0.0000    0.0000 S   0  0  0  0  0  0  0  0  0  0  0  0
    1.4413    0.0000    0.0000 O   0  0  0  0  0  0  0  0  0  0  0  0
   -0.7732    0.0000   -1.2170 O   0  0  0  0  0  0  0  0  0  0  0  0
   -0.6112    1.2593    1.0396 C   0  0  0  0  0  0  0  0  0  0  0  0
   -0.0129    1.5066    2.2772 C   0  0  0  0  0  0  0  0  0  0  0  0
   -0.5192    2.4888    3.1147 C   0  0  0  0  0  0  0  0  0  0  0  0
   -1.6366    3.2493    2.7096 C   0  0  0  0  0  0  0  0  0  0  0  0
   -2.2186    3.0208    1.4536 C   0  0  0  0  0  0  0  0  0  0  0  0
   -1.7013    2.0286    0.6301 C   0  0  0  0  0  0  0  0  0  0  0  0
   -2.0883    4.2392    3.6019 N   0  0  0  0  0  0  0  0  0  0  0  0
   -3.3250    4.8739    3.5212 C   0  0  0  0  0  0  0  0  0  0  0  0
   -4.1125    4.6560    2.6282 O   0  0  0  0  0  0  0  0  0  0  0  0
   -3.6034    5.9239    4.5519 C   0  0  0  0  0  0  0  0  0  0  0  0
   -4.0375    7.1472    4.0346 C   0  0  0  0  0  0  0  0  0  0  0  0
   -4.3857    8.1889    4.8925 C   0  0  0  0  0  0  0  0  0  0  0  0
   -4.3224    8.0068    6.2722 C   0  0  0  0  0  0  0  0  0  0  0  0
   -3.9019    6.7850    6.7936 C   0  0  0  0  0  0  0  0  0  0  0  0
   -3.5264    5.7491    5.9343 C   0  0  0  0  0  0  0  0  0  0  0  0
   -3.0295    4.5076    6.5597 C   0  0  0  0  0  0  0  0  0  0  0  0
   -2.0116    3.9077    6.3057 O   0  0  0  0  0  0  0  0  0  0  0  0
   -3.8436    4.1004    7.5560 O   0  0  0  0  0  0  0  0  0  0  0  0
   -0.3882   -1.4744    0.8633 N   0  0  0  0  0  0  0  0  0  0  0  0
   -1.6463   -2.0640    1.0432 C   0  0  0  0  0  0  0  0  0  0  0  0
   -1.6850   -3.1482    1.5835 O   0  0  0  0  0  0  0  0  0  0  0  0
   -2.8681   -1.3209    0.6038 C   0  0  0  0  0  0  0  0  0  0  0  0
    0.8606    0.9312    2.6061 H   0  0  0  0  0  0  0  0  0  0  0  0
   -0.0609    2.6654    4.0864 H   0  0  0  0  0  0  0  0  0  0  0  0
   -3.0723    3.6109    1.1144 H   0  0  0  0  0  0  0  0  0  0  0  0
   -2.1667    1.8657   -0.3523 H   0  0  0  0  0  0  0  0  0  0  0  0
   -1.5436    4.3579    4.4666 H   0  0  0  0  0  0  0  0  0  0  0  0
   -4.1174    7.2793    2.9512 H   0  0  0  0  0  0  0  0  0  0  0  0
   -4.7171    9.1432    4.4811 H   0  0  0  0  0  0  0  0  0  0  0  0
   -4.6054    8.8168    6.9448 H   0  0  0  0  0  0  0  0  0  0  0  0
   -3.8688    6.6347    7.8758 H   0  0  0  0  0  0  0  0  0  0  0  0
   -3.5311    3.2668    8.0029 H   0  0  0  0  0  0  0  0  0  0  0  0
    0.4062   -2.0547    1.1572 H   0  0  0  0  0  0  0  0  0  0  0  0
   -2.8343   -1.0442   -0.4655 H   0  0  0  0  0  0  0  0  0  0  0  0
   -3.0329   -0.4064    1.1900 H   0  0  0  0  0  0  0  0  0  0  0  0
   -3.7625   -1.9523    0.7390 H   0  0  0  0  0  0  0  0  0  0  0  0
  1 22  1  0  0  0  0
  1  4  1  0  0  0  0
  2  1  2  0  0  0  0
  3  1  2  0  0  0  0
  4  5  1  0  0  0  0
  5 26  1  0  0  0  0
  5  6  2  0  0  0  0
  6 27  1  0  0  0  0
  7  6  1  0  0  0  0
  7 10  1  0  0  0  0
  8  7  2  0  0  0  0
  9  4  2  0  0  0  0
  9  8  1  0  0  0  0
 10 30  1  0  0  0  0
 11 10  1  0  0  0  0
 11 13  1  0  0  0  0
 12 11  2  0  0  0  0
 13 18  1  0  0  0  0
 14 13  2  0  0  0  0
 14 15  1  0  0  0  0
 15 16  2  0  0  0  0
 16 17  1  0  0  0  0
 16 33  1  0  0  0  0
 17 34  1  0  0  0  0
 18 19  1  0  0  0  0
 18 17  2  0  0  0  0
 19 21  1  0  0  0  0
 20 19  2  0  0  0  0
 21 35  1  0  0  0  0
 22 23  1  0  0  0  0
 22 36  1  0  0  0  0
 23 24  2  0  0  0  0
 25 39  1  0  0  0  0
 25 23  1  0  0  0  0
 25 38  1  0  0  0  0
 28  8  1  0  0  0  0
 29  9  1  0  0  0  0
 31 14  1  0  0  0  0
 32 15  1  0  0  0  0
 37 25  1  0  0  0  0
M  END
$$$$
