39

S          0.02570       -0.09480        0.00920
O          1.48010       -0.10530        0.06650
O         -0.70280       -0.10590       -1.26020
C         -0.58830        1.21750        1.03200
C          0.17560        1.66380        2.11500
C         -0.32050        2.69490        2.90050
C         -1.57090        3.28430        2.61620
C         -2.32190        2.82710        1.51520
C         -1.82360        1.79290        0.72660
N         -1.98530        4.30940        3.47110
C         -3.09490        5.09580        3.37020
O         -3.94690        4.96280        2.50430
C         -3.30500        6.16020        4.44720
C         -4.66290        6.48320        4.60960
C         -5.09480        7.46670        5.49490
C         -4.15850        8.19670        6.22690
C         -2.80450        7.92420        6.06140
C         -2.35370        6.90340        5.20090
C         -0.87300        6.69530        5.19100
O         -0.28850        5.63630        5.05200
O         -0.18870        7.82410        5.41800
N         -0.56390       -1.52090        0.76800
C         -0.18330       -1.97510        2.02100
O          0.53380       -1.33060        2.75400
C         -0.75280       -3.33470        2.37810
H          1.13320        1.19320        2.33330
H          0.26260        3.06320        3.74760
H         -3.27670        3.29380        1.29110
H         -2.38440        1.43670       -0.13890
H         -1.32720        4.55000        4.21770
H         -5.37860        5.93800        3.99470
H         -6.16270        7.67000        5.60130
H         -4.47630        8.98140        6.91670
H         -2.06540        8.50350        6.61360
H          0.75260        7.57940        5.45220
H         -1.18460       -2.05580        0.16660
H         -0.33160       -4.10800        1.71570
H         -1.84810       -3.34870        2.26220
H         -0.48830       -3.56360        3.41730
