39
rmsd202.gzmat
S          0.00000        0.00000        0.00000
O          1.44190        0.00000        0.00000
O         -0.77420        0.00000       -1.21580
C         -0.55190        1.26140        1.06900
C          0.37040        1.98340        1.82700
C         -0.05100        2.98240        2.69550
C         -1.41910        3.27500        2.80160
C         -2.35130        2.55800        2.02110
C         -1.91280        1.56310        1.16130
N         -1.93580        4.28940        3.62740
C         -1.20990        4.98470        4.59140
O         -0.03550        4.78100        4.79910
C         -1.93510        6.08940        5.29650
C         -1.27600        7.32090        5.28170
C         -1.81780        8.41600        5.95200
C         -3.01230        8.28150        6.65610
C         -3.67040        7.05370        6.68060
C         -3.13900        5.96090        5.98990
C         -3.91520        4.70570        6.01510
O         -4.22950        4.01120        5.07770
O         -4.31820        4.40560        7.26800
N         -0.51600       -1.47520        0.79160
C          0.03500       -2.08340        1.92730
O         -0.40180       -3.16690        2.25020
C          1.09370       -1.36120        2.69850
H          1.44710        1.77950        1.74460
H          0.68890        3.52930        3.28310
H         -3.41370        2.78310        2.09520
H         -2.65180        1.02400        0.55630
H         -2.95820        4.40140        3.62790
H         -0.32340        7.41920        4.75230
H         -1.29960        9.37560        5.93150
H         -3.43020        9.13320        7.19310
H         -4.60040        6.94300        7.24410
H         -4.84780        3.56360        7.31970
H         -1.20990       -2.04340        0.29230
H          0.71870       -0.43730        3.15860
H          1.96910       -1.10540        2.07460
H          1.46550       -1.99830        3.51780
