rmsd246.gzmat
 OpenBabel08211713383D

 39 40  0  0  0  0  0  0  0  0999 V2000
    0.0000    0.0000    0.0000 S   0  0  0  0  0  0  0  0  0  0  0  0
    1.4415    0.0000    0.0000 O   0  0  0  0  0  0  0  0  0  0  0  0
   -0.7764    0.0000   -1.2149 O   0  0  0  0  0  0  0  0  0  0  0  0
   -0.5968    1.2643    1.0415 C   0  0  0  0  0  0  0  0  0  0  0  0
    0.1053    1.6099    2.1982 C   0  0  0  0  0  0  0  0  0  0  0  0
   -0.3727    2.6071    3.0349 C   0  0  0  0  0  0  0  0  0  0  0  0
   -1.5707    3.2773    2.7128 C   0  0  0  0  0  0  0  0  0  0  0  0
   -2.2664    2.9428    1.5410 C   0  0  0  0  0  0  0  0  0  0  0  0
   -1.7717    1.9423    0.7139 C   0  0  0  0  0  0  0  0  0  0  0  0
   -1.9852    4.3023    3.5844 N   0  0  0  0  0  0  0  0  0  0  0  0
   -3.2849    4.7977    3.6508 C   0  0  0  0  0  0  0  0  0  0  0  0
   -4.1677    4.4036    2.9228 O   0  0  0  0  0  0  0  0  0  0  0  0
   -3.5225    5.9232    4.6095 C   0  0  0  0  0  0  0  0  0  0  0  0
   -4.1713    7.0298    4.0565 C   0  0  0  0  0  0  0  0  0  0  0  0
   -4.5034    8.1222    4.8553 C   0  0  0  0  0  0  0  0  0  0  0  0
   -4.2048    8.1072    6.2158 C   0  0  0  0  0  0  0  0  0  0  0  0
   -3.5679    7.0016    6.7753 C   0  0  0  0  0  0  0  0  0  0  0  0
   -3.2147    5.9148    5.9706 C   0  0  0  0  0  0  0  0  0  0  0  0
   -2.4977    4.8024    6.6246 C   0  0  0  0  0  0  0  0  0  0  0  0
   -1.4791    4.2621    6.2630 O   0  0  0  0  0  0  0  0  0  0  0  0
   -3.0963    4.4492    7.7821 O   0  0  0  0  0  0  0  0  0  0  0  0
   -0.3916   -1.4735    0.8621 N   0  0  0  0  0  0  0  0  0  0  0  0
   -1.6335   -2.1154    0.9595 C   0  0  0  0  0  0  0  0  0  0  0  0
   -1.6647   -3.1904    1.5187 O   0  0  0  0  0  0  0  0  0  0  0  0
   -2.8493   -1.4401    0.4100 C   0  0  0  0  0  0  0  0  0  0  0  0
    1.0425    1.1039    2.4609 H   0  0  0  0  0  0  0  0  0  0  0  0
    0.1714    2.8655    3.9421 H   0  0  0  0  0  0  0  0  0  0  0  0
   -3.1892    3.4594    1.2714 H   0  0  0  0  0  0  0  0  0  0  0  0
   -2.3207    1.7035   -0.2076 H   0  0  0  0  0  0  0  0  0  0  0  0
   -1.3374    4.5482    4.3441 H   0  0  0  0  0  0  0  0  0  0  0  0
   -4.4314    7.0293    2.9937 H   0  0  0  0  0  0  0  0  0  0  0  0
   -5.0049    8.9848    4.4145 H   0  0  0  0  0  0  0  0  0  0  0  0
   -4.4736    8.9559    6.8450 H   0  0  0  0  0  0  0  0  0  0  0  0
   -3.3492    6.9810    7.8459 H   0  0  0  0  0  0  0  0  0  0  0  0
   -2.6351    3.7012    8.2516 H   0  0  0  0  0  0  0  0  0  0  0  0
    0.4016   -2.0150    1.2250 H   0  0  0  0  0  0  0  0  0  0  0  0
   -2.7477   -1.1982   -0.6641 H   0  0  0  0  0  0  0  0  0  0  0  0
   -3.0933   -0.5134    0.9467 H   0  0  0  0  0  0  0  0  0  0  0  0
   -3.7248   -2.1042    0.5034 H   0  0  0  0  0  0  0  0  0  0  0  0
  1 22  1  0  0  0  0
  1  4  1  0  0  0  0
  2  1  2  0  0  0  0
  3  1  2  0  0  0  0
  4  5  1  0  0  0  0
  5 26  1  0  0  0  0
  5  6  2  0  0  0  0
  6 27  1  0  0  0  0
  7  6  1  0  0  0  0
  7 10  1  0  0  0  0
  8  7  2  0  0  0  0
  9  4  2  0  0  0  0
  9  8  1  0  0  0  0
 10 11  1  0  0  0  0
 10 30  1  0  0  0  0
 11 13  1  0  0  0  0
 12 11  2  0  0  0  0
 13 18  1  0  0  0  0
 14 13  2  0  0  0  0
 14 15  1  0  0  0  0
 15 16  2  0  0  0  0
 16 17  1  0  0  0  0
 16 33  1  0  0  0  0
 17 34  1  0  0  0  0
 18 19  1  0  0  0  0
 18 17  2  0  0  0  0
 19 21  1  0  0  0  0
 20 19  2  0  0  0  0
 21 35  1  0  0  0  0
 22 23  1  0  0  0  0
 22 36  1  0  0  0  0
 23 24  2  0  0  0  0
 25 39  1  0  0  0  0
 25 38  1  0  0  0  0
 25 23  1  0  0  0  0
 28  8  1  0  0  0  0
 29  9  1  0  0  0  0
 31 14  1  0  0  0  0
 32 15  1  0  0  0  0
 37 25  1  0  0  0  0
M  END
$$$$
