rmsd1.gzmat
 OpenBabel08211713363D

 23 24  0  0  0  0  0  0  0  0999 V2000
    0.0000    0.0000    0.0000 C   0  0  0  0  0  0  0  0  0  0  0  0
    1.4734    0.0000    0.0000 N   0  0  0  0  0  0  0  0  0  0  0  0
    2.1664    0.0000    1.1662 C   0  0  0  0  0  0  0  0  0  0  0  0
    3.5402    0.0258    1.0451 N   0  0  0  0  0  0  0  0  0  0  0  0
    4.2581    0.0084    2.1835 C   0  0  0  0  0  0  0  0  0  0  0  0
    5.6263    0.0077    2.0605 N   0  0  0  0  0  0  0  0  0  0  0  0
    3.6985   -0.0232    3.4454 N   0  0  0  0  0  0  0  0  0  0  0  0
    4.2689   -0.0464    4.2858 H   0  0  0  0  0  0  0  0  0  0  0  0
    2.2442   -0.0448    3.6374 C   0  0  0  0  0  0  0  0  0  0  0  0
    1.9129   -0.0769    4.7924 O   0  0  0  0  0  0  0  0  0  0  0  0
    1.4968   -0.0252    2.4152 C   0  0  0  0  0  0  0  0  0  0  0  0
    0.1136   -0.0324    2.4965 N   0  0  0  0  0  0  0  0  0  0  0  0
   -0.5706   -0.0114    1.4061 C   0  0  0  0  0  0  0  0  0  0  0  0
   -2.0741   -0.0159    1.4774 C   0  0  0  0  0  0  0  0  0  0  0  0
   -2.5781   -1.0582    0.6667 O   0  0  0  0  0  0  0  0  0  0  0  0
   -0.3648   -0.8990   -0.5583 H   0  0  0  0  0  0  0  0  0  0  0  0
   -0.3643    0.8989   -0.5532 H   0  0  0  0  0  0  0  0  0  0  0  0
    1.9553    0.0274   -0.8864 H   0  0  0  0  0  0  0  0  0  0  0  0
    6.2308    0.0770    2.8475 H   0  0  0  0  0  0  0  0  0  0  0  0
    6.0317    0.0588    1.1421 H   0  0  0  0  0  0  0  0  0  0  0  0
   -2.5133    0.8950    1.0254 H   0  0  0  0  0  0  0  0  0  0  0  0
   -2.4474   -0.1280    2.5147 H   0  0  0  0  0  0  0  0  0  0  0  0
   -2.3521   -1.9287    1.0547 H   0  0  0  0  0  0  0  0  0  0  0  0
  1 13  1  0  0  0  0
  2  1  1  0  0  0  0
  2  3  1  0  0  0  0
  3 11  1  0  0  0  0
  4  3  2  0  0  0  0
  4  5  2  0  0  0  0
  5  7  1  0  0  0  0
  6  5  1  0  0  0  0
  6 19  1  0  0  0  0
  7  9  1  0  0  0  0
  7  8  1  0  0  0  0
  9 10  2  0  0  0  0
 11 12  2  0  0  0  0
 11  9  1  0  0  0  0
 13 14  1  0  0  0  0
 13 12  2  0  0  0  0
 14 22  1  0  0  0  0
 15 23  1  0  0  0  0
 15 14  1  0  0  0  0
 16  1  1  0  0  0  0
 17  1  1  0  0  0  0
 18  2  1  0  0  0  0
 20  6  1  0  0  0  0
 21 14  1  0  0  0  0
M  END
$$$$
