23
rmsd3.gzmat
C          0.00000        0.00000        0.00000
N          1.47300        0.00000        0.00000
C          2.16260        0.00000        1.16840
N          3.53520        0.08130        1.05350
C          4.24970        0.06020        2.19270
N          5.62200        0.05830        2.07500
N          3.68700        0.01160        3.45230
H          4.25610       -0.00700        4.29410
C          2.23450       -0.07900        3.63890
O          1.90080       -0.12370        4.79270
C          1.49200       -0.09480        2.41310
N          0.11580       -0.24300        2.48370
C         -0.56590       -0.20980        1.39190
C         -2.05810       -0.39750        1.44790
O         -2.44780       -1.35950        0.48830
H         -0.36380       -0.80550       -0.68550
H         -0.36620        0.97190       -0.41220
H          1.95590        0.04780       -0.88470
H          6.21150        0.25290        2.85490
H          6.02290        0.15350        1.15650
H         -2.60230        0.51530        1.13520
H         -2.40650       -0.70510        2.45380
H         -2.09850       -2.24180        0.73130
