23
rmsd2.gzmat
C          0.00000        0.00000        0.00000
N          1.47410        0.00000        0.00000
C          2.16680        0.00000        1.16620
N          3.54140        0.00910        1.04570
C          4.25800        0.01960        2.18410
N          5.62690        0.10410        2.06400
N          3.69830       -0.01550        3.44550
H          4.26860        0.00220        4.28630
C          2.24410       -0.03040        3.63780
O          1.91240       -0.05180        4.79280
C          1.49740       -0.01840        2.41480
N          0.11440       -0.02970        2.49600
C         -0.57040       -0.01390        1.40570
C         -2.07360       -0.02830        1.48660
O         -2.57690       -1.06460        0.66690
H         -0.36640       -0.89630       -0.56110
H         -0.36320        0.90070       -0.55130
H          1.95810        0.01140       -0.88570
H          6.23200       -0.07750        2.83550
H          6.02810        0.07660        1.14140
H         -2.52230        0.88640        1.05130
H         -2.43600       -0.15560        2.52660
H         -2.35200       -1.93740        1.05080
