23
rmsd8.gzmat
C          0.00000        0.00000        0.00000
N          1.47360        0.00000        0.00000
C          2.16550        0.00000        1.16630
N          3.53920        0.05010        1.04700
C          4.25690        0.01650        2.18380
N          5.62840       -0.00530        2.05750
N          3.69840       -0.03420        3.44490
H          4.26980       -0.08290        4.28390
C          2.24460       -0.07920        3.63650
O          1.91270       -0.13830        4.79030
C          1.49700       -0.04720        2.41460
N          0.11420       -0.07040        2.49570
C         -0.57020       -0.03810        1.40550
C         -2.07330       -0.06040        1.48190
O         -2.56830       -1.10390        0.66720
H         -0.36400       -0.88950       -0.57350
H         -0.36360        0.90800       -0.53800
H          1.95590        0.03670       -0.88560
H          6.22650        0.19130        2.82990
H          6.02130        0.08260        1.13420
H         -2.52600        0.84830        1.03840
H         -2.43890       -0.18220        2.52130
H         -2.33190       -1.97450        1.05000
