rmsd2.gzmat
 OpenBabel08211713363D

 23 24  0  0  0  0  0  0  0  0999 V2000
    0.0000    0.0000    0.0000 C   0  0  0  0  0  0  0  0  0  0  0  0
    1.4741    0.0000    0.0000 N   0  0  0  0  0  0  0  0  0  0  0  0
    2.1668    0.0000    1.1662 C   0  0  0  0  0  0  0  0  0  0  0  0
    3.5414    0.0091    1.0457 N   0  0  0  0  0  0  0  0  0  0  0  0
    4.2580    0.0196    2.1841 C   0  0  0  0  0  0  0  0  0  0  0  0
    5.6269    0.1041    2.0640 N   0  0  0  0  0  0  0  0  0  0  0  0
    3.6983   -0.0155    3.4455 N   0  0  0  0  0  0  0  0  0  0  0  0
    4.2686    0.0022    4.2863 H   0  0  0  0  0  0  0  0  0  0  0  0
    2.2441   -0.0304    3.6378 C   0  0  0  0  0  0  0  0  0  0  0  0
    1.9124   -0.0518    4.7928 O   0  0  0  0  0  0  0  0  0  0  0  0
    1.4974   -0.0184    2.4148 C   0  0  0  0  0  0  0  0  0  0  0  0
    0.1144   -0.0297    2.4960 N   0  0  0  0  0  0  0  0  0  0  0  0
   -0.5704   -0.0139    1.4057 C   0  0  0  0  0  0  0  0  0  0  0  0
   -2.0736   -0.0283    1.4866 C   0  0  0  0  0  0  0  0  0  0  0  0
   -2.5769   -1.0646    0.6669 O   0  0  0  0  0  0  0  0  0  0  0  0
   -0.3664   -0.8963   -0.5611 H   0  0  0  0  0  0  0  0  0  0  0  0
   -0.3632    0.9007   -0.5513 H   0  0  0  0  0  0  0  0  0  0  0  0
    1.9581    0.0114   -0.8857 H   0  0  0  0  0  0  0  0  0  0  0  0
    6.2320   -0.0775    2.8355 H   0  0  0  0  0  0  0  0  0  0  0  0
    6.0281    0.0766    1.1414 H   0  0  0  0  0  0  0  0  0  0  0  0
   -2.5223    0.8864    1.0513 H   0  0  0  0  0  0  0  0  0  0  0  0
   -2.4360   -0.1556    2.5266 H   0  0  0  0  0  0  0  0  0  0  0  0
   -2.3520   -1.9374    1.0508 H   0  0  0  0  0  0  0  0  0  0  0  0
  1 13  1  0  0  0  0
  2  1  1  0  0  0  0
  2  3  1  0  0  0  0
  3 11  1  0  0  0  0
  4  3  2  0  0  0  0
  4  5  2  0  0  0  0
  5  7  1  0  0  0  0
  6  5  1  0  0  0  0
  6 19  1  0  0  0  0
  7  9  1  0  0  0  0
  7  8  1  0  0  0  0
  9 10  2  0  0  0  0
 11 12  2  0  0  0  0
 11  9  1  0  0  0  0
 13 14  1  0  0  0  0
 13 12  2  0  0  0  0
 14 22  1  0  0  0  0
 15 23  1  0  0  0  0
 15 14  1  0  0  0  0
 16  1  1  0  0  0  0
 17  1  1  0  0  0  0
 18  2  1  0  0  0  0
 20  6  1  0  0  0  0
 21 14  1  0  0  0  0
M  END
$$$$
