
     RDKit          3D

 23 24  0  0  0  0  0  0  0  0999 V2000
    0.0254    0.2272    0.0377 C   0  0  0  0  0  0  0  0  0  0  0  0
    1.4217   -0.1682    0.0551 N   0  0  0  0  0  0  0  0  0  0  0  0
    2.1609   -0.0736    1.1897 C   0  0  0  0  0  0  0  0  0  0  0  0
    3.5109   -0.1271    1.0429 N   0  0  0  0  0  0  0  0  0  0  0  0
    4.2244   -0.0608    2.1420 C   0  0  0  0  0  0  0  0  0  0  0  0
    5.5819   -0.1503    2.0557 N   0  0  0  0  0  0  0  0  0  0  0  0
    3.6697    0.0689    3.3746 N   0  0  0  0  0  0  0  0  0  0  0  0
    4.2413    0.0816    4.2142 H   0  0  0  0  0  0  0  0  0  0  0  0
    2.2568    0.0884    3.6373 C   0  0  0  0  0  0  0  0  0  0  0  0
    1.8853    0.1562    4.7924 O   0  0  0  0  0  0  0  0  0  0  0  0
    1.4876    0.0214    2.4188 C   0  0  0  0  0  0  0  0  0  0  0  0
    0.1048   -0.0939    2.4827 N   0  0  0  0  0  0  0  0  0  0  0  0
   -0.5848   -0.0377    1.4058 C   0  0  0  0  0  0  0  0  0  0  0  0
   -2.0778   -0.2261    1.4490 C   0  0  0  0  0  0  0  0  0  0  0  0
   -2.5054   -1.2998    0.6237 O   0  0  0  0  0  0  0  0  0  0  0  0
   -0.5246   -0.3520   -0.7195 H   0  0  0  0  0  0  0  0  0  0  0  0
   -0.1030    1.3039   -0.2194 H   0  0  0  0  0  0  0  0  0  0  0  0
    1.9446   -0.2135   -0.8115 H   0  0  0  0  0  0  0  0  0  0  0  0
    6.1672    0.1709    2.8152 H   0  0  0  0  0  0  0  0  0  0  0  0
    5.9650   -0.1030    1.1198 H   0  0  0  0  0  0  0  0  0  0  0  0
   -2.5831    0.6722    1.0505 H   0  0  0  0  0  0  0  0  0  0  0  0
   -2.3757   -0.3473    2.5052 H   0  0  0  0  0  0  0  0  0  0  0  0
   -2.1253   -2.1101    0.9900 H   0  0  0  0  0  0  0  0  0  0  0  0
  1  2  1  0
  1 13  1  0
  1 16  1  0
  1 17  1  0
  2  3  1  0
  2 18  1  0
  3  4  1  0
  3 11  2  0
  4  5  2  0
  5  6  1  0
  5  7  1  0
  6 19  1  0
  6 20  1  0
  7  8  1  0
  7  9  1  0
  9 10  2  0
  9 11  1  0
 11 12  1  0
 12 13  2  0
 13 14  1  0
 14 15  1  0
 14 21  1  0
 14 22  1  0
 15 23  1  0
M  END

