44
rmsd228.gzmat
Cl         0.00000        0.00000        0.00000
C          1.69910        0.00000        0.00000
C          2.38150        0.00000        1.21950
N          3.72120       -0.00780        1.26930
C          4.41680       -0.01830        0.09740
N          5.80800       -0.03370        0.24980
C          6.77000        0.14120       -0.79200
O          6.49240        0.40360       -1.92350
C          8.09650       -0.02550       -0.12040
N          9.30650        0.08200       -0.65800
C         10.34240       -0.14850        0.18610
C         10.14560       -0.46380        1.54390
N          8.90660       -0.56250        2.08870
C          7.89590       -0.35520        1.25210
C          6.40880       -0.43230        1.55330
H          6.03500        0.19410        2.40680
O          5.97210       -1.71260        1.90860
C          6.37220       -2.78470        1.13570
O          7.31780       -2.72200        0.38500
N          5.48920       -3.84250        1.27270
C          6.07620       -5.18210        1.07310
C          6.65090       -5.73970        2.39890
N          5.70360       -5.70750        3.53090
C          5.11060       -4.36320        3.67620
C          4.50340       -3.80440        2.36720
C          4.67400       -6.76020        3.42270
C          3.78490       -0.01140       -1.16520
C          2.39700       -0.00290       -1.20350
H          1.86560        0.00790        2.18880
H         11.34220       -0.07470       -0.25450
H         10.98210       -0.64630        2.22650
H          6.86850       -5.13480        0.29040
H          5.27360       -5.84240        0.67670
H          7.01190       -6.77860        2.25100
H          7.54260       -5.14320        2.70420
H          4.34490       -4.38320        4.47820
H          5.91900       -3.68310        4.03550
H          3.62650       -4.40980        2.04630
H          4.12880       -2.76530        2.51680
H          4.04180       -6.73700        4.32610
H          5.17040       -7.74500        3.40430
H          4.02260       -6.68200        2.54040
H          4.36680       -0.02020       -2.08930
H          1.87150       -0.00140       -2.16140
