rmsd109.gzmat
 OpenBabel08211713383D

 44 47  0  0  1  0  0  0  0  0999 V2000
    0.0000    0.0000    0.0000 Cl  0  0  0  0  0  0  0  0  0  0  0  0
    1.6991    0.0000    0.0000 C   0  0  2  0  0  0  0  0  0  0  0  0
    2.3803    0.0000    1.2204 C   0  0  0  0  0  0  0  0  0  0  0  0
    3.7199   -0.0078    1.2718 N   0  0  0  0  0  0  0  0  0  0  0  0
    4.4182   -0.0206    0.1013 C   0  0  0  0  0  0  0  0  0  0  0  0
    5.8089   -0.0377    0.2573 N   0  0  0  0  0  0  0  0  0  0  0  0
    6.7755    0.0623   -0.7905 C   0  0  0  0  0  0  0  0  0  0  0  0
    6.5054    0.2611   -1.9364 O   0  0  0  0  0  0  0  0  0  0  0  0
    8.0991   -0.0773   -0.1069 C   0  0  0  0  0  0  0  0  0  0  0  0
    9.3114   -0.0218   -0.6472 N   0  0  0  0  0  0  0  0  0  0  0  0
   10.3425   -0.2105    0.2129 C   0  0  0  0  0  0  0  0  0  0  0  0
   10.1394   -0.4318    1.5882 C   0  0  0  0  0  0  0  0  0  0  0  0
    8.8982   -0.4787    2.1348 N   0  0  0  0  0  0  0  0  0  0  0  0
    7.8921   -0.3139    1.2833 C   0  0  0  0  0  0  0  0  0  0  0  0
    6.4041   -0.3573    1.5849 C   0  0  2  0  0  0  0  0  0  0  0  0
    6.0349    0.3295    2.3928 H   0  0  0  0  0  0  0  0  0  0  0  0
    5.9592   -1.6058    2.0305 O   0  0  0  0  0  0  0  0  0  0  0  0
    6.3827   -2.7386    1.3665 C   0  0  0  0  0  0  0  0  0  0  0  0
    7.3010   -2.7226    0.5806 O   0  0  0  0  0  0  0  0  0  0  0  0
    5.5571   -3.8142    1.6583 N   0  0  0  0  0  0  0  0  0  0  0  0
    6.2286   -5.1294    1.6455 C   0  0  0  0  0  0  0  0  0  0  0  0
    6.8756   -5.4329    3.0199 C   0  0  0  0  0  0  0  0  0  0  0  0
    5.9551   -5.2916    4.1659 N   0  0  0  0  0  0  0  0  0  0  0  0
    5.2623   -3.9882    4.1241 C   0  0  0  0  0  0  0  0  0  0  0  0
    4.5924   -3.6781    2.7645 C   0  0  0  0  0  0  0  0  0  0  0  0
    5.0087   -6.4212    4.2580 C   0  0  0  0  0  0  0  0  0  0  0  0
    3.7875   -0.0094   -1.1619 C   0  0  0  0  0  0  0  0  0  0  0  0
    2.3995    0.0001   -1.2022 C   0  0  0  0  0  0  0  0  0  0  0  0
    1.8629    0.0068    2.1890 H   0  0  0  0  0  0  0  0  0  0  0  0
   11.3438   -0.1807   -0.2298 H   0  0  0  0  0  0  0  0  0  0  0  0
   10.9719   -0.5789    2.2840 H   0  0  0  0  0  0  0  0  0  0  0  0
    6.9938   -5.1544    0.8355 H   0  0  0  0  0  0  0  0  0  0  0  0
    5.4630   -5.8934    1.3865 H   0  0  0  0  0  0  0  0  0  0  0  0
    7.3097   -6.4543    3.0201 H   0  0  0  0  0  0  0  0  0  0  0  0
    7.7284   -4.7360    3.1983 H   0  0  0  0  0  0  0  0  0  0  0  0
    4.5129   -3.9430    4.9405 H   0  0  0  0  0  0  0  0  0  0  0  0
    6.0221   -3.2043    4.3560 H   0  0  0  0  0  0  0  0  0  0  0  0
    3.7552   -4.3830    2.5639 H   0  0  0  0  0  0  0  0  0  0  0  0
    4.1484   -2.6553    2.7662 H   0  0  0  0  0  0  0  0  0  0  0  0
    4.3933   -6.3017    5.1654 H   0  0  0  0  0  0  0  0  0  0  0  0
    5.5803   -7.3568    4.3797 H   0  0  0  0  0  0  0  0  0  0  0  0
    4.3368   -6.5329    3.3952 H   0  0  0  0  0  0  0  0  0  0  0  0
    4.3692   -0.0154   -2.0862 H   0  0  0  0  0  0  0  0  0  0  0  0
    1.8755    0.0031   -2.1612 H   0  0  0  0  0  0  0  0  0  0  0  0
  2  1  1  1  0  0  0
  2  3  1  0  0  0  0
  3  4  2  0  0  0  0
  3 29  1  0  0  0  0
  5  6  1  0  0  0  0
  5  4  2  0  0  0  0
  6 15  1  0  0  0  0
  7  9  1  0  0  0  0
  7  6  1  0  0  0  0
  8  7  2  0  0  0  0
  9 14  1  0  0  0  0
 10  9  2  0  0  0  0
 10 11  2  0  0  0  0
 11 12  1  0  0  0  0
 12 13  2  0  0  0  0
 12 31  1  0  0  0  0
 14 15  1  0  0  0  0
 14 13  2  0  0  0  0
 15 17  1  0  0  0  0
 15 16  1  1  0  0  0
 18 20  1  0  0  0  0
 18 17  1  0  0  0  0
 19 18  2  0  0  0  0
 20 25  1  0  0  0  0
 21 20  1  0  0  0  0
 21 22  1  0  0  0  0
 22 34  1  0  0  0  0
 22 35  1  0  0  0  0
 22 23  1  0  0  0  0
 23 26  1  0  0  0  0
 24 23  1  0  0  0  0
 24 37  1  0  0  0  0
 24 36  1  0  0  0  0
 25 39  1  0  0  0  0
 25 24  1  0  0  0  0
 26 41  1  0  0  0  0
 26 40  1  0  0  0  0
 27  5  1  0  0  0  0
 28 27  2  0  0  0  0
 28  2  1  0  0  0  0
 30 11  1  0  0  0  0
 32 21  1  0  0  0  0
 33 21  1  0  0  0  0
 38 25  1  0  0  0  0
 42 26  1  0  0  0  0
 43 27  1  0  0  0  0
 44 28  1  0  0  0  0
M  RAD  1   2   2
M  END
$$$$
