rmsd191.gzmat
 OpenBabel08211713383D

 44 47  0  0  1  0  0  0  0  0999 V2000
    0.0000    0.0000    0.0000 Cl  0  0  0  0  0  0  0  0  0  0  0  0
    1.6991    0.0000    0.0000 C   0  0  1  0  0  0  0  0  0  0  0  0
    2.3818    0.0000    1.2190 C   0  0  0  0  0  0  0  0  0  0  0  0
    3.7218   -0.0108    1.2692 N   0  0  0  0  0  0  0  0  0  0  0  0
    4.4185   -0.0238    0.0980 C   0  0  0  0  0  0  0  0  0  0  0  0
    5.8098   -0.0455    0.2495 N   0  0  0  0  0  0  0  0  0  0  0  0
    6.7703    0.0561   -0.8038 C   0  0  0  0  0  0  0  0  0  0  0  0
    6.4940    0.2785   -1.9441 O   0  0  0  0  0  0  0  0  0  0  0  0
    8.0955   -0.1198   -0.1340 C   0  0  0  0  0  0  0  0  0  0  0  0
    9.3033   -0.0802   -0.6865 N   0  0  0  0  0  0  0  0  0  0  0  0
   10.3392   -0.2992    0.1598 C   0  0  0  0  0  0  0  0  0  0  0  0
   10.1455   -0.5319    1.5351 C   0  0  0  0  0  0  0  0  0  0  0  0
    8.9098   -0.5611    2.0943 N   0  0  0  0  0  0  0  0  0  0  0  0
    7.8975   -0.3708    1.2548 C   0  0  0  0  0  0  0  0  0  0  0  0
    6.4115   -0.3878    1.5705 C   0  0  2  0  0  0  0  0  0  0  0  0
    6.0652    0.3005    2.3867 H   0  0  0  0  0  0  0  0  0  0  0  0
    5.9381   -1.6288    2.0023 O   0  0  0  0  0  0  0  0  0  0  0  0
    6.3134   -2.7621    1.3076 C   0  0  0  0  0  0  0  0  0  0  0  0
    7.2968   -2.7934    0.6059 O   0  0  0  0  0  0  0  0  0  0  0  0
    5.3659   -3.7606    1.4545 N   0  0  0  0  0  0  0  0  0  0  0  0
    5.8893   -5.1396    1.4124 C   0  0  0  0  0  0  0  0  0  0  0  0
    6.3019   -5.6223    2.8254 C   0  0  0  0  0  0  0  0  0  0  0  0
    5.2573   -5.4508    3.8546 N   0  0  0  0  0  0  0  0  0  0  0  0
    4.7430   -4.0667    3.8455 C   0  0  0  0  0  0  0  0  0  0  0  0
    4.2929   -3.5799    2.4482 C   0  0  0  0  0  0  0  0  0  0  0  0
    4.1769   -6.4484    3.7217 C   0  0  0  0  0  0  0  0  0  0  0  0
    3.7852   -0.0133   -1.1643 C   0  0  0  0  0  0  0  0  0  0  0  0
    2.3975   -0.0017   -1.2029 C   0  0  0  0  0  0  0  0  0  0  0  0
    1.8658    0.0097    2.1884 H   0  0  0  0  0  0  0  0  0  0  0  0
   11.3362   -0.2839   -0.2929 H   0  0  0  0  0  0  0  0  0  0  0  0
   10.9826   -0.7026    2.2198 H   0  0  0  0  0  0  0  0  0  0  0  0
    6.7534   -5.1947    0.7107 H   0  0  0  0  0  0  0  0  0  0  0  0
    5.0907   -5.7873    0.9883 H   0  0  0  0  0  0  0  0  0  0  0  0
    6.6091   -6.6880    2.7884 H   0  0  0  0  0  0  0  0  0  0  0  0
    7.1963   -5.0533    3.1726 H   0  0  0  0  0  0  0  0  0  0  0  0
    3.9090   -3.9790    4.5713 H   0  0  0  0  0  0  0  0  0  0  0  0
    5.5596   -3.4092    4.2280 H   0  0  0  0  0  0  0  0  0  0  0  0
    3.4109   -4.1570    2.0918 H   0  0  0  0  0  0  0  0  0  0  0  0
    3.9746   -2.5113    2.4855 H   0  0  0  0  0  0  0  0  0  0  0  0
    3.4459   -6.2987    4.5335 H   0  0  0  0  0  0  0  0  0  0  0  0
    4.6052   -7.4555    3.8603 H   0  0  0  0  0  0  0  0  0  0  0  0
    3.6400   -6.4262    2.7627 H   0  0  0  0  0  0  0  0  0  0  0  0
    4.3652   -0.0215   -2.0895 H   0  0  0  0  0  0  0  0  0  0  0  0
    1.8720    0.0019   -2.1610 H   0  0  0  0  0  0  0  0  0  0  0  0
  2  1  1  1  0  0  0
  2  3  1  0  0  0  0
  3  4  2  0  0  0  0
  3 29  1  0  0  0  0
  5  6  1  0  0  0  0
  5  4  2  0  0  0  0
  6 15  1  0  0  0  0
  7  9  1  0  0  0  0
  7  6  1  0  0  0  0
  8  7  2  0  0  0  0
  9 14  1  0  0  0  0
 10  9  2  0  0  0  0
 10 11  2  0  0  0  0
 11 12  1  0  0  0  0
 12 13  2  0  0  0  0
 12 31  1  0  0  0  0
 14 15  1  0  0  0  0
 14 13  2  0  0  0  0
 15 17  1  0  0  0  0
 15 16  1  1  0  0  0
 18 20  1  0  0  0  0
 18 17  1  0  0  0  0
 19 18  2  0  0  0  0
 20 25  1  0  0  0  0
 21 20  1  0  0  0  0
 21 22  1  0  0  0  0
 22 35  1  0  0  0  0
 22 23  1  0  0  0  0
 24 23  1  0  0  0  0
 24 37  1  0  0  0  0
 24 36  1  0  0  0  0
 25 39  1  0  0  0  0
 25 24  1  0  0  0  0
 26 23  1  0  0  0  0
 26 41  1  0  0  0  0
 26 40  1  0  0  0  0
 27  5  1  0  0  0  0
 28 27  2  0  0  0  0
 28  2  1  0  0  0  0
 30 11  1  0  0  0  0
 32 21  1  0  0  0  0
 33 21  1  0  0  0  0
 34 22  1  0  0  0  0
 38 25  1  0  0  0  0
 42 26  1  0  0  0  0
 43 27  1  0  0  0  0
 44 28  1  0  0  0  0
M  RAD  1   2   2
M  END
$$$$
