
     RDKit          3D

 44 47  0  0  0  0  0  0  0  0999 V2000
   -0.0510    0.4053   -0.3769 Cl  0  0  0  0  0  0  0  0  0  0  0  0
    1.6838    0.2581   -0.3239 C   0  0  0  0  0  0  0  0  0  0  0  0
    2.3540    0.2671    0.9016 C   0  0  0  0  0  0  0  0  0  0  0  0
    3.6764    0.1548    0.9888 N   0  0  0  0  0  0  0  0  0  0  0  0
    4.3973    0.0237   -0.1269 C   0  0  0  0  0  0  0  0  0  0  0  0
    5.7821   -0.0989    0.0685 N   0  0  0  0  0  0  0  0  0  0  0  0
    6.7787    0.0369   -0.9160 C   0  0  0  0  0  0  0  0  0  0  0  0
    6.6044    0.1988   -2.0996 O   0  0  0  0  0  0  0  0  0  0  0  0
    8.0701   -0.0239   -0.1630 C   0  0  0  0  0  0  0  0  0  0  0  0
    9.2961    0.0818   -0.6526 N   0  0  0  0  0  0  0  0  0  0  0  0
   10.2644   -0.0392    0.2643 C   0  0  0  0  0  0  0  0  0  0  0  0
    9.9937   -0.2533    1.6263 C   0  0  0  0  0  0  0  0  0  0  0  0
    8.7461   -0.3528    2.1088 N   0  0  0  0  0  0  0  0  0  0  0  0
    7.8033   -0.2389    1.1884 C   0  0  0  0  0  0  0  0  0  0  0  0
    6.3118   -0.3173    1.4155 C   0  0  2  0  0  0  0  0  0  0  0  0
    5.9455    0.4588    2.0995 H   0  0  0  0  0  0  0  0  0  0  0  0
    5.8595   -1.5195    2.0048 O   0  0  0  0  0  0  0  0  0  0  0  0
    6.2177   -2.6988    1.4127 C   0  0  0  0  0  0  0  0  0  0  0  0
    7.0112   -2.7668    0.4946 O   0  0  0  0  0  0  0  0  0  0  0  0
    5.5796   -3.7505    1.9851 N   0  0  0  0  0  0  0  0  0  0  0  0
    5.8687   -5.1046    1.5224 C   0  0  0  0  0  0  0  0  0  0  0  0
    6.2432   -5.9850    2.7234 C   0  0  0  0  0  0  0  0  0  0  0  0
    5.2600   -5.9466    3.7981 N   0  0  0  0  0  0  0  0  0  0  0  0
    5.0024   -4.5749    4.2142 C   0  0  0  0  0  0  0  0  0  0  0  0
    4.5911   -3.6523    3.0567 C   0  0  0  0  0  0  0  0  0  0  0  0
    4.0728   -6.7463    3.5668 C   0  0  0  0  0  0  0  0  0  0  0  0
    3.8141    0.0046   -1.4094 C   0  0  0  0  0  0  0  0  0  0  0  0
    2.4320    0.1276   -1.4976 C   0  0  0  0  0  0  0  0  0  0  0  0
    1.7920    0.3720    1.8351 H   0  0  0  0  0  0  0  0  0  0  0  0
   11.2993    0.0356   -0.0848 H   0  0  0  0  0  0  0  0  0  0  0  0
   10.8165   -0.3436    2.3429 H   0  0  0  0  0  0  0  0  0  0  0  0
    6.6845   -5.0498    0.7915 H   0  0  0  0  0  0  0  0  0  0  0  0
    4.9780   -5.5096    1.0073 H   0  0  0  0  0  0  0  0  0  0  0  0
    6.3842   -7.0272    2.3954 H   0  0  0  0  0  0  0  0  0  0  0  0
    7.2094   -5.6297    3.1236 H   0  0  0  0  0  0  0  0  0  0  0  0
    4.2226   -4.5698    4.9924 H   0  0  0  0  0  0  0  0  0  0  0  0
    5.9252   -4.1685    4.6653 H   0  0  0  0  0  0  0  0  0  0  0  0
    3.6035   -3.9515    2.6591 H   0  0  0  0  0  0  0  0  0  0  0  0
    4.5153   -2.6110    3.3853 H   0  0  0  0  0  0  0  0  0  0  0  0
    3.4445   -6.7434    4.4718 H   0  0  0  0  0  0  0  0  0  0  0  0
    4.3647   -7.7898    3.3677 H   0  0  0  0  0  0  0  0  0  0  0  0
    3.4321   -6.4162    2.7197 H   0  0  0  0  0  0  0  0  0  0  0  0
    4.4395   -0.0929   -2.2930 H   0  0  0  0  0  0  0  0  0  0  0  0
    1.9334    0.1182   -2.4682 H   0  0  0  0  0  0  0  0  0  0  0  0
  1  2  1  0
  2  3  2  0
  2 28  1  0
  3  4  1  0
  3 29  1  0
  4  5  2  0
  5  6  1  0
  5 27  1  0
  6  7  1  0
  6 15  1  0
  7  8  2  0
  7  9  1  0
  9 10  1  0
  9 14  2  0
 10 11  2  0
 11 12  1  0
 11 30  1  0
 12 13  2  0
 12 31  1  0
 13 14  1  0
 14 15  1  0
 15 16  1  1
 15 17  1  0
 17 18  1  0
 18 19  2  0
 18 20  1  0
 20 21  1  0
 20 25  1  0
 21 22  1  0
 21 32  1  0
 21 33  1  0
 22 23  1  0
 22 34  1  0
 22 35  1  0
 23 24  1  0
 23 26  1  0
 24 25  1  0
 24 36  1  0
 24 37  1  0
 25 38  1  0
 25 39  1  0
 26 40  1  0
 26 41  1  0
 26 42  1  0
 27 28  2  0
 27 43  1  0
 28 44  1  0
M  END

