rmsd28.gzmat
 OpenBabel08211713383D

 44 47  0  0  1  0  0  0  0  0999 V2000
    0.0000    0.0000    0.0000 Cl  0  0  0  0  0  0  0  0  0  0  0  0
    1.6993    0.0000    0.0000 C   0  0  1  0  0  0  0  0  0  0  0  0
    2.3811    0.0000    1.2204 C   0  0  0  0  0  0  0  0  0  0  0  0
    3.7208   -0.0034    1.2709 N   0  0  0  0  0  0  0  0  0  0  0  0
    4.4159   -0.0138    0.0992 C   0  0  0  0  0  0  0  0  0  0  0  0
    5.8074   -0.0244    0.2512 N   0  0  0  0  0  0  0  0  0  0  0  0
    6.7656    0.2264   -0.7782 C   0  0  0  0  0  0  0  0  0  0  0  0
    6.4822    0.5289   -1.8978 O   0  0  0  0  0  0  0  0  0  0  0  0
    8.0951    0.0769   -0.1073 C   0  0  0  0  0  0  0  0  0  0  0  0
    9.3028    0.2511   -0.6313 N   0  0  0  0  0  0  0  0  0  0  0  0
   10.3423    0.0192    0.2088 C   0  0  0  0  0  0  0  0  0  0  0  0
   10.1504   -0.3659    1.5488 C   0  0  0  0  0  0  0  0  0  0  0  0
    8.9126   -0.5339    2.0802 N   0  0  0  0  0  0  0  0  0  0  0  0
    7.8996   -0.3216    1.2479 C   0  0  0  0  0  0  0  0  0  0  0  0
    6.4142   -0.4660    1.5352 C   0  0  2  0  0  0  0  0  0  0  0  0
    6.0126    0.0990    2.4183 H   0  0  0  0  0  0  0  0  0  0  0  0
    6.0311   -1.7824    1.8261 O   0  0  0  0  0  0  0  0  0  0  0  0
    6.4741   -2.7872    0.9902 C   0  0  0  0  0  0  0  0  0  0  0  0
    7.3492   -2.6073    0.1741 O   0  0  0  0  0  0  0  0  0  0  0  0
    5.7162   -3.9332    1.1482 N   0  0  0  0  0  0  0  0  0  0  0  0
    6.3769   -5.1855    0.7303 C   0  0  0  0  0  0  0  0  0  0  0  0
    7.1564   -5.8257    1.9045 C   0  0  0  0  0  0  0  0  0  0  0  0
    6.3547   -6.0020    3.1322 N   0  0  0  0  0  0  0  0  0  0  0  0
    5.7029   -4.7312    3.5070 C   0  0  0  0  0  0  0  0  0  0  0  0
    4.8911   -4.0845    2.3589 C   0  0  0  0  0  0  0  0  0  0  0  0
    5.3844   -7.1080    3.0040 C   0  0  0  0  0  0  0  0  0  0  0  0
    3.7859   -0.0106   -1.1641 C   0  0  0  0  0  0  0  0  0  0  0  0
    2.3979   -0.0023   -1.2031 C   0  0  0  0  0  0  0  0  0  0  0  0
    1.8641    0.0036    2.1893 H   0  0  0  0  0  0  0  0  0  0  0  0
   11.3409    0.1495   -0.2214 H   0  0  0  0  0  0  0  0  0  0  0  0
   10.9893   -0.5499    2.2280 H   0  0  0  0  0  0  0  0  0  0  0  0
    7.0574   -4.9853   -0.1304 H   0  0  0  0  0  0  0  0  0  0  0  0
    5.5845   -5.8712    0.3581 H   0  0  0  0  0  0  0  0  0  0  0  0
    7.5756   -6.8058    1.5961 H   0  0  0  0  0  0  0  0  0  0  0  0
    8.0300   -5.1867    2.1735 H   0  0  0  0  0  0  0  0  0  0  0  0
    5.0535   -4.8991    4.3906 H   0  0  0  0  0  0  0  0  0  0  0  0
    6.5070   -4.0340    3.8411 H   0  0  0  0  0  0  0  0  0  0  0  0
    4.0173   -4.7193    2.0882 H   0  0  0  0  0  0  0  0  0  0  0  0
    4.4762   -3.1002    2.6744 H   0  0  0  0  0  0  0  0  0  0  0  0
    4.8613   -7.2413    3.9657 H   0  0  0  0  0  0  0  0  0  0  0  0
    5.9344   -8.0434    2.8051 H   0  0  0  0  0  0  0  0  0  0  0  0
    4.6303   -6.9734    2.2148 H   0  0  0  0  0  0  0  0  0  0  0  0
    4.3698   -0.0222   -2.0867 H   0  0  0  0  0  0  0  0  0  0  0  0
    1.8732   -0.0018   -2.1615 H   0  0  0  0  0  0  0  0  0  0  0  0
  2  1  1  1  0  0  0
  2  3  1  0  0  0  0
  3  4  2  0  0  0  0
  3 29  1  0  0  0  0
  5  6  1  0  0  0  0
  5  4  2  0  0  0  0
  6 15  1  0  0  0  0
  7  9  1  0  0  0  0
  7  6  1  0  0  0  0
  8  7  2  0  0  0  0
  9 14  1  0  0  0  0
 10  9  2  0  0  0  0
 10 11  2  0  0  0  0
 11 12  1  0  0  0  0
 12 13  2  0  0  0  0
 12 31  1  0  0  0  0
 14 15  1  0  0  0  0
 14 13  2  0  0  0  0
 15 17  1  0  0  0  0
 15 16  1  1  0  0  0
 18 20  1  0  0  0  0
 18 17  1  0  0  0  0
 19 18  2  0  0  0  0
 20 25  1  0  0  0  0
 21 20  1  0  0  0  0
 21 22  1  0  0  0  0
 22 35  1  0  0  0  0
 22 23  1  0  0  0  0
 23 24  1  0  0  0  0
 24 37  1  0  0  0  0
 24 36  1  0  0  0  0
 25 39  1  0  0  0  0
 25 24  1  0  0  0  0
 26 23  1  0  0  0  0
 26 40  1  0  0  0  0
 27  5  1  0  0  0  0
 28 27  2  0  0  0  0
 28  2  1  0  0  0  0
 30 11  1  0  0  0  0
 32 21  1  0  0  0  0
 33 21  1  0  0  0  0
 34 22  1  0  0  0  0
 38 25  1  0  0  0  0
 41 26  1  0  0  0  0
 42 26  1  0  0  0  0
 43 27  1  0  0  0  0
 44 28  1  0  0  0  0
M  RAD  1   2   2
M  END
$$$$
