44
rmsd232.gzmat
Cl         0.00000        0.00000        0.00000
C          1.69910        0.00000        0.00000
C          2.38130        0.00000        1.21960
N          3.72090       -0.00520        1.26920
C          4.41700       -0.01370        0.09770
N          5.80800       -0.02280        0.25280
C          6.77250        0.14950       -0.78750
O          6.49700        0.39350       -1.92330
C          8.09800        0.01110       -0.10700
N          9.30920        0.13340       -0.63840
C         10.34370       -0.06270        0.21630
C         10.14420       -0.35790        1.57830
N          8.90340       -0.47550        2.11560
C          7.89480       -0.30300        1.26860
C          6.40760       -0.40480        1.56180
H          6.01880        0.21730        2.41150
O          5.99470       -1.69230        1.92130
C          6.38810       -2.75150        1.12660
O          7.32700       -2.67460        0.36810
N          5.50530       -3.80840        1.25010
C          6.05820       -5.14090        0.93980
C          6.65100       -5.81010        2.20430
N          5.73430       -5.83410        3.36160
C          5.19510       -4.48460        3.62250
C          4.55870       -3.81930        2.37860
C          4.66250       -6.83680        3.19580
C          3.78540       -0.00770       -1.16480
C          2.39730        0.00020       -1.20310
H          1.86540        0.00660        2.18900
H         11.34470        0.02400       -0.21930
H         10.97960       -0.50760        2.27060
H          6.83280       -5.05290        0.14290
H          5.23170       -5.75290        0.51580
H          6.97360       -6.84620        1.97140
H          7.56970       -5.26500        2.52440
H          4.45910       -4.53700        4.45050
H          6.03900       -3.85820        3.99640
H          3.65340       -4.37720        2.04940
H          4.21950       -2.78390        2.61340
H          4.03480       -6.84750        4.10220
H          5.11990       -7.83690        3.11030
H          4.01150       -6.67780        2.32420
H          4.36740       -0.01690       -2.08870
H          1.87090        0.00230       -2.16060
