44
rmsd199.gzmat
Cl         0.00000        0.00000        0.00000
C          1.69910        0.00000        0.00000
C          2.38090        0.00000        1.21950
N          3.72060       -0.01540        1.26990
C          4.41860       -0.03150        0.09930
N          5.80910       -0.05920        0.25510
C          6.77690        0.03520       -0.79230
O          6.50730        0.23760       -1.93770
C          8.09820       -0.12030       -0.10910
N          9.31060       -0.07610       -0.65100
C         10.34070       -0.27140        0.20830
C         10.13720       -0.48380        1.58560
N          8.89650       -0.52010        2.13350
C          7.89040       -0.35560        1.28130
C          6.40220       -0.39280        1.58230
H          6.03540        0.28730        2.39640
O          5.94270       -1.64290        2.00400
C          6.35190       -2.76910        1.31660
O          7.35960       -2.78810        0.64940
N          5.40900       -3.77600        1.42430
C          5.94250       -5.15150        1.39400
C          6.29310       -5.64460        2.82010
N          5.20070       -5.48850        3.80120
C          4.67900       -4.10730        3.78170
C          4.29190       -3.60810        2.36990
C          4.13240       -6.48850        3.60360
C          3.78650       -0.01610       -1.16320
C          2.39860       -0.00240       -1.20240
H          1.86590        0.01030        2.18920
H         11.34180       -0.25330       -0.23520
H         10.96970       -0.63250        2.28130
H          6.83820       -5.19560        0.73200
H          5.16730       -5.79940        0.92790
H          6.60840       -6.70820        2.78840
H          7.16740       -5.07490        3.21360
H          3.81090       -4.03200        4.46810
H          5.47170       -3.44870        4.20940
H          3.42880       -4.18340        1.96660
H          3.96910       -2.54070        2.40470
H          3.36430       -6.35530        4.38350
H          4.55800       -7.49660        3.74230
H          3.63970       -6.45060        2.62150
H          4.36810       -0.02090       -2.08740
H          1.87270        0.00180       -2.16040
