rmsd141.gzmat
 OpenBabel08211713393D

 34 36  0  0  0  0  0  0  0  0999 V2000
    0.0000    0.0000    0.0000 N   0  0  0  0  0  0  0  0  0  0  0  0
    1.4860    0.0000    0.0000 C   0  0  0  0  0  0  0  0  0  0  0  0
    1.9570    0.0000    1.4704 C   0  0  0  0  0  0  0  0  0  0  0  0
    0.7332    0.4291    2.3001 C   0  0  0  0  0  0  0  0  0  0  0  0
   -0.4263    0.5967    1.2926 C   0  0  0  0  0  0  0  0  0  0  0  0
   -0.5935   -1.2820   -0.2847 C   0  0  0  0  0  0  0  0  0  0  0  0
   -1.3759   -1.5262   -1.2657 N   0  0  0  0  0  0  0  0  0  0  0  0
   -0.2633   -2.3352    0.6090 N   0  0  0  0  0  0  0  0  0  0  0  0
   -0.6841   -3.6240    0.4288 C   0  0  0  0  0  0  0  0  0  0  0  0
   -0.3699   -4.6861    1.1860 N   0  0  0  0  0  0  0  0  0  0  0  0
   -1.0533   -5.7588    0.5769 C   0  0  0  0  0  0  0  0  0  0  0  0
   -1.7366   -5.3274   -0.4924 N   0  0  0  0  0  0  0  0  0  0  0  0
   -1.5297   -3.9750   -0.6213 O   0  0  0  0  0  0  0  0  0  0  0  0
   -0.9893   -7.1253    1.0708 C   0  0  0  0  0  0  0  0  0  0  0  0
   -1.6995   -8.1366    0.4145 C   0  0  0  0  0  0  0  0  0  0  0  0
   -1.6352   -9.4443    0.8869 C   0  0  0  0  0  0  0  0  0  0  0  0
   -0.8663   -9.7450    2.0103 C   0  0  0  0  0  0  0  0  0  0  0  0
   -0.1578   -8.7375    2.6637 C   0  0  0  0  0  0  0  0  0  0  0  0
   -0.2166   -7.4274    2.1970 C   0  0  0  0  0  0  0  0  0  0  0  0
    1.8005    0.9337   -0.5180 H   0  0  0  0  0  0  0  0  0  0  0  0
    1.9010   -0.8433   -0.5820 H   0  0  0  0  0  0  0  0  0  0  0  0
    2.3276   -0.9919    1.7763 H   0  0  0  0  0  0  0  0  0  0  0  0
    2.8040    0.6910    1.6132 H   0  0  0  0  0  0  0  0  0  0  0  0
    0.4891   -0.3134    3.0772 H   0  0  0  0  0  0  0  0  0  0  0  0
    0.9241    1.3738    2.8365 H   0  0  0  0  0  0  0  0  0  0  0  0
   -1.3735    0.1588    1.6588 H   0  0  0  0  0  0  0  0  0  0  0  0
   -0.6264    1.6732    1.0898 H   0  0  0  0  0  0  0  0  0  0  0  0
   -1.6385   -0.8131   -1.9253 H   0  0  0  0  0  0  0  0  0  0  0  0
    0.3474   -2.1449    1.4035 H   0  0  0  0  0  0  0  0  0  0  0  0
   -2.3012   -7.8965   -0.4650 H   0  0  0  0  0  0  0  0  0  0  0  0
   -2.1863  -10.2321    0.3776 H   0  0  0  0  0  0  0  0  0  0  0  0
   -0.8194  -10.7683    2.3782 H   0  0  0  0  0  0  0  0  0  0  0  0
    0.4422   -8.9733    3.5399 H   0  0  0  0  0  0  0  0  0  0  0  0
    0.3364   -6.6326    2.7042 H   0  0  0  0  0  0  0  0  0  0  0  0
  1  5  1  0  0  0  0
  2  1  1  0  0  0  0
  2  3  1  0  0  0  0
  3 23  1  0  0  0  0
  3 22  1  0  0  0  0
  3  4  1  0  0  0  0
  4 25  1  0  0  0  0
  4 24  1  0  0  0  0
  5 26  1  0  0  0  0
  5  4  1  0  0  0  0
  6  1  1  0  0  0  0
  6  8  1  0  0  0  0
  7  6  2  0  0  0  0
  8 29  1  0  0  0  0
  9  8  1  0  0  0  0
  9 10  2  0  0  0  0
 11 14  1  0  0  0  0
 11 10  2  0  0  0  0
 12 11  2  0  0  0  0
 13 12  1  0  0  0  0
 13  9  1  0  0  0  0
 14 19  2  0  0  0  0
 15 16  2  0  0  0  0
 15 14  1  0  0  0  0
 16 17  1  0  0  0  0
 17 32  1  0  0  0  0
 17 18  2  0  0  0  0
 18 33  1  0  0  0  0
 19 18  1  0  0  0  0
 19 34  1  0  0  0  0
 20  2  1  0  0  0  0
 21  2  1  0  0  0  0
 27  5  1  0  0  0  0
 28  7  1  0  0  0  0
 30 15  1  0  0  0  0
 31 16  1  0  0  0  0
M  END
$$$$
