rmsd132.gzmat
 OpenBabel08211713393D

 34 36  0  0  0  0  0  0  0  0999 V2000
    0.0000    0.0000    0.0000 N   0  0  0  0  0  0  0  0  0  0  0  0
    1.4857    0.0000    0.0000 C   0  0  0  0  0  0  0  0  0  0  0  0
    1.9638    0.0000    1.4697 C   0  0  0  0  0  0  0  0  0  0  0  0
    0.7161    0.2989    2.3201 C   0  0  0  0  0  0  0  0  0  0  0  0
   -0.4273    0.5492    1.3130 C   0  0  0  0  0  0  0  0  0  0  0  0
   -0.6102   -1.2614   -0.3319 C   0  0  0  0  0  0  0  0  0  0  0  0
   -1.4397   -1.4434   -1.2878 N   0  0  0  0  0  0  0  0  0  0  0  0
   -0.2485   -2.3704    0.4779 N   0  0  0  0  0  0  0  0  0  0  0  0
   -0.7450   -3.6283    0.2700 C   0  0  0  0  0  0  0  0  0  0  0  0
   -0.4436   -4.7405    0.9567 N   0  0  0  0  0  0  0  0  0  0  0  0
   -1.2272   -5.7442    0.3499 C   0  0  0  0  0  0  0  0  0  0  0  0
   -1.9528   -5.2260   -0.6507 N   0  0  0  0  0  0  0  0  0  0  0  0
   -1.6752   -3.8834   -0.7359 O   0  0  0  0  0  0  0  0  0  0  0  0
   -1.2137   -7.1329    0.7821 C   0  0  0  0  0  0  0  0  0  0  0  0
   -2.0605   -8.0636    0.1699 C   0  0  0  0  0  0  0  0  0  0  0  0
   -2.0437   -9.3912    0.5878 C   0  0  0  0  0  0  0  0  0  0  0  0
   -1.1861   -9.7920    1.6116 C   0  0  0  0  0  0  0  0  0  0  0  0
   -0.3416   -8.8650    2.2212 C   0  0  0  0  0  0  0  0  0  0  0  0
   -0.3520   -7.5357    1.8083 C   0  0  0  0  0  0  0  0  0  0  0  0
    1.7969    0.9354   -0.5178 H   0  0  0  0  0  0  0  0  0  0  0  0
    1.9024   -0.8410   -0.5834 H   0  0  0  0  0  0  0  0  0  0  0  0
    2.4247   -0.9609    1.7493 H   0  0  0  0  0  0  0  0  0  0  0  0
    2.7465    0.7607    1.6274 H   0  0  0  0  0  0  0  0  0  0  0  0
    0.4794   -0.5373    2.9985 H   0  0  0  0  0  0  0  0  0  0  0  0
    0.8704    1.1766    2.9686 H   0  0  0  0  0  0  0  0  0  0  0  0
   -1.3913    0.1228    1.6466 H   0  0  0  0  0  0  0  0  0  0  0  0
   -0.5887    1.6397    1.1587 H   0  0  0  0  0  0  0  0  0  0  0  0
   -1.7277   -0.6924   -1.8916 H   0  0  0  0  0  0  0  0  0  0  0  0
    0.4198   -2.2433    1.2369 H   0  0  0  0  0  0  0  0  0  0  0  0
   -2.7303   -7.7453   -0.6325 H   0  0  0  0  0  0  0  0  0  0  0  0
   -2.7012  -10.1170    0.1135 H   0  0  0  0  0  0  0  0  0  0  0  0
   -1.1756  -10.8311    1.9352 H   0  0  0  0  0  0  0  0  0  0  0  0
    0.3265   -9.1793    3.0203 H   0  0  0  0  0  0  0  0  0  0  0  0
    0.3081   -6.8018    2.2783 H   0  0  0  0  0  0  0  0  0  0  0  0
  1  5  1  0  0  0  0
  2  1  1  0  0  0  0
  2  3  1  0  0  0  0
  3 23  1  0  0  0  0
  3 22  1  0  0  0  0
  3  4  1  0  0  0  0
  4 25  1  0  0  0  0
  4 24  1  0  0  0  0
  5 26  1  0  0  0  0
  5  4  1  0  0  0  0
  6  1  1  0  0  0  0
  6  8  1  0  0  0  0
  7  6  2  0  0  0  0
  8 29  1  0  0  0  0
  9  8  1  0  0  0  0
  9 10  2  0  0  0  0
 11 14  1  0  0  0  0
 11 10  2  0  0  0  0
 12 11  2  0  0  0  0
 13 12  1  0  0  0  0
 13  9  1  0  0  0  0
 14 19  2  0  0  0  0
 15 16  2  0  0  0  0
 15 14  1  0  0  0  0
 16 17  1  0  0  0  0
 17 32  1  0  0  0  0
 17 18  2  0  0  0  0
 18 33  1  0  0  0  0
 19 18  1  0  0  0  0
 19 34  1  0  0  0  0
 20  2  1  0  0  0  0
 21  2  1  0  0  0  0
 27  5  1  0  0  0  0
 28  7  1  0  0  0  0
 30 15  1  0  0  0  0
 31 16  1  0  0  0  0
M  END
$$$$
