34
rmsd72.gzmat
N          0.00000        0.00000        0.00000
C          1.48570        0.00000        0.00000
C          1.96020        0.00000        1.46990
C          0.72580        0.37430        2.31050
C         -0.43040        0.56720        1.30390
C         -0.59720       -1.27000       -0.32300
N         -1.36480       -1.48380       -1.32280
N         -0.29590       -2.34880        0.55100
C         -0.73590       -3.62430        0.32370
N         -0.45060       -4.72200        1.04010
C         -1.14450       -5.75620        0.37790
N         -1.80850       -5.26830       -0.67910
O         -1.57600       -3.91680       -0.74950
C         -1.10960       -7.14520        0.80750
C         -1.69950       -8.13270        0.01030
C         -1.66300       -9.46310        0.41760
C         -1.04010       -9.81050        1.61560
C         -0.45170       -8.82660        2.40940
C         -0.48500       -7.49350        2.00930
H          1.79840        0.93440       -0.51880
H          1.90120       -0.84330       -0.58220
H          2.36760       -0.98170        1.76360
H          2.78200        0.72050        1.61830
H          0.48930       -0.40680        3.05120
H          0.89910        1.29520        2.89180
H         -1.37970        0.12180        1.65620
H         -0.62650        1.64870        1.12500
H         -1.61070       -0.75380       -1.97020
H          0.31360       -2.19250        1.35240
H         -2.18530       -7.85580       -0.92840
H         -2.12040      -10.23110       -0.20290
H         -1.01280      -10.85170        1.93140
H          0.03530       -9.09880        3.34340
H         -0.02550       -6.71670        2.62590
