34
rmsd231.gzmat
N          0.00000        0.00000        0.00000
C          1.48580        0.00000        0.00000
C          1.96380        0.00000        1.47030
C          0.71090        0.26690        2.32400
C         -0.42660        0.54110        1.31680
C         -0.60670       -1.26160       -0.33900
N         -1.44020       -1.43980       -1.29240
N         -0.23090       -2.37600        0.45770
C         -0.70200       -3.64020        0.23030
N         -0.39210       -4.75460        0.91040
C         -1.14760       -5.76480        0.27990
N         -1.86320       -5.24930       -0.72920
O         -1.60970       -3.90090       -0.79440
C         -1.12440       -7.15770        0.69780
C         -2.05070       -8.05990        0.16230
C         -2.02820       -9.39230        0.56410
C         -1.08300       -9.82760        1.49240
C         -0.15770       -8.92940        2.02300
C         -0.17820       -7.59360        1.63120
H          1.79780        0.93430       -0.51960
H          1.90260       -0.84220       -0.58310
H          2.44390       -0.95400        1.74140
H          2.73010        0.77680        1.63150
H          0.47320       -0.59190        2.97350
H          0.85720        1.12320        3.00220
H         -1.39660        0.12230        1.64230
H         -0.57620        1.63530        1.17480
H         -1.73350       -0.68530       -1.88990
H          0.41780       -2.24480        1.23300
H         -2.78550       -7.71640       -0.56960
H         -2.75100      -10.09390        0.15120
H         -1.06670      -10.87090        1.80250
H          0.58190       -9.26970        2.74460
H          0.53800       -6.88140        2.04830
