34
rmsd139.gzmat
N          0.00000        0.00000        0.00000
C          1.48600        0.00000        0.00000
C          1.95830        0.00000        1.47030
C          0.73130        0.41050        2.30420
C         -0.42900        0.58230        1.29810
C         -0.59220       -1.27740       -0.30500
N         -1.33540       -1.51740       -1.31730
N         -0.31220       -2.33120        0.60500
C         -0.77350       -3.60660        0.42770
N         -0.54440       -4.66460        1.22030
C         -1.23120       -5.72350        0.59090
N         -1.83490       -5.28820       -0.52370
O         -1.56960       -3.94730       -0.66400
C         -1.24660       -7.08110        1.11290
C         -1.95230       -8.08140        0.43510
C         -1.96040       -9.38090        0.93420
C         -1.26670       -9.68440        2.10480
C         -0.56610       -8.68710        2.78240
C         -0.55350       -7.38540        2.28950
H          1.80020        0.93500       -0.51550
H          1.90080       -0.84390       -0.58190
H          2.34190       -0.98840        1.77280
H          2.79640        0.70190        1.61460
H          0.49310       -0.34280        3.07240
H          0.91610        1.34980        2.85230
H         -1.37430        0.13820        1.66110
H         -0.63390        1.65980        1.10530
H         -1.56410       -0.80470       -1.98970
H          0.27210       -2.14850        1.42080
H         -2.49290       -7.84070       -0.48310
H         -2.50960      -10.15940        0.40810
H         -1.27050      -10.70180        2.49120
H         -0.02880       -8.92610        3.69760
H         -0.00570       -6.59750        2.81320
