34
rmsd71.gzmat
N          0.00000        0.00000        0.00000
C          1.48590        0.00000        0.00000
C          1.95630        0.00000        1.47030
C          0.73560        0.43730        2.29940
C         -0.43390        0.57640        1.29900
C         -0.58960       -1.27530       -0.31590
N         -1.34640       -1.50210       -1.32120
N         -0.28620       -2.34460        0.56850
C         -0.71840       -3.62480        0.35510
N         -0.44340       -4.70730        1.09850
C         -1.12590       -5.75540        0.44680
N         -1.76920       -5.29080       -0.63370
O         -1.53710       -3.94040       -0.72800
C         -1.10260       -7.13430        0.90880
C         -1.89160       -8.09430        0.26480
C         -1.86480       -9.41600        0.70000
C         -1.05470       -9.78170        1.77430
C         -0.26900       -8.82520        2.41610
C         -0.29150       -7.50070        1.98750
H          1.80010        0.93250       -0.52120
H          1.90070       -0.84460       -0.58120
H          2.31810       -0.99480        1.77880
H          2.80830        0.68450        1.61380
H          0.50400       -0.29120        3.09380
H          0.92450        1.39370        2.81570
H         -1.36580        0.11010        1.67120
H         -0.66770        1.64770        1.10310
H         -1.58980       -0.77810       -1.97630
H          0.31460       -2.17550        1.37430
H         -2.52420       -7.80270       -0.57680
H         -2.47650      -10.16370        0.19940
H         -1.03620      -10.81600        2.11260
H          0.36380       -9.11270        3.25300
H          0.31900       -6.74440        2.48750
