rmsd133.gzmat
 OpenBabel08211713393D

 34 36  0  0  0  0  0  0  0  0999 V2000
    0.0000    0.0000    0.0000 N   0  0  0  0  0  0  0  0  0  0  0  0
    1.4857    0.0000    0.0000 C   0  0  0  0  0  0  0  0  0  0  0  0
    1.9599    0.0000    1.4699 C   0  0  0  0  0  0  0  0  0  0  0  0
    0.7234    0.3604    2.3130 C   0  0  0  0  0  0  0  0  0  0  0  0
   -0.4323    0.5574    1.3073 C   0  0  0  0  0  0  0  0  0  0  0  0
   -0.5952   -1.2663   -0.3391 C   0  0  0  0  0  0  0  0  0  0  0  0
   -1.3762   -1.4651   -1.3317 N   0  0  0  0  0  0  0  0  0  0  0  0
   -0.2639   -2.3649    0.4984 N   0  0  0  0  0  0  0  0  0  0  0  0
   -0.6924   -3.6389    0.2424 C   0  0  0  0  0  0  0  0  0  0  0  0
   -0.4354   -4.7441    0.9581 N   0  0  0  0  0  0  0  0  0  0  0  0
   -1.0889   -5.7737    0.2491 C   0  0  0  0  0  0  0  0  0  0  0  0
   -1.7011   -5.2762   -0.8343 N   0  0  0  0  0  0  0  0  0  0  0  0
   -1.4770   -3.9224   -0.8744 O   0  0  0  0  0  0  0  0  0  0  0  0
   -1.0772   -7.1675    0.6645 C   0  0  0  0  0  0  0  0  0  0  0  0
   -1.6716   -8.1387   -0.1495 C   0  0  0  0  0  0  0  0  0  0  0  0
   -1.6648   -9.4724    0.2486 C   0  0  0  0  0  0  0  0  0  0  0  0
   -1.0679   -9.8388    1.4542 C   0  0  0  0  0  0  0  0  0  0  0  0
   -0.4743   -8.8715    2.2643 C   0  0  0  0  0  0  0  0  0  0  0  0
   -0.4766   -7.5356    1.8728 C   0  0  0  0  0  0  0  0  0  0  0  0
    1.7986    0.9329   -0.5210 H   0  0  0  0  0  0  0  0  0  0  0  0
    1.9010   -0.8448   -0.5811 H   0  0  0  0  0  0  0  0  0  0  0  0
    2.3761   -0.9786    1.7601 H   0  0  0  0  0  0  0  0  0  0  0  0
    2.7751    0.7272    1.6201 H   0  0  0  0  0  0  0  0  0  0  0  0
    0.4896   -0.4280    3.0470 H   0  0  0  0  0  0  0  0  0  0  0  0
    0.8927    1.2773    2.9024 H   0  0  0  0  0  0  0  0  0  0  0  0
   -1.3812    0.1102    1.6573 H   0  0  0  0  0  0  0  0  0  0  0  0
   -0.6291    1.6402    1.1355 H   0  0  0  0  0  0  0  0  0  0  0  0
   -1.6372   -0.7254   -1.9609 H   0  0  0  0  0  0  0  0  0  0  0  0
    0.3080   -2.2123    1.3273 H   0  0  0  0  0  0  0  0  0  0  0  0
   -2.1388   -7.8471   -1.0931 H   0  0  0  0  0  0  0  0  0  0  0  0
   -2.1269  -10.2284   -0.3833 H   0  0  0  0  0  0  0  0  0  0  0  0
   -1.0651  -10.8819    1.7645 H   0  0  0  0  0  0  0  0  0  0  0  0
   -0.0085   -9.1608    3.2037 H   0  0  0  0  0  0  0  0  0  0  0  0
   -0.0121   -6.7708    2.5004 H   0  0  0  0  0  0  0  0  0  0  0  0
  1  5  1  0  0  0  0
  2  1  1  0  0  0  0
  2  3  1  0  0  0  0
  3 23  1  0  0  0  0
  3 22  1  0  0  0  0
  3  4  1  0  0  0  0
  4 25  1  0  0  0  0
  4 24  1  0  0  0  0
  5 26  1  0  0  0  0
  5  4  1  0  0  0  0
  6  1  1  0  0  0  0
  6  8  1  0  0  0  0
  7  6  2  0  0  0  0
  8 29  1  0  0  0  0
  9  8  1  0  0  0  0
  9 10  2  0  0  0  0
 11 14  1  0  0  0  0
 11 10  2  0  0  0  0
 12 11  2  0  0  0  0
 13 12  1  0  0  0  0
 13  9  1  0  0  0  0
 14 19  2  0  0  0  0
 15 16  2  0  0  0  0
 15 14  1  0  0  0  0
 16 17  1  0  0  0  0
 17 32  1  0  0  0  0
 17 18  2  0  0  0  0
 18 33  1  0  0  0  0
 19 18  1  0  0  0  0
 19 34  1  0  0  0  0
 20  2  1  0  0  0  0
 21  2  1  0  0  0  0
 27  5  1  0  0  0  0
 28  7  1  0  0  0  0
 30 15  1  0  0  0  0
 31 16  1  0  0  0  0
M  END
$$$$
