rmsd46.gzmat
 OpenBabel08211713433D

 61 65  0  0  0  0  0  0  0  0999 V2000
    0.0000    0.0000    0.0000 N   0  0  0  0  0  0  0  0  0  0  0  0
    1.4753    0.0000    0.0000 C   0  0  0  0  0  0  0  0  0  0  0  0
    2.1024    0.0000    1.4186 C   0  0  0  0  0  0  0  0  0  0  0  0
    1.5767   -1.1181    2.2209 N   0  0  0  0  0  0  0  0  0  0  0  0
    0.1015   -1.0828    2.2915 C   0  0  0  0  0  0  0  0  0  0  0  0
   -0.5156   -1.0747    0.8724 C   0  0  0  0  0  0  0  0  0  0  0  0
    2.2056   -2.3482    2.1475 C   0  0  0  0  0  0  0  0  0  0  0  0
    3.5882   -2.4943    1.8971 C   0  0  0  0  0  0  0  0  0  0  0  0
    4.1309   -3.7906    2.0146 C   0  0  0  0  0  0  0  0  0  0  0  0
    3.3618   -4.8698    2.3446 N   0  0  0  0  0  0  0  0  0  0  0  0
    2.0425   -4.6350    2.5459 C   0  0  0  0  0  0  0  0  0  0  0  0
    1.4335   -3.4442    2.4536 N   0  0  0  0  0  0  0  0  0  0  0  0
    0.9498   -5.9793    2.9701 S   0  0  0  0  0  0  0  0  0  0  0  0
    2.0293   -7.3730    2.8265 C   0  0  0  0  0  0  0  0  0  0  0  0
    2.0298   -8.1240    1.6511 C   0  0  0  0  0  0  0  0  0  0  0  0
    2.9926   -9.1075    1.4563 C   0  0  0  0  0  0  0  0  0  0  0  0
    3.9749   -9.3017    2.4371 C   0  0  0  0  0  0  0  0  0  0  0  0
    3.8945   -8.6327    3.6728 C   0  0  0  0  0  0  0  0  0  0  0  0
    2.9132   -7.6702    3.8648 C   0  0  0  0  0  0  0  0  0  0  0  0
    5.1345  -10.0757    2.2005 N   0  0  0  0  0  0  0  0  0  0  0  0
    5.1483  -11.2207    1.4119 C   0  0  0  0  0  0  0  0  0  0  0  0
    4.1251  -11.7074    0.9840 O   0  0  0  0  0  0  0  0  0  0  0  0
    6.5094  -11.8008    1.1883 C   0  0  0  0  0  0  0  0  0  0  0  0
    6.8457  -13.0946    1.9051 C   0  0  0  0  0  0  0  0  0  0  0  0
    6.5902  -13.1066    0.4232 C   0  0  0  0  0  0  0  0  0  0  0  0
    5.4840   -3.9724    1.7813 N   0  0  0  0  0  0  0  0  0  0  0  0
    6.1946   -5.1655    1.9123 C   0  0  0  0  0  0  0  0  0  0  0  0
    7.5757   -5.3637    1.7120 C   0  0  0  0  0  0  0  0  0  0  0  0
    7.7862   -6.7459    1.9856 C   0  0  0  0  0  0  0  0  0  0  0  0
    6.6117   -7.3441    2.3286 N   0  0  0  0  0  0  0  0  0  0  0  0
    5.6532   -6.3822    2.2840 N   0  0  0  0  0  0  0  0  0  0  0  0
    4.6766   -6.5870    2.4683 H   0  0  0  0  0  0  0  0  0  0  0  0
    9.0567   -7.4934    1.9280 C   0  0  0  0  0  0  0  0  0  0  0  0
   -0.5565    1.3199    0.3589 C   0  0  0  0  0  0  0  0  0  0  0  0
    1.8452    0.8694   -0.5811 H   0  0  0  0  0  0  0  0  0  0  0  0
    1.8002   -0.9103   -0.5561 H   0  0  0  0  0  0  0  0  0  0  0  0
    3.2090   -0.0353    1.3569 H   0  0  0  0  0  0  0  0  0  0  0  0
    1.8526    0.9427    1.9570 H   0  0  0  0  0  0  0  0  0  0  0  0
   -0.2802   -1.9559    2.8736 H   0  0  0  0  0  0  0  0  0  0  0  0
   -0.1850   -0.1729    2.8612 H   0  0  0  0  0  0  0  0  0  0  0  0
   -0.2966   -2.0448    0.3657 H   0  0  0  0  0  0  0  0  0  0  0  0
   -1.6202   -1.0015    0.9344 H   0  0  0  0  0  0  0  0  0  0  0  0
    4.2094   -1.6487    1.6499 H   0  0  0  0  0  0  0  0  0  0  0  0
    1.3003   -7.9321    0.8606 H   0  0  0  0  0  0  0  0  0  0  0  0
    3.0078   -9.6971    0.5388 H   0  0  0  0  0  0  0  0  0  0  0  0
    4.6191   -8.8469    4.4559 H   0  0  0  0  0  0  0  0  0  0  0  0
    2.8679   -7.1344    4.8159 H   0  0  0  0  0  0  0  0  0  0  0  0
    6.0045   -9.6224    2.4930 H   0  0  0  0  0  0  0  0  0  0  0  0
    7.2963  -11.0539    1.0389 H   0  0  0  0  0  0  0  0  0  0  0  0
    6.1147  -13.5381    2.5798 H   0  0  0  0  0  0  0  0  0  0  0  0
    7.8502  -13.2449    2.2902 H   0  0  0  0  0  0  0  0  0  0  0  0
    7.4048  -13.2680   -0.2758 H   0  0  0  0  0  0  0  0  0  0  0  0
    5.6673  -13.5473    0.0392 H   0  0  0  0  0  0  0  0  0  0  0  0
    6.0371   -3.1544    1.5307 H   0  0  0  0  0  0  0  0  0  0  0  0
    8.3074   -4.6524    1.4207 H   0  0  0  0  0  0  0  0  0  0  0  0
    9.4788   -7.4806    0.9107 H   0  0  0  0  0  0  0  0  0  0  0  0
    8.9356   -8.5476    2.2209 H   0  0  0  0  0  0  0  0  0  0  0  0
    9.8090   -7.0528    2.6006 H   0  0  0  0  0  0  0  0  0  0  0  0
   -1.6539    1.2836    0.2474 H   0  0  0  0  0  0  0  0  0  0  0  0
   -0.1861    2.0738   -0.3555 H   0  0  0  0  0  0  0  0  0  0  0  0
   -0.3218    1.6599    1.3777 H   0  0  0  0  0  0  0  0  0  0  0  0
  1  2  1  0  0  0  0
  1 34  1  0  0  0  0
  1  6  1  0  0  0  0
  2  3  1  0  0  0  0
  3 38  1  0  0  0  0
  3  4  1  0  0  0  0
  4  5  1  0  0  0  0
  5 40  1  0  0  0  0
  5 39  1  0  0  0  0
  6 42  1  0  0  0  0
  6  5  1  0  0  0  0
  7  4  1  0  0  0  0
  7 12  2  0  0  0  0
  8  9  1  0  0  0  0
  8  7  1  0  0  0  0
  9 10  2  0  0  0  0
 10 11  2  0  0  0  0
 11 13  1  0  0  0  0
 12 11  2  0  0  0  0
 14 13  1  0  0  0  0
 14 19  2  0  0  0  0
 15 14  1  0  0  0  0
 16 15  2  0  0  0  0
 16 17  1  0  0  0  0
 17 18  2  0  0  0  0
 18 19  1  0  0  0  0
 18 46  1  0  0  0  0
 19 47  1  0  0  0  0
 20 17  1  0  0  0  0
 20 48  1  0  0  0  0
 21 20  1  0  0  0  0
 22 21  2  0  0  0  0
 23 21  1  0  0  0  0
 23 24  1  0  0  0  0
 24 51  1  0  0  0  0
 24 50  1  0  0  0  0
 25 23  1  0  0  0  0
 25 24  1  0  0  0  0
 26 27  1  0  0  0  0
 26  9  1  0  0  0  0
 27 31  1  0  0  0  0
 28 27  2  0  0  0  0
 28 29  1  0  0  0  0
 29 30  2  0  0  0  0
 31 30  1  0  0  0  0
 31 32  1  0  0  0  0
 33 29  1  0  0  0  0
 33 57  1  0  0  0  0
 33 58  1  0  0  0  0
 34 61  1  0  0  0  0
 35  2  1  0  0  0  0
 36  2  1  0  0  0  0
 37  3  1  0  0  0  0
 41  6  1  0  0  0  0
 43  8  1  0  0  0  0
 44 15  1  0  0  0  0
 45 16  1  0  0  0  0
 49 23  1  0  0  0  0
 52 25  1  0  0  0  0
 53 25  1  0  0  0  0
 54 26  1  0  0  0  0
 55 28  1  0  0  0  0
 56 33  1  0  0  0  0
 59 34  1  0  0  0  0
 60 34  1  0  0  0  0
M  RAD  1   8   2
M  END
$$$$
