61
rmsd158.gzmat
N          0.00000        0.00000        0.00000
C          1.47550        0.00000        0.00000
C          2.10380        0.00000        1.41850
N          1.57640       -1.11570        2.22420
C          0.10090       -1.08300        2.28960
C         -0.51470       -1.07680        0.87040
C          2.20770       -2.34540        2.14980
C          3.59980       -2.48210        1.95190
C          4.13840       -3.78240        2.04070
N          3.35820       -4.87210        2.30200
C          2.03400       -4.64280        2.47480
N          1.42720       -3.44960        2.39850
S          0.93220       -6.00400        2.80860
C          2.05760       -7.36680        2.88700
C          2.42940       -7.88150        4.12850
C          3.42930       -8.84400        4.20950
C          4.07560       -9.25710        3.03670
C          3.61910       -8.82220        1.77820
C          2.60360       -7.87910        1.70900
N          5.25900      -10.03250        3.05160
C          5.53860      -10.99090        4.02100
O          4.71820      -11.30970        4.85320
C          6.89850      -11.60420        3.91320
C          7.84320      -11.40230        5.08400
C          7.21750      -12.74990        4.85440
N          5.49980       -3.95700        1.85680
C          6.18180       -5.17370        1.83180
C          7.53260       -5.38830        1.49190
C          7.72260       -6.79340        1.63270
N          6.56320       -7.38950        2.02710
N          5.64090       -6.40140        2.16910
H          4.67420       -6.60070        2.40450
C          8.95860       -7.56420        1.39920
C         -0.55500        1.31950        0.36390
H          1.84470        0.87000       -0.58060
H          1.80090       -0.90950       -0.55690
H          3.21010       -0.03950        1.35340
H          1.85730        0.94460        1.95490
H         -0.28060       -1.95610        2.87150
H         -0.18780       -0.17240        2.85720
H         -0.29320       -2.04620        0.36330
H         -1.61980       -1.00680        0.93170
H          4.22950       -1.62740        1.76390
H          1.96620       -7.51910        5.04960
H          3.73090       -9.24900        5.17630
H          4.08390       -9.20020        0.87010
H          2.26860       -7.52460        0.73170
H          5.99810       -9.67220        2.44080
H          7.30820      -11.62930        2.89870
H          7.52070      -10.79710        5.93100
H          8.90140      -11.24790        4.89280
H          7.81510      -13.58360        4.49970
H          6.43690      -13.10430        5.53160
H          6.06580       -3.12900        1.68010
H          8.25790       -4.67280        1.19440
H          9.80980       -7.12810        1.94470
H          9.22380       -7.57400        0.33020
H          8.86420       -8.61240        1.72240
H         -1.65260        1.28390        0.25840
H         -0.18830        2.07440       -0.35120
H         -0.31530        1.65780        1.38230
