
     RDKit          3D

 61 65  0  0  0  0  0  0  0  0999 V2000
   -0.2943    0.6039    0.5392 N   0  0  0  0  0  0  0  0  0  0  0  0
    1.0337    0.4094   -0.0292 C   0  0  0  0  0  0  0  0  0  0  0  0
    2.0088   -0.2834    0.9264 C   0  0  0  0  0  0  0  0  0  0  0  0
    1.4321   -1.5342    1.4224 N   0  0  0  0  0  0  0  0  0  0  0  0
    0.0948   -1.4124    1.9829 C   0  0  0  0  0  0  0  0  0  0  0  0
   -0.8262   -0.6650    1.0023 C   0  0  0  0  0  0  0  0  0  0  0  0
    2.2170   -2.6396    1.6052 C   0  0  0  0  0  0  0  0  0  0  0  0
    1.7910   -3.7902    2.3035 C   0  0  0  0  0  0  0  0  0  0  0  0
    2.6897   -4.8660    2.3621 C   0  0  0  0  0  0  0  0  0  0  0  0
    3.9134   -4.8145    1.8089 N   0  0  0  0  0  0  0  0  0  0  0  0
    4.2260   -3.6656    1.2071 C   0  0  0  0  0  0  0  0  0  0  0  0
    3.4585   -2.5977    1.0741 N   0  0  0  0  0  0  0  0  0  0  0  0
    5.8392   -3.4617    0.4620 S   0  0  0  0  0  0  0  0  0  0  0  0
    6.6420   -4.9529    1.0171 C   0  0  0  0  0  0  0  0  0  0  0  0
    7.3973   -4.9459    2.1958 C   0  0  0  0  0  0  0  0  0  0  0  0
    7.8475   -6.1368    2.7644 C   0  0  0  0  0  0  0  0  0  0  0  0
    7.5114   -7.3591    2.1594 C   0  0  0  0  0  0  0  0  0  0  0  0
    6.8611   -7.3556    0.9114 C   0  0  0  0  0  0  0  0  0  0  0  0
    6.4263   -6.1624    0.3446 C   0  0  0  0  0  0  0  0  0  0  0  0
    7.6746   -8.6042    2.7859 N   0  0  0  0  0  0  0  0  0  0  0  0
    8.4807   -8.8972    3.8579 C   0  0  0  0  0  0  0  0  0  0  0  0
    9.3408   -8.1465    4.2928 O   0  0  0  0  0  0  0  0  0  0  0  0
    8.2203  -10.2459    4.4587 C   0  0  0  0  0  0  0  0  0  0  0  0
    9.4042  -10.9669    5.0701 C   0  0  0  0  0  0  0  0  0  0  0  0
    8.3727  -10.3623    5.9634 C   0  0  0  0  0  0  0  0  0  0  0  0
    2.3193   -6.0242    3.0109 N   0  0  0  0  0  0  0  0  0  0  0  0
    3.0124   -7.2210    3.1181 C   0  0  0  0  0  0  0  0  0  0  0  0
    2.6192   -8.4064    3.7370 C   0  0  0  0  0  0  0  0  0  0  0  0
    3.7023   -9.2974    3.5131 C   0  0  0  0  0  0  0  0  0  0  0  0
    4.6706   -8.7056    2.8161 N   0  0  0  0  0  0  0  0  0  0  0  0
    4.2369   -7.4444    2.5904 N   0  0  0  0  0  0  0  0  0  0  0  0
    4.7769   -6.7511    2.0755 H   0  0  0  0  0  0  0  0  0  0  0  0
    3.8392  -10.7153    3.9715 C   0  0  0  0  0  0  0  0  0  0  0  0
   -0.3984    1.6939    1.4898 C   0  0  0  0  0  0  0  0  0  0  0  0
    1.4456    1.3836   -0.3365 H   0  0  0  0  0  0  0  0  0  0  0  0
    0.9339   -0.2097   -0.9381 H   0  0  0  0  0  0  0  0  0  0  0  0
    2.9556   -0.5205    0.4299 H   0  0  0  0  0  0  0  0  0  0  0  0
    2.2393    0.3774    1.7853 H   0  0  0  0  0  0  0  0  0  0  0  0
   -0.3285   -2.4074    2.1650 H   0  0  0  0  0  0  0  0  0  0  0  0
    0.1339   -0.8879    2.9586 H   0  0  0  0  0  0  0  0  0  0  0  0
   -0.9834   -1.3156    0.1236 H   0  0  0  0  0  0  0  0  0  0  0  0
   -1.8084   -0.5030    1.4746 H   0  0  0  0  0  0  0  0  0  0  0  0
    0.8185   -3.8636    2.7849 H   0  0  0  0  0  0  0  0  0  0  0  0
    7.5847   -3.9980    2.7043 H   0  0  0  0  0  0  0  0  0  0  0  0
    8.4046   -6.1397    3.6987 H   0  0  0  0  0  0  0  0  0  0  0  0
    6.6372   -8.3075    0.4266 H   0  0  0  0  0  0  0  0  0  0  0  0
    5.8649   -6.1675   -0.5914 H   0  0  0  0  0  0  0  0  0  0  0  0
    6.8639   -9.2065    2.6385 H   0  0  0  0  0  0  0  0  0  0  0  0
    7.4457  -10.8526    3.9819 H   0  0  0  0  0  0  0  0  0  0  0  0
   10.3629  -10.4485    4.9905 H   0  0  0  0  0  0  0  0  0  0  0  0
    9.4409  -12.0538    4.9611 H   0  0  0  0  0  0  0  0  0  0  0  0
    7.6730  -11.0185    6.4874 H   0  0  0  0  0  0  0  0  0  0  0  0
    8.6393   -9.4401    6.4856 H   0  0  0  0  0  0  0  0  0  0  0  0
    1.3959   -6.0301    3.4229 H   0  0  0  0  0  0  0  0  0  0  0  0
    1.6890   -8.5985    4.2664 H   0  0  0  0  0  0  0  0  0  0  0  0
    3.9311  -10.7764    5.0687 H   0  0  0  0  0  0  0  0  0  0  0  0
    4.7362  -11.1700    3.5273 H   0  0  0  0  0  0  0  0  0  0  0  0
    2.9652  -11.3197    3.6808 H   0  0  0  0  0  0  0  0  0  0  0  0
   -1.4515    1.8253    1.7858 H   0  0  0  0  0  0  0  0  0  0  0  0
   -0.0671    2.6300    1.0131 H   0  0  0  0  0  0  0  0  0  0  0  0
    0.1947    1.5714    2.4224 H   0  0  0  0  0  0  0  0  0  0  0  0
  1  2  1  0
  1  6  1  0
  1 34  1  0
  2  3  1  0
  2 35  1  0
  2 36  1  0
  3  4  1  0
  3 37  1  0
  3 38  1  0
  4  5  1  0
  4  7  1  0
  5  6  1  0
  5 39  1  0
  5 40  1  0
  6 41  1  0
  6 42  1  0
  7  8  2  0
  7 12  1  0
  8  9  1  0
  8 43  1  0
  9 10  2  0
  9 26  1  0
 10 11  1  0
 11 12  2  0
 11 13  1  0
 13 14  1  0
 14 15  2  0
 14 19  1  0
 15 16  1  0
 15 44  1  0
 16 17  2  0
 16 45  1  0
 17 18  1  0
 17 20  1  0
 18 19  2  0
 18 46  1  0
 19 47  1  0
 20 21  1  0
 20 48  1  0
 21 22  2  0
 21 23  1  0
 23 24  1  0
 23 25  1  0
 23 49  1  0
 24 25  1  0
 24 50  1  0
 24 51  1  0
 25 52  1  0
 25 53  1  0
 26 27  1  0
 26 54  1  0
 27 28  2  0
 27 31  1  0
 28 29  1  0
 28 55  1  0
 29 30  2  0
 29 33  1  0
 30 31  1  0
 31 32  1  0
 33 56  1  0
 33 57  1  0
 33 58  1  0
 34 59  1  0
 34 60  1  0
 34 61  1  0
M  END

