rmsd66.gzmat
 OpenBabel08211713433D

 61 65  0  0  0  0  0  0  0  0999 V2000
    0.0000    0.0000    0.0000 N   0  0  0  0  0  0  0  0  0  0  0  0
    1.4756    0.0000    0.0000 C   0  0  0  0  0  0  0  0  0  0  0  0
    2.1037    0.0000    1.4187 C   0  0  0  0  0  0  0  0  0  0  0  0
    1.5769   -1.1188    2.2213 N   0  0  0  0  0  0  0  0  0  0  0  0
    0.1011   -1.0804    2.2906 C   0  0  0  0  0  0  0  0  0  0  0  0
   -0.5151   -1.0755    0.8715 C   0  0  0  0  0  0  0  0  0  0  0  0
    2.1975   -2.3535    2.1233 C   0  0  0  0  0  0  0  0  0  0  0  0
    3.5871   -2.4996    1.9191 C   0  0  0  0  0  0  0  0  0  0  0  0
    4.1172   -3.8041    2.0041 C   0  0  0  0  0  0  0  0  0  0  0  0
    3.3295   -4.8907    2.2562 N   0  0  0  0  0  0  0  0  0  0  0  0
    2.0051   -4.6542    2.4169 C   0  0  0  0  0  0  0  0  0  0  0  0
    1.4079   -3.4551    2.3555 N   0  0  0  0  0  0  0  0  0  0  0  0
    0.8886   -6.0095    2.7287 S   0  0  0  0  0  0  0  0  0  0  0  0
    1.9606   -7.4021    2.5292 C   0  0  0  0  0  0  0  0  0  0  0  0
    2.0192   -8.0549    1.2981 C   0  0  0  0  0  0  0  0  0  0  0  0
    2.9843   -9.0302    1.0746 C   0  0  0  0  0  0  0  0  0  0  0  0
    3.9104   -9.3160    2.0869 C   0  0  0  0  0  0  0  0  0  0  0  0
    3.7661   -8.7506    3.3681 C   0  0  0  0  0  0  0  0  0  0  0  0
    2.7842   -7.7944    3.5855 C   0  0  0  0  0  0  0  0  0  0  0  0
    5.0786  -10.0763    1.8513 N   0  0  0  0  0  0  0  0  0  0  0  0
    5.1463  -11.1317    0.9476 C   0  0  0  0  0  0  0  0  0  0  0  0
    4.1543  -11.5668    0.4057 O   0  0  0  0  0  0  0  0  0  0  0  0
    6.5200  -11.6902    0.7513 C   0  0  0  0  0  0  0  0  0  0  0  0
    6.7680  -13.1132    1.2158 C   0  0  0  0  0  0  0  0  0  0  0  0
    6.6759  -12.8140   -0.2547 C   0  0  0  0  0  0  0  0  0  0  0  0
    5.4779   -3.9840    1.8210 N   0  0  0  0  0  0  0  0  0  0  0  0
    6.1780   -5.1858    1.9245 C   0  0  0  0  0  0  0  0  0  0  0  0
    7.5655   -5.3794    1.7684 C   0  0  0  0  0  0  0  0  0  0  0  0
    7.7622   -6.7741    1.9801 C   0  0  0  0  0  0  0  0  0  0  0  0
    6.5741   -7.3833    2.2501 N   0  0  0  0  0  0  0  0  0  0  0  0
    5.6197   -6.4165    2.2169 N   0  0  0  0  0  0  0  0  0  0  0  0
    4.6370   -6.6258    2.3574 H   0  0  0  0  0  0  0  0  0  0  0  0
    9.0312   -7.5245    1.9226 C   0  0  0  0  0  0  0  0  0  0  0  0
   -0.5568    1.3192    0.3619 C   0  0  0  0  0  0  0  0  0  0  0  0
    1.8444    0.8688   -0.5825 H   0  0  0  0  0  0  0  0  0  0  0  0
    1.8009   -0.9104   -0.5559 H   0  0  0  0  0  0  0  0  0  0  0  0
    3.2101   -0.0378    1.3567 H   0  0  0  0  0  0  0  0  0  0  0  0
    1.8553    0.9432    1.9571 H   0  0  0  0  0  0  0  0  0  0  0  0
   -0.2814   -1.9521    2.8739 H   0  0  0  0  0  0  0  0  0  0  0  0
   -0.1833   -0.1684    2.8578 H   0  0  0  0  0  0  0  0  0  0  0  0
   -0.2918   -2.0458    0.3668 H   0  0  0  0  0  0  0  0  0  0  0  0
   -1.6200   -1.0068    0.9307 H   0  0  0  0  0  0  0  0  0  0  0  0
    4.2230   -1.6485    1.7353 H   0  0  0  0  0  0  0  0  0  0  0  0
    1.3352   -7.7905    0.4880 H   0  0  0  0  0  0  0  0  0  0  0  0
    3.0469   -9.5398    0.1124 H   0  0  0  0  0  0  0  0  0  0  0  0
    4.4431   -9.0397    4.1694 H   0  0  0  0  0  0  0  0  0  0  0  0
    2.6900   -7.3382    4.5736 H   0  0  0  0  0  0  0  0  0  0  0  0
    5.9299   -9.6602    2.2401 H   0  0  0  0  0  0  0  0  0  0  0  0
    7.3254  -10.9542    0.8428 H   0  0  0  0  0  0  0  0  0  0  0  0
    5.9634  -13.6639    1.7019 H   0  0  0  0  0  0  0  0  0  0  0  0
    7.7226  -13.3674    1.6672 H   0  0  0  0  0  0  0  0  0  0  0  0
    7.5610  -12.8502   -0.8821 H   0  0  0  0  0  0  0  0  0  0  0  0
    5.7982  -13.1425   -0.8161 H   0  0  0  0  0  0  0  0  0  0  0  0
    6.0431   -3.1601    1.6223 H   0  0  0  0  0  0  0  0  0  0  0  0
    8.3091   -4.6565    1.5434 H   0  0  0  0  0  0  0  0  0  0  0  0
    9.3932   -7.6091    0.8851 H   0  0  0  0  0  0  0  0  0  0  0  0
    8.9310   -8.5465    2.3194 H   0  0  0  0  0  0  0  0  0  0  0  0
    9.8200   -7.0237    2.5046 H   0  0  0  0  0  0  0  0  0  0  0  0
   -1.6522    1.2869    0.2302 H   0  0  0  0  0  0  0  0  0  0  0  0
   -0.1718    2.0797   -0.3374 H   0  0  0  0  0  0  0  0  0  0  0  0
   -0.3394    1.6476    1.3883 H   0  0  0  0  0  0  0  0  0  0  0  0
  1 34  1  0  0  0  0
  1  6  1  0  0  0  0
  2  1  1  0  0  0  0
  2  3  1  0  0  0  0
  3 38  1  0  0  0  0
  3  4  1  0  0  0  0
  4  5  1  0  0  0  0
  5 40  1  0  0  0  0
  5 39  1  0  0  0  0
  6 42  1  0  0  0  0
  6  5  1  0  0  0  0
  7  4  1  0  0  0  0
  7 12  2  0  0  0  0
  8  9  1  0  0  0  0
  8  7  1  0  0  0  0
  9 10  2  0  0  0  0
 10 11  2  0  0  0  0
 11 13  1  0  0  0  0
 12 11  2  0  0  0  0
 14 13  1  0  0  0  0
 14 19  2  0  0  0  0
 15 14  1  0  0  0  0
 16 15  2  0  0  0  0
 16 17  1  0  0  0  0
 17 18  2  0  0  0  0
 18 19  1  0  0  0  0
 18 46  1  0  0  0  0
 19 47  1  0  0  0  0
 20 17  1  0  0  0  0
 20 48  1  0  0  0  0
 21 20  1  0  0  0  0
 22 21  2  0  0  0  0
 23 49  1  0  0  0  0
 23 21  1  0  0  0  0
 23 24  1  0  0  0  0
 24 51  1  0  0  0  0
 24 50  1  0  0  0  0
 25 23  1  0  0  0  0
 25 24  1  0  0  0  0
 26 27  1  0  0  0  0
 26  9  1  0  0  0  0
 27 31  1  0  0  0  0
 28 27  2  0  0  0  0
 28 29  1  0  0  0  0
 29 30  2  0  0  0  0
 31 30  1  0  0  0  0
 31 32  1  0  0  0  0
 33 29  1  0  0  0  0
 33 57  1  0  0  0  0
 33 58  1  0  0  0  0
 34 61  1  0  0  0  0
 35  2  1  0  0  0  0
 36  2  1  0  0  0  0
 37  3  1  0  0  0  0
 41  6  1  0  0  0  0
 43  8  1  0  0  0  0
 44 15  1  0  0  0  0
 45 16  1  0  0  0  0
 52 25  1  0  0  0  0
 53 25  1  0  0  0  0
 54 26  1  0  0  0  0
 55 28  1  0  0  0  0
 56 33  1  0  0  0  0
 59 34  1  0  0  0  0
 60 34  1  0  0  0  0
M  RAD  1   8   2
M  END
$$$$
