rmsd216.gzmat
 OpenBabel08211713433D

 61 65  0  0  0  0  0  0  0  0999 V2000
    0.0000    0.0000    0.0000 N   0  0  0  0  0  0  0  0  0  0  0  0
    1.4772    0.0000    0.0000 C   0  0  0  0  0  0  0  0  0  0  0  0
    2.1062    0.0000    1.4140 C   0  0  0  0  0  0  0  0  0  0  0  0
    1.5759   -1.1177    2.2221 N   0  0  0  0  0  0  0  0  0  0  0  0
    0.1048   -1.0702    2.2978 C   0  0  0  0  0  0  0  0  0  0  0  0
   -0.5170   -1.0688    0.8761 C   0  0  0  0  0  0  0  0  0  0  0  0
    2.1958   -2.3519    2.1267 C   0  0  0  0  0  0  0  0  0  0  0  0
    1.6696   -3.5246    2.7127 C   0  0  0  0  0  0  0  0  0  0  0  0
    2.4764   -4.6809    2.6774 C   0  0  0  0  0  0  0  0  0  0  0  0
    3.7119   -4.6828    2.0957 N   0  0  0  0  0  0  0  0  0  0  0  0
    4.1236   -3.5163    1.5426 C   0  0  0  0  0  0  0  0  0  0  0  0
    3.4310   -2.3686    1.5224 N   0  0  0  0  0  0  0  0  0  0  0  0
    5.7140   -3.4255    0.7407 S   0  0  0  0  0  0  0  0  0  0  0  0
    6.2243   -5.1194    0.7790 C   0  0  0  0  0  0  0  0  0  0  0  0
    6.7953   -5.6404    1.9406 C   0  0  0  0  0  0  0  0  0  0  0  0
    7.0182   -7.0067    2.0399 C   0  0  0  0  0  0  0  0  0  0  0  0
    6.6753   -7.8436    0.9615 C   0  0  0  0  0  0  0  0  0  0  0  0
    6.2359   -7.2986   -0.2522 C   0  0  0  0  0  0  0  0  0  0  0  0
    5.9948   -5.9318   -0.3313 C   0  0  0  0  0  0  0  0  0  0  0  0
    6.6939   -9.2387    1.2014 N   0  0  0  0  0  0  0  0  0  0  0  0
    6.9903  -10.1765    0.2179 C   0  0  0  0  0  0  0  0  0  0  0  0
    7.3839   -9.8375   -0.8772 O   0  0  0  0  0  0  0  0  0  0  0  0
    6.8222  -11.6027    0.6325 C   0  0  0  0  0  0  0  0  0  0  0  0
    6.0609  -12.5047   -0.3231 C   0  0  0  0  0  0  0  0  0  0  0  0
    7.5511  -12.6480   -0.1921 C   0  0  0  0  0  0  0  0  0  0  0  0
    1.9964   -5.8484    3.2468 N   0  0  0  0  0  0  0  0  0  0  0  0
    2.6693   -7.0675    3.3309 C   0  0  0  0  0  0  0  0  0  0  0  0
    2.1913   -8.2703    3.8893 C   0  0  0  0  0  0  0  0  0  0  0  0
    3.2662   -9.1925    3.7368 C   0  0  0  0  0  0  0  0  0  0  0  0
    4.3252   -8.5878    3.1291 N   0  0  0  0  0  0  0  0  0  0  0  0
    3.9595   -7.3009    2.8918 N   0  0  0  0  0  0  0  0  0  0  0  0
    4.5661   -6.6517    2.4024 H   0  0  0  0  0  0  0  0  0  0  0  0
    3.3023  -10.6130    4.1349 C   0  0  0  0  0  0  0  0  0  0  0  0
   -0.5542    1.3228    0.3525 C   0  0  0  0  0  0  0  0  0  0  0  0
    1.8464    0.8667   -0.5848 H   0  0  0  0  0  0  0  0  0  0  0  0
    1.8075   -0.9113   -0.5539 H   0  0  0  0  0  0  0  0  0  0  0  0
    3.2182   -0.0668    1.3429 H   0  0  0  0  0  0  0  0  0  0  0  0
    1.8794    0.9427    1.9564 H   0  0  0  0  0  0  0  0  0  0  0  0
   -0.2932   -1.9128    2.8985 H   0  0  0  0  0  0  0  0  0  0  0  0
   -0.1714   -0.1413    2.8470 H   0  0  0  0  0  0  0  0  0  0  0  0
   -0.3004   -2.0381    0.3691 H   0  0  0  0  0  0  0  0  0  0  0  0
   -1.6214   -0.9909    0.9420 H   0  0  0  0  0  0  0  0  0  0  0  0
    0.7019   -3.5327    3.1881 H   0  0  0  0  0  0  0  0  0  0  0  0
    7.0405   -4.9950    2.7873 H   0  0  0  0  0  0  0  0  0  0  0  0
    7.4245   -7.4357    2.9537 H   0  0  0  0  0  0  0  0  0  0  0  0
    6.0538   -7.9446   -1.1120 H   0  0  0  0  0  0  0  0  0  0  0  0
    5.5963   -5.5172   -1.2607 H   0  0  0  0  0  0  0  0  0  0  0  0
    6.2485   -9.5132    2.0812 H   0  0  0  0  0  0  0  0  0  0  0  0
    6.7163  -11.7656    1.7091 H   0  0  0  0  0  0  0  0  0  0  0  0
    5.6430  -12.0779   -1.2356 H   0  0  0  0  0  0  0  0  0  0  0  0
    5.3972  -13.2649    0.0779 H   0  0  0  0  0  0  0  0  0  0  0  0
    7.9815  -13.5139    0.3009 H   0  0  0  0  0  0  0  0  0  0  0  0
    8.1951  -12.3156   -1.0095 H   0  0  0  0  0  0  0  0  0  0  0  0
    1.0705   -5.8250    3.6709 H   0  0  0  0  0  0  0  0  0  0  0  0
    1.2436   -8.4613    4.3275 H   0  0  0  0  0  0  0  0  0  0  0  0
    4.3200  -10.9459    4.3904 H   0  0  0  0  0  0  0  0  0  0  0  0
    2.9426  -11.2600    3.3177 H   0  0  0  0  0  0  0  0  0  0  0  0
    2.6646  -10.8055    5.0099 H   0  0  0  0  0  0  0  0  0  0  0  0
   -1.6531    1.2861    0.2710 H   0  0  0  0  0  0  0  0  0  0  0  0
   -0.2029    2.0636   -0.3856 H   0  0  0  0  0  0  0  0  0  0  0  0
   -0.2909    1.6823    1.3572 H   0  0  0  0  0  0  0  0  0  0  0  0
  1  2  1  0  0  0  0
  1 34  1  0  0  0  0
  1  6  1  0  0  0  0
  2  3  1  0  0  0  0
  3 38  1  0  0  0  0
  3  4  1  0  0  0  0
  4  5  1  0  0  0  0
  5 40  1  0  0  0  0
  5 39  1  0  0  0  0
  6 42  1  0  0  0  0
  6  5  1  0  0  0  0
  7  4  1  0  0  0  0
  7  8  1  0  0  0  0
  8 43  1  0  0  0  0
  9  8  1  0  0  0  0
  9 26  1  0  0  0  0
 10  9  2  0  0  0  0
 11 10  2  0  0  0  0
 12 11  2  0  0  0  0
 12  7  2  0  0  0  0
 13 14  1  0  0  0  0
 13 11  1  0  0  0  0
 14 15  2  0  0  0  0
 15 16  1  0  0  0  0
 15 44  1  0  0  0  0
 16 45  1  0  0  0  0
 17 20  1  0  0  0  0
 17 16  2  0  0  0  0
 18 17  1  0  0  0  0
 19 18  2  0  0  0  0
 19 14  1  0  0  0  0
 20 48  1  0  0  0  0
 21 23  1  0  0  0  0
 21 20  1  0  0  0  0
 22 21  2  0  0  0  0
 23 49  1  0  0  0  0
 24 25  1  0  0  0  0
 24 51  1  0  0  0  0
 24 23  1  0  0  0  0
 25 52  1  0  0  0  0
 25 23  1  0  0  0  0
 26 27  1  0  0  0  0
 26 54  1  0  0  0  0
 27 28  2  0  0  0  0
 28 55  1  0  0  0  0
 29 28  1  0  0  0  0
 29 33  1  0  0  0  0
 30 29  2  0  0  0  0
 31 30  1  0  0  0  0
 31 27  1  0  0  0  0
 32 31  1  0  0  0  0
 33 56  1  0  0  0  0
 33 58  1  0  0  0  0
 34 61  1  0  0  0  0
 35  2  1  0  0  0  0
 36  2  1  0  0  0  0
 37  3  1  0  0  0  0
 41  6  1  0  0  0  0
 46 18  1  0  0  0  0
 47 19  1  0  0  0  0
 50 24  1  0  0  0  0
 53 25  1  0  0  0  0
 57 33  1  0  0  0  0
 59 34  1  0  0  0  0
 60 34  1  0  0  0  0
M  RAD  1   8   2
M  END
$$$$
