rmsd107.gzmat
 OpenBabel08211713433D

 61 65  0  0  0  0  0  0  0  0999 V2000
    0.0000    0.0000    0.0000 N   0  0  0  0  0  0  0  0  0  0  0  0
    1.4770    0.0000    0.0000 C   0  0  0  0  0  0  0  0  0  0  0  0
    2.1036    0.0000    1.4147 C   0  0  0  0  0  0  0  0  0  0  0  0
    1.5731   -1.1156    2.2241 N   0  0  0  0  0  0  0  0  0  0  0  0
    0.1020   -1.0833    2.2915 C   0  0  0  0  0  0  0  0  0  0  0  0
   -0.5140   -1.0767    0.8678 C   0  0  0  0  0  0  0  0  0  0  0  0
    2.2169   -2.3380    2.1743 C   0  0  0  0  0  0  0  0  0  0  0  0
    1.7043   -3.5047    2.7850 C   0  0  0  0  0  0  0  0  0  0  0  0
    2.5407   -4.6398    2.8090 C   0  0  0  0  0  0  0  0  0  0  0  0
    3.7903   -4.6286    2.2588 N   0  0  0  0  0  0  0  0  0  0  0  0
    4.1870   -3.4714    1.6762 C   0  0  0  0  0  0  0  0  0  0  0  0
    3.4663   -2.3440    1.5983 N   0  0  0  0  0  0  0  0  0  0  0  0
    5.7969   -3.3698    0.9177 S   0  0  0  0  0  0  0  0  0  0  0  0
    6.3995   -5.0175    1.1428 C   0  0  0  0  0  0  0  0  0  0  0  0
    6.3037   -5.9363    0.0983 C   0  0  0  0  0  0  0  0  0  0  0  0
    6.6326   -7.2697    0.3139 C   0  0  0  0  0  0  0  0  0  0  0  0
    7.0256   -7.6777    1.5958 C   0  0  0  0  0  0  0  0  0  0  0  0
    7.2259   -6.7290    2.6170 C   0  0  0  0  0  0  0  0  0  0  0  0
    6.9153   -5.3971    2.3830 C   0  0  0  0  0  0  0  0  0  0  0  0
    7.1433   -9.0383    1.9586 N   0  0  0  0  0  0  0  0  0  0  0  0
    7.4845  -10.0546    1.0697 C   0  0  0  0  0  0  0  0  0  0  0  0
    7.8582   -9.8254   -0.0571 O   0  0  0  0  0  0  0  0  0  0  0  0
    7.4068  -11.4267    1.6660 C   0  0  0  0  0  0  0  0  0  0  0  0
    6.0499  -12.0103    1.9978 C   0  0  0  0  0  0  0  0  0  0  0  0
    6.8236  -12.5340    0.8168 C   0  0  0  0  0  0  0  0  0  0  0  0
    2.0776   -5.8034    3.4008 N   0  0  0  0  0  0  0  0  0  0  0  0
    2.8030   -6.9803    3.5891 C   0  0  0  0  0  0  0  0  0  0  0  0
    2.3841   -8.1432    4.2673 C   0  0  0  0  0  0  0  0  0  0  0  0
    3.4926   -9.0332    4.1775 C   0  0  0  0  0  0  0  0  0  0  0  0
    4.5143   -8.4477    3.4931 N   0  0  0  0  0  0  0  0  0  0  0  0
    4.0861   -7.2110    3.1291 N   0  0  0  0  0  0  0  0  0  0  0  0
    4.6755   -6.5696    2.6094 H   0  0  0  0  0  0  0  0  0  0  0  0
    3.5997  -10.4015    4.7187 C   0  0  0  0  0  0  0  0  0  0  0  0
   -0.5520    1.3206    0.3637 C   0  0  0  0  0  0  0  0  0  0  0  0
    1.8459    0.8681   -0.5831 H   0  0  0  0  0  0  0  0  0  0  0  0
    1.8073   -0.9105   -0.5549 H   0  0  0  0  0  0  0  0  0  0  0  0
    3.2162   -0.0652    1.3447 H   0  0  0  0  0  0  0  0  0  0  0  0
    1.8766    0.9435    1.9562 H   0  0  0  0  0  0  0  0  0  0  0  0
   -0.2911   -1.9349    2.8831 H   0  0  0  0  0  0  0  0  0  0  0  0
   -0.1859   -0.1611    2.8466 H   0  0  0  0  0  0  0  0  0  0  0  0
   -0.2904   -2.0423    0.3569 H   0  0  0  0  0  0  0  0  0  0  0  0
   -1.6191   -1.0049    0.9289 H   0  0  0  0  0  0  0  0  0  0  0  0
    0.7262   -3.5217    3.2380 H   0  0  0  0  0  0  0  0  0  0  0  0
    5.9442   -5.6323   -0.8880 H   0  0  0  0  0  0  0  0  0  0  0  0
    6.5525   -7.9966   -0.4956 H   0  0  0  0  0  0  0  0  0  0  0  0
    7.5931   -7.0464    3.5905 H   0  0  0  0  0  0  0  0  0  0  0  0
    7.0506   -4.6671    3.1844 H   0  0  0  0  0  0  0  0  0  0  0  0
    6.7101   -9.2717    2.8572 H   0  0  0  0  0  0  0  0  0  0  0  0
    8.2635  -11.6439    2.3145 H   0  0  0  0  0  0  0  0  0  0  0  0
    5.1529  -11.4132    1.8351 H   0  0  0  0  0  0  0  0  0  0  0  0
    5.9336  -12.6223    2.8877 H   0  0  0  0  0  0  0  0  0  0  0  0
    7.2691  -13.5242    0.8464 H   0  0  0  0  0  0  0  0  0  0  0  0
    6.4921  -12.3051   -0.1962 H   0  0  0  0  0  0  0  0  0  0  0  0
    1.1390   -5.7947    3.7960 H   0  0  0  0  0  0  0  0  0  0  0  0
    1.4543   -8.3282    4.7438 H   0  0  0  0  0  0  0  0  0  0  0  0
    2.7971  -11.0477    4.3299 H   0  0  0  0  0  0  0  0  0  0  0  0
    3.5181  -10.4023    5.8172 H   0  0  0  0  0  0  0  0  0  0  0  0
    4.5594  -10.8763    4.4621 H   0  0  0  0  0  0  0  0  0  0  0  0
   -1.6529    1.2757    0.3342 H   0  0  0  0  0  0  0  0  0  0  0  0
   -0.2397    2.0540   -0.3991 H   0  0  0  0  0  0  0  0  0  0  0  0
   -0.2447    1.6952    1.3503 H   0  0  0  0  0  0  0  0  0  0  0  0
  1 34  1  0  0  0  0
  1  6  1  0  0  0  0
  2  1  1  0  0  0  0
  2  3  1  0  0  0  0
  3 38  1  0  0  0  0
  3  4  1  0  0  0  0
  4  5  1  0  0  0  0
  5 40  1  0  0  0  0
  5 39  1  0  0  0  0
  6 42  1  0  0  0  0
  6  5  1  0  0  0  0
  7  4  1  0  0  0  0
  7  8  1  0  0  0  0
  8  9  1  0  0  0  0
  8 43  1  0  0  0  0
  9 26  1  0  0  0  0
 10  9  2  0  0  0  0
 11 10  2  0  0  0  0
 12 11  2  0  0  0  0
 12  7  2  0  0  0  0
 13 14  1  0  0  0  0
 13 11  1  0  0  0  0
 14 19  2  0  0  0  0
 15 16  2  0  0  0  0
 15 14  1  0  0  0  0
 16 17  1  0  0  0  0
 17 20  1  0  0  0  0
 17 18  2  0  0  0  0
 18 46  1  0  0  0  0
 19 18  1  0  0  0  0
 19 47  1  0  0  0  0
 20 48  1  0  0  0  0
 21 23  1  0  0  0  0
 21 20  1  0  0  0  0
 22 21  2  0  0  0  0
 23 24  1  0  0  0  0
 23 49  1  0  0  0  0
 24 51  1  0  0  0  0
 25 52  1  0  0  0  0
 25 23  1  0  0  0  0
 25 24  1  0  0  0  0
 26 27  1  0  0  0  0
 26 54  1  0  0  0  0
 27 28  2  0  0  0  0
 28 55  1  0  0  0  0
 29 28  1  0  0  0  0
 29 33  1  0  0  0  0
 30 29  2  0  0  0  0
 31 30  1  0  0  0  0
 31 27  1  0  0  0  0
 32 31  1  0  0  0  0
 33 57  1  0  0  0  0
 34 61  1  0  0  0  0
 35  2  1  0  0  0  0
 36  2  1  0  0  0  0
 37  3  1  0  0  0  0
 41  6  1  0  0  0  0
 44 15  1  0  0  0  0
 45 16  1  0  0  0  0
 50 24  1  0  0  0  0
 53 25  1  0  0  0  0
 56 33  1  0  0  0  0
 58 33  1  0  0  0  0
 59 34  1  0  0  0  0
 60 34  1  0  0  0  0
M  RAD  1   8   2
M  END
$$$$
