rmsd238.gzmat
 OpenBabel08211713433D

 61 65  0  0  0  0  0  0  0  0999 V2000
    0.0000    0.0000    0.0000 N   0  0  0  0  0  0  0  0  0  0  0  0
    1.4772    0.0000    0.0000 C   0  0  0  0  0  0  0  0  0  0  0  0
    2.1051    0.0000    1.4144 C   0  0  0  0  0  0  0  0  0  0  0  0
    1.5746   -1.1160    2.2235 N   0  0  0  0  0  0  0  0  0  0  0  0
    0.1038   -1.0757    2.2941 C   0  0  0  0  0  0  0  0  0  0  0  0
   -0.5143   -1.0738    0.8714 C   0  0  0  0  0  0  0  0  0  0  0  0
    2.2106   -2.3431    2.1589 C   0  0  0  0  0  0  0  0  0  0  0  0
    1.6804   -3.5171    2.7390 C   0  0  0  0  0  0  0  0  0  0  0  0
    2.5114   -4.6566    2.7588 C   0  0  0  0  0  0  0  0  0  0  0  0
    3.7716   -4.6401    2.2348 N   0  0  0  0  0  0  0  0  0  0  0  0
    4.1796   -3.4796    1.6699 C   0  0  0  0  0  0  0  0  0  0  0  0
    3.4670   -2.3464    1.5971 N   0  0  0  0  0  0  0  0  0  0  0  0
    5.7955   -3.4119    0.9256 S   0  0  0  0  0  0  0  0  0  0  0  0
    6.3978   -5.0459    1.2319 C   0  0  0  0  0  0  0  0  0  0  0  0
    6.1577   -6.0611    0.3059 C   0  0  0  0  0  0  0  0  0  0  0  0
    6.5700   -7.3612    0.5701 C   0  0  0  0  0  0  0  0  0  0  0  0
    7.2147   -7.6496    1.7825 C   0  0  0  0  0  0  0  0  0  0  0  0
    7.4978   -6.6097    2.6946 C   0  0  0  0  0  0  0  0  0  0  0  0
    7.0868   -5.3151    2.4143 C   0  0  0  0  0  0  0  0  0  0  0  0
    7.5844   -8.9478    2.1739 N   0  0  0  0  0  0  0  0  0  0  0  0
    7.3257  -10.1171    1.4489 C   0  0  0  0  0  0  0  0  0  0  0  0
    6.9393  -10.1093    0.3061 O   0  0  0  0  0  0  0  0  0  0  0  0
    7.6192  -11.3734    2.2131 C   0  0  0  0  0  0  0  0  0  0  0  0
    6.9344  -11.6171    3.5408 C   0  0  0  0  0  0  0  0  0  0  0  0
    6.5087  -12.3951    2.3240 C   0  0  0  0  0  0  0  0  0  0  0  0
    2.0461   -5.8275    3.3282 N   0  0  0  0  0  0  0  0  0  0  0  0
    2.7425   -7.0349    3.4059 C   0  0  0  0  0  0  0  0  0  0  0  0
    2.2270   -8.2847    3.7987 C   0  0  0  0  0  0  0  0  0  0  0  0
    3.3465   -9.1661    3.7596 C   0  0  0  0  0  0  0  0  0  0  0  0
    4.4643   -8.4935    3.3693 N   0  0  0  0  0  0  0  0  0  0  0  0
    4.0991   -7.1997    3.1775 N   0  0  0  0  0  0  0  0  0  0  0  0
    4.7370   -6.5284    2.7647 H   0  0  0  0  0  0  0  0  0  0  0  0
    3.3656  -10.6042    4.0883 C   0  0  0  0  0  0  0  0  0  0  0  0
   -0.5537    1.3209    0.3601 C   0  0  0  0  0  0  0  0  0  0  0  0
    1.8462    0.8674   -0.5837 H   0  0  0  0  0  0  0  0  0  0  0  0
    1.8071   -0.9108   -0.5544 H   0  0  0  0  0  0  0  0  0  0  0  0
    3.2173   -0.0661    1.3434 H   0  0  0  0  0  0  0  0  0  0  0  0
    1.8782    0.9434    1.9555 H   0  0  0  0  0  0  0  0  0  0  0  0
   -0.2926   -1.9211    2.8923 H   0  0  0  0  0  0  0  0  0  0  0  0
   -0.1783   -0.1489    2.8442 H   0  0  0  0  0  0  0  0  0  0  0  0
   -0.2917   -2.0407    0.3627 H   0  0  0  0  0  0  0  0  0  0  0  0
   -1.6192   -1.0008    0.9347 H   0  0  0  0  0  0  0  0  0  0  0  0
    0.6928   -3.5394    3.1698 H   0  0  0  0  0  0  0  0  0  0  0  0
    5.6274   -5.8555   -0.6284 H   0  0  0  0  0  0  0  0  0  0  0  0
    6.3627   -8.1503   -0.1566 H   0  0  0  0  0  0  0  0  0  0  0  0
    8.0182   -6.8223    3.6241 H   0  0  0  0  0  0  0  0  0  0  0  0
    7.2957   -4.5217    3.1362 H   0  0  0  0  0  0  0  0  0  0  0  0
    7.8742   -9.0530    3.1455 H   0  0  0  0  0  0  0  0  0  0  0  0
    8.6489  -11.7164    2.0598 H   0  0  0  0  0  0  0  0  0  0  0  0
    6.2700  -10.8541    3.9525 H   0  0  0  0  0  0  0  0  0  0  0  0
    7.4755  -12.1118    4.3422 H   0  0  0  0  0  0  0  0  0  0  0  0
    6.7438  -13.4523    2.2386 H   0  0  0  0  0  0  0  0  0  0  0  0
    5.5487  -12.1869    1.8499 H   0  0  0  0  0  0  0  0  0  0  0  0
    1.0935   -5.8409    3.6862 H   0  0  0  0  0  0  0  0  0  0  0  0
    1.2291   -8.5318    4.0618 H   0  0  0  0  0  0  0  0  0  0  0  0
    3.6471  -10.7671    5.1406 H   0  0  0  0  0  0  0  0  0  0  0  0
    4.0863  -11.1598    3.4675 H   0  0  0  0  0  0  0  0  0  0  0  0
    2.3794  -11.0671    3.9363 H   0  0  0  0  0  0  0  0  0  0  0  0
   -1.6536    1.2804    0.2975 H   0  0  0  0  0  0  0  0  0  0  0  0
   -0.2166    2.0611   -0.3853 H   0  0  0  0  0  0  0  0  0  0  0  0
   -0.2746    1.6836    1.3595 H   0  0  0  0  0  0  0  0  0  0  0  0
  1 34  1  0  0  0  0
  1  6  1  0  0  0  0
  2  1  1  0  0  0  0
  2  3  1  0  0  0  0
  3 38  1  0  0  0  0
  3  4  1  0  0  0  0
  4  5  1  0  0  0  0
  5 40  1  0  0  0  0
  5 39  1  0  0  0  0
  6 42  1  0  0  0  0
  6  5  1  0  0  0  0
  7  4  1  0  0  0  0
  7  8  1  0  0  0  0
  8  9  1  0  0  0  0
  8 43  1  0  0  0  0
  9 26  1  0  0  0  0
 10  9  2  0  0  0  0
 11 10  2  0  0  0  0
 12 11  2  0  0  0  0
 12  7  2  0  0  0  0
 13 14  1  0  0  0  0
 13 11  1  0  0  0  0
 14 19  2  0  0  0  0
 15 16  2  0  0  0  0
 15 14  1  0  0  0  0
 16 17  1  0  0  0  0
 17 20  1  0  0  0  0
 17 18  2  0  0  0  0
 18 46  1  0  0  0  0
 19 18  1  0  0  0  0
 19 47  1  0  0  0  0
 20 48  1  0  0  0  0
 21 20  1  0  0  0  0
 21 23  1  0  0  0  0
 22 21  2  0  0  0  0
 23 25  1  0  0  0  0
 23 24  1  0  0  0  0
 24 50  1  0  0  0  0
 24 51  1  0  0  0  0
 25 24  1  0  0  0  0
 26 27  1  0  0  0  0
 26 54  1  0  0  0  0
 27 28  2  0  0  0  0
 28 55  1  0  0  0  0
 29 28  1  0  0  0  0
 29 33  1  0  0  0  0
 30 29  2  0  0  0  0
 31 30  1  0  0  0  0
 31 27  1  0  0  0  0
 32 31  1  0  0  0  0
 33 56  1  0  0  0  0
 34 61  1  0  0  0  0
 35  2  1  0  0  0  0
 36  2  1  0  0  0  0
 37  3  1  0  0  0  0
 41  6  1  0  0  0  0
 44 15  1  0  0  0  0
 45 16  1  0  0  0  0
 49 23  1  0  0  0  0
 52 25  1  0  0  0  0
 53 25  1  0  0  0  0
 57 33  1  0  0  0  0
 58 33  1  0  0  0  0
 59 34  1  0  0  0  0
 60 34  1  0  0  0  0
M  RAD  1   8   2
M  END
$$$$
