61
rmsd107.gzmat
N          0.00000        0.00000        0.00000
C          1.47700        0.00000        0.00000
C          2.10360        0.00000        1.41470
N          1.57310       -1.11560        2.22410
C          0.10200       -1.08330        2.29150
C         -0.51400       -1.07670        0.86780
C          2.21690       -2.33800        2.17430
C          1.70430       -3.50470        2.78500
C          2.54070       -4.63980        2.80900
N          3.79030       -4.62860        2.25880
C          4.18700       -3.47140        1.67620
N          3.46630       -2.34400        1.59830
S          5.79690       -3.36980        0.91770
C          6.39950       -5.01750        1.14280
C          6.30370       -5.93630        0.09830
C          6.63260       -7.26970        0.31390
C          7.02560       -7.67770        1.59580
C          7.22590       -6.72900        2.61700
C          6.91530       -5.39710        2.38300
N          7.14330       -9.03830        1.95860
C          7.48450      -10.05460        1.06970
O          7.85820       -9.82540       -0.05710
C          7.40680      -11.42670        1.66600
C          6.04990      -12.01030        1.99780
C          6.82360      -12.53400        0.81680
N          2.07760       -5.80340        3.40080
C          2.80300       -6.98030        3.58910
C          2.38410       -8.14320        4.26730
C          3.49260       -9.03320        4.17750
N          4.51430       -8.44770        3.49310
N          4.08610       -7.21100        3.12910
H          4.67550       -6.56960        2.60940
C          3.59970      -10.40150        4.71870
C         -0.55200        1.32060        0.36370
H          1.84590        0.86810       -0.58310
H          1.80730       -0.91050       -0.55490
H          3.21620       -0.06520        1.34470
H          1.87660        0.94350        1.95620
H         -0.29110       -1.93490        2.88310
H         -0.18590       -0.16110        2.84660
H         -0.29040       -2.04230        0.35690
H         -1.61910       -1.00490        0.92890
H          0.72620       -3.52170        3.23800
H          5.94420       -5.63230       -0.88800
H          6.55250       -7.99660       -0.49560
H          7.59310       -7.04640        3.59050
H          7.05060       -4.66710        3.18440
H          6.71010       -9.27170        2.85720
H          8.26350      -11.64390        2.31450
H          5.15290      -11.41320        1.83510
H          5.93360      -12.62230        2.88770
H          7.26910      -13.52420        0.84640
H          6.49210      -12.30510       -0.19620
H          1.13900       -5.79470        3.79600
H          1.45430       -8.32820        4.74380
H          2.79710      -11.04770        4.32990
H          3.51810      -10.40230        5.81720
H          4.55940      -10.87630        4.46210
H         -1.65290        1.27570        0.33420
H         -0.23970        2.05400       -0.39910
H         -0.24470        1.69520        1.35030
