61
rmsd216.gzmat
N          0.00000        0.00000        0.00000
C          1.47720        0.00000        0.00000
C          2.10620        0.00000        1.41400
N          1.57590       -1.11770        2.22210
C          0.10480       -1.07020        2.29780
C         -0.51700       -1.06880        0.87610
C          2.19580       -2.35190        2.12670
C          1.66960       -3.52460        2.71270
C          2.47640       -4.68090        2.67740
N          3.71190       -4.68280        2.09570
C          4.12360       -3.51630        1.54260
N          3.43100       -2.36860        1.52240
S          5.71400       -3.42550        0.74070
C          6.22430       -5.11940        0.77900
C          6.79530       -5.64040        1.94060
C          7.01820       -7.00670        2.03990
C          6.67530       -7.84360        0.96150
C          6.23590       -7.29860       -0.25220
C          5.99480       -5.93180       -0.33130
N          6.69390       -9.23870        1.20140
C          6.99030      -10.17650        0.21790
O          7.38390       -9.83750       -0.87720
C          6.82220      -11.60270        0.63250
C          6.06090      -12.50470       -0.32310
C          7.55110      -12.64800       -0.19210
N          1.99640       -5.84840        3.24680
C          2.66930       -7.06750        3.33090
C          2.19130       -8.27030        3.88930
C          3.26620       -9.19250        3.73680
N          4.32520       -8.58780        3.12910
N          3.95950       -7.30090        2.89180
H          4.56610       -6.65170        2.40240
C          3.30230      -10.61300        4.13490
C         -0.55420        1.32280        0.35250
H          1.84640        0.86670       -0.58480
H          1.80750       -0.91130       -0.55390
H          3.21820       -0.06680        1.34290
H          1.87940        0.94270        1.95640
H         -0.29320       -1.91280        2.89850
H         -0.17140       -0.14130        2.84700
H         -0.30040       -2.03810        0.36910
H         -1.62140       -0.99090        0.94200
H          0.70190       -3.53270        3.18810
H          7.04050       -4.99500        2.78730
H          7.42450       -7.43570        2.95370
H          6.05380       -7.94460       -1.11200
H          5.59630       -5.51720       -1.26070
H          6.24850       -9.51320        2.08120
H          6.71630      -11.76560        1.70910
H          5.64300      -12.07790       -1.23560
H          5.39720      -13.26490        0.07790
H          7.98150      -13.51390        0.30090
H          8.19510      -12.31560       -1.00950
H          1.07050       -5.82500        3.67090
H          1.24360       -8.46130        4.32750
H          4.32000      -10.94590        4.39040
H          2.94260      -11.26000        3.31770
H          2.66460      -10.80550        5.00990
H         -1.65310        1.28610        0.27100
H         -0.20290        2.06360       -0.38560
H         -0.29090        1.68230        1.35720
