61

N         -0.14020        0.76860        0.32640
C          1.20670        0.51420       -0.15150
C          2.08740       -0.26840        0.83860
N          1.40510       -1.47920        1.27000
C          0.03460       -1.28040        1.74500
C         -0.77420       -0.48400        0.71770
C          2.05910       -2.65780        1.50330
C          3.44470       -2.83330        1.29740
C          3.96930       -4.10750        1.56050
N          3.20650       -5.12730        1.99040
C          1.91210       -4.84940        2.15400
N          1.30990       -3.69100        1.94630
S          0.79270       -6.12390        2.72120
C          1.87560       -7.53910        2.69680
C          1.93070       -8.36120        1.56490
C          2.92070       -9.33450        1.43520
C          3.89090       -9.46870        2.44210
C          3.75790       -8.72860        3.63160
C          2.76010       -7.76820        3.75830
N          5.07080      -10.21250        2.28660
C          5.31750      -11.19750        1.36280
O          4.45640      -11.71500        0.66780
C          6.75890      -11.60190        1.28120
C          7.04910      -13.04690        0.93010
C          7.28290      -11.98310       -0.09030
N          5.31740       -4.33470        1.38500
C          6.05370       -5.47230        1.68130
C          7.42580       -5.68320        1.55460
C          7.62410       -7.00800        2.02640
N          6.47200       -7.55560        2.40920
N          5.52940       -6.61130        2.18680
H          4.54070       -6.74950        2.38830
C          8.90580       -7.77640        2.10460
C         -0.25240        1.83980        1.29720
H          1.69670        1.46910       -0.40040
H          1.13770       -0.07640       -1.08240
H          3.02760       -0.52550        0.33650
H          2.34350        0.36070        1.71460
H         -0.40720       -2.26610        1.92480
H          0.05860       -0.74400        2.71410
H         -0.90080       -1.10500       -0.18670
H         -1.77870       -0.27540        1.11850
H          4.10120       -2.02820        0.97550
H          1.22330       -8.19590        0.74980
H          2.99020       -9.95190        0.54230
H          4.49250       -8.86570        4.42700
H          2.69910       -7.14960        4.65550
H          5.87950       -9.71350        2.65970
H          7.44850      -11.09520        1.96170
H          6.17150      -13.68410        0.79640
H          7.90930      -13.51770        1.41280
H          8.30920      -11.69440       -0.33140
H          6.56420      -11.90740       -0.91010
H          5.86210       -3.55280        1.04700
H          8.17020       -4.98380        1.18180
H          9.29810       -8.00780        1.10030
H          8.74450       -8.72540        2.63570
H          9.68450       -7.20920        2.63880
H         -1.31540        2.02450        1.51930
H          0.16530        2.76690        0.87290
H          0.26030        1.65970        2.26740
