61
rmsd45.gzmat
N          0.00000        0.00000        0.00000
C          1.47720        0.00000        0.00000
C          2.10200        0.00000        1.41530
N          1.57740       -1.12610        2.21450
C          0.10630       -1.09540        2.28700
C         -0.51460       -1.07880        0.86550
C          2.22080       -2.34760        2.13790
C          1.70500       -3.52970        2.71490
C          2.53560       -4.66900        2.70070
N          3.78900       -4.64440        2.15900
C          4.19380       -3.46830        1.62110
N          3.47340       -2.33930        1.56900
S          5.80900       -3.34280        0.87270
C          6.54380       -4.87070        1.37790
C          7.32130       -4.90480        2.53570
C          7.74860       -6.12400        3.04840
C          7.36220       -7.30700        2.40320
C          6.68900       -7.26140        1.16810
C          6.28300       -6.03630        0.65710
N          7.51910       -8.57770        3.00370
C          8.58820       -8.90830        3.82950
O          9.53320       -8.16220        3.96680
C          8.48600      -10.24960        4.48200
C          9.59120      -11.24910        4.19240
C          9.52420      -10.58190        5.53730
N          2.06420       -5.84800        3.25450
C          2.71970       -7.07930        3.25520
C          2.18650       -8.33240        3.61700
C          3.26920       -9.24530        3.46090
N          4.38260       -8.58910        3.03140
N          4.05040       -7.27470        2.93120
H          4.69290       -6.58820        2.54980
C          3.26220      -10.70040        3.70440
C         -0.55390        1.31860        0.36790
H          1.84730        0.86640       -0.58440
H          1.80760       -0.91160       -0.55250
H          3.21500       -0.05620        1.34820
H          1.86520        0.93830        1.96080
H         -0.28440       -1.95160        2.87360
H         -0.18090       -0.17820        2.85020
H         -0.29670       -2.04260        0.34900
H         -1.61930       -1.00270        0.93230
H          0.72660       -3.55730        3.16690
H          7.57700       -3.98630        3.06960
H          8.34600       -6.16420        3.96000
H          6.45690       -8.18440        0.64050
H          5.73350       -6.00540       -0.28660
H          6.68910       -9.17300        2.94160
H          7.46370      -10.61690        4.62000
H         10.38680      -10.97690        3.49900
H          9.34200      -12.30080        4.08660
H          9.23160      -11.14300        6.41930
H         10.26770       -9.82500        5.79770
H          1.12670       -5.84560        3.65230
H          1.19990       -8.56130        3.93400
H          3.05930      -10.92560        4.76320
H          4.22340      -11.17130        3.44590
H          2.48230      -11.20010        3.10830
H         -1.65290        1.28280        0.28560
H         -0.20210        2.06790       -0.36140
H         -0.29160        1.66630        1.37720
