rmsd174.gzmat
 OpenBabel08211713423D

 21 21  0  0  0  0  0  0  0  0999 V2000
    0.0000    0.0000    0.0000 C   0  0  0  0  0  0  0  0  0  0  0  0
    1.2018    0.0000    0.0000 O   0  0  0  0  0  0  0  0  0  0  0  0
   -0.6922    0.0000   -1.1724 O   0  0  0  0  0  0  0  0  0  0  0  0
   -0.9524    0.0070    1.1496 C   0  0  0  0  0  0  0  0  0  0  0  0
   -0.2001   -0.1278    2.4788 C   0  0  0  0  0  0  0  0  0  0  0  0
   -1.1795   -0.0319    3.6087 C   0  0  0  0  0  0  0  0  0  0  0  0
   -1.6624   -1.1908    4.2189 C   0  0  0  0  0  0  0  0  0  0  0  0
   -2.6001   -1.0989    5.2456 C   0  0  0  0  0  0  0  0  0  0  0  0
   -3.0597    0.1483    5.6638 C   0  0  0  0  0  0  0  0  0  0  0  0
   -2.5738    1.3068    5.0592 C   0  0  0  0  0  0  0  0  0  0  0  0
   -1.6328    1.2184    4.0365 C   0  0  0  0  0  0  0  0  0  0  0  0
   -0.1181    0.0057   -1.9752 H   0  0  0  0  0  0  0  0  0  0  0  0
   -1.7004   -0.8096    1.0376 H   0  0  0  0  0  0  0  0  0  0  0  0
   -1.5555    0.9430    1.1329 H   0  0  0  0  0  0  0  0  0  0  0  0
    0.5863    0.6540    2.5601 H   0  0  0  0  0  0  0  0  0  0  0  0
    0.3625   -1.0846    2.5088 H   0  0  0  0  0  0  0  0  0  0  0  0
   -1.3098   -2.1675    3.8943 H   0  0  0  0  0  0  0  0  0  0  0  0
   -2.9747   -2.0039    5.7203 H   0  0  0  0  0  0  0  0  0  0  0  0
   -3.7963    0.2196    6.4609 H   0  0  0  0  0  0  0  0  0  0  0  0
   -2.9325    2.2804    5.3888 H   0  0  0  0  0  0  0  0  0  0  0  0
   -1.2514    2.1243    3.5703 H   0  0  0  0  0  0  0  0  0  0  0  0
  1  4  1  0  0  0  0
  2  1  2  0  0  0  0
  3  1  1  0  0  0  0
  4  5  1  0  0  0  0
  5 16  1  0  0  0  0
  5 15  1  0  0  0  0
  5  6  1  0  0  0  0
  6 11  2  0  0  0  0
  6  7  1  0  0  0  0
  7  8  2  0  0  0  0
  8  9  1  0  0  0  0
  8 18  1  0  0  0  0
  9 19  1  0  0  0  0
 10 20  1  0  0  0  0
 10  9  2  0  0  0  0
 11 10  1  0  0  0  0
 12  3  1  0  0  0  0
 13  4  1  0  0  0  0
 14  4  1  0  0  0  0
 17  7  1  0  0  0  0
 21 11  1  0  0  0  0
M  END
$$$$
