21
rmsd160.gzmat
C          0.00000        0.00000        0.00000
O          1.20210        0.00000        0.00000
O         -0.69060        0.00000       -1.17290
C         -0.94870        0.00340        1.15370
C         -0.20520       -0.33400        2.45160
C         -1.16910       -0.36290        3.59730
C         -1.93170       -1.50880        3.83590
C         -2.83180       -1.53860        4.89790
C         -2.97180       -0.42640        5.72670
C         -2.21150        0.71700        5.48940
C         -1.31200        0.75140        4.42590
H         -0.11280        0.00710       -1.97400
H         -1.78370       -0.71080        0.97580
H         -1.44320        0.99790        1.23240
H          0.61010        0.40100        2.62610
H          0.31940       -1.30890        2.35560
H         -1.82160       -2.38040        3.19430
H         -3.42530       -2.43190        5.08270
H         -3.67170       -0.45350        6.55840
H         -2.31810        1.58530        6.13640
H         -0.72070        1.64700        4.24700
