21
rmsd153.gzmat
C          0.00000        0.00000        0.00000
O          1.20190        0.00000        0.00000
O         -0.69220        0.00000       -1.17180
C         -0.95110       -0.00700        1.15130
C         -0.18730        0.13140        2.47320
C         -1.15040        0.07140        3.61880
C         -1.41200       -1.14460        4.25280
C         -2.31530       -1.19850        5.31210
C         -2.96130       -0.03990        5.73970
C         -2.70120        1.17450        5.10650
C         -1.79790        1.23180        4.04790
H         -0.11710       -0.00030       -1.97460
H         -1.55070       -0.94560        1.13860
H         -1.70060        0.80820        1.04000
H          0.38920        1.08140        2.48750
H          0.58730       -0.66230        2.55240
H         -0.91030       -2.05130        3.92120
H         -2.51620       -2.14690        5.80680
H         -3.66720       -0.08270        6.56610
H         -3.20360        2.07980        5.44140
H         -1.59680        2.18160        3.55670
