rmsd172.gzmat
 OpenBabel08211713423D

 21 21  0  0  0  0  0  0  0  0999 V2000
    0.0000    0.0000    0.0000 C   0  0  0  0  0  0  0  0  0  0  0  0
    1.2021    0.0000    0.0000 O   0  0  0  0  0  0  0  0  0  0  0  0
   -0.6911    0.0000   -1.1724 O   0  0  0  0  0  0  0  0  0  0  0  0
   -0.9462   -0.0077    1.1556 C   0  0  0  0  0  0  0  0  0  0  0  0
   -0.2213    0.4423    2.4296 C   0  0  0  0  0  0  0  0  0  0  0  0
   -1.1413    0.3337    3.6069 C   0  0  0  0  0  0  0  0  0  0  0  0
   -2.0960    1.3258    3.8422 C   0  0  0  0  0  0  0  0  0  0  0  0
   -2.9566    1.2205    4.9321 C   0  0  0  0  0  0  0  0  0  0  0  0
   -2.8644    0.1288    5.7941 C   0  0  0  0  0  0  0  0  0  0  0  0
   -1.9093   -0.8598    5.5627 C   0  0  0  0  0  0  0  0  0  0  0  0
   -1.0504   -0.7601    4.4699 C   0  0  0  0  0  0  0  0  0  0  0  0
   -0.1135   -0.0057   -1.9738 H   0  0  0  0  0  0  0  0  0  0  0  0
   -1.3693   -1.0294    1.2834 H   0  0  0  0  0  0  0  0  0  0  0  0
   -1.8273    0.6394    0.9500 H   0  0  0  0  0  0  0  0  0  0  0  0
    0.1500    1.4831    2.3140 H   0  0  0  0  0  0  0  0  0  0  0  0
    0.6992   -0.1652    2.5781 H   0  0  0  0  0  0  0  0  0  0  0  0
   -2.1667    2.1825    3.1757 H   0  0  0  0  0  0  0  0  0  0  0  0
   -3.7015    1.9929    5.1137 H   0  0  0  0  0  0  0  0  0  0  0  0
   -3.5363    0.0493    6.6461 H   0  0  0  0  0  0  0  0  0  0  0  0
   -1.8341   -1.7106    6.2381 H   0  0  0  0  0  0  0  0  0  0  0  0
   -0.3074   -1.5349    4.2904 H   0  0  0  0  0  0  0  0  0  0  0  0
  1  4  1  0  0  0  0
  2  1  2  0  0  0  0
  3  1  1  0  0  0  0
  4 13  1  0  0  0  0
  4  5  1  0  0  0  0
  5 16  1  0  0  0  0
  5  6  1  0  0  0  0
  6  7  2  0  0  0  0
  6 11  1  0  0  0  0
  7  8  1  0  0  0  0
  8 18  1  0  0  0  0
  8  9  2  0  0  0  0
  9 19  1  0  0  0  0
 10  9  1  0  0  0  0
 10 20  1  0  0  0  0
 11 10  2  0  0  0  0
 12  3  1  0  0  0  0
 14  4  1  0  0  0  0
 15  5  1  0  0  0  0
 17  7  1  0  0  0  0
 21 11  1  0  0  0  0
M  END
$$$$
