rmsd167.gzmat
 OpenBabel08211713423D

 21 21  0  0  0  0  0  0  0  0999 V2000
    0.0000    0.0000    0.0000 C   0  0  0  0  0  0  0  0  0  0  0  0
    1.2019    0.0000    0.0000 O   0  0  0  0  0  0  0  0  0  0  0  0
   -0.6927    0.0000   -1.1714 O   0  0  0  0  0  0  0  0  0  0  0  0
   -0.9495    0.0133    1.1525 C   0  0  0  0  0  0  0  0  0  0  0  0
   -0.2167   -0.3421    2.4514 C   0  0  0  0  0  0  0  0  0  0  0  0
   -1.1239   -0.1042    3.6190 C   0  0  0  0  0  0  0  0  0  0  0  0
   -2.0702   -1.0660    3.9801 C   0  0  0  0  0  0  0  0  0  0  0  0
   -2.9183   -0.8374    5.0611 C   0  0  0  0  0  0  0  0  0  0  0  0
   -2.8294    0.3530    5.7811 C   0  0  0  0  0  0  0  0  0  0  0  0
   -1.8870    1.3139    5.4198 C   0  0  0  0  0  0  0  0  0  0  0  0
   -1.0346    1.0870    4.3415 C   0  0  0  0  0  0  0  0  0  0  0  0
   -0.1183    0.0055   -1.9744 H   0  0  0  0  0  0  0  0  0  0  0  0
   -1.7974   -0.6840    0.9714 H   0  0  0  0  0  0  0  0  0  0  0  0
   -1.4216    1.0192    1.2314 H   0  0  0  0  0  0  0  0  0  0  0  0
    0.7191    0.2534    2.5417 H   0  0  0  0  0  0  0  0  0  0  0  0
    0.1314   -1.3962    2.4231 H   0  0  0  0  0  0  0  0  0  0  0  0
   -2.1453   -1.9936    3.4171 H   0  0  0  0  0  0  0  0  0  0  0  0
   -3.6513   -1.5893    5.3480 H   0  0  0  0  0  0  0  0  0  0  0  0
   -3.4947    0.5307    6.6232 H   0  0  0  0  0  0  0  0  0  0  0  0
   -1.8155    2.2433    5.9813 H   0  0  0  0  0  0  0  0  0  0  0  0
   -0.2992    1.8398    4.0638 H   0  0  0  0  0  0  0  0  0  0  0  0
  1  4  1  0  0  0  0
  2  1  2  0  0  0  0
  3  1  1  0  0  0  0
  4 14  1  0  0  0  0
  4  5  1  0  0  0  0
  5 15  1  0  0  0  0
  5  6  1  0  0  0  0
  6  7  2  0  0  0  0
  6 11  1  0  0  0  0
  7  8  1  0  0  0  0
  8 18  1  0  0  0  0
  8  9  2  0  0  0  0
  9 19  1  0  0  0  0
 10  9  1  0  0  0  0
 10 20  1  0  0  0  0
 11 10  2  0  0  0  0
 12  3  1  0  0  0  0
 13  4  1  0  0  0  0
 16  5  1  0  0  0  0
 17  7  1  0  0  0  0
 21 11  1  0  0  0  0
M  END
$$$$
