rmsd153.gzmat
 OpenBabel08211713423D

 21 21  0  0  0  0  0  0  0  0999 V2000
    0.0000    0.0000    0.0000 C   0  0  0  0  0  0  0  0  0  0  0  0
    1.2019    0.0000    0.0000 O   0  0  0  0  0  0  0  0  0  0  0  0
   -0.6922    0.0000   -1.1718 O   0  0  0  0  0  0  0  0  0  0  0  0
   -0.9511   -0.0070    1.1513 C   0  0  0  0  0  0  0  0  0  0  0  0
   -0.1873    0.1314    2.4732 C   0  0  0  0  0  0  0  0  0  0  0  0
   -1.1504    0.0714    3.6188 C   0  0  0  0  0  0  0  0  0  0  0  0
   -1.4120   -1.1446    4.2528 C   0  0  0  0  0  0  0  0  0  0  0  0
   -2.3153   -1.1985    5.3121 C   0  0  0  0  0  0  0  0  0  0  0  0
   -2.9613   -0.0399    5.7397 C   0  0  0  0  0  0  0  0  0  0  0  0
   -2.7012    1.1745    5.1065 C   0  0  0  0  0  0  0  0  0  0  0  0
   -1.7979    1.2318    4.0479 C   0  0  0  0  0  0  0  0  0  0  0  0
   -0.1171   -0.0003   -1.9746 H   0  0  0  0  0  0  0  0  0  0  0  0
   -1.5507   -0.9456    1.1386 H   0  0  0  0  0  0  0  0  0  0  0  0
   -1.7006    0.8082    1.0400 H   0  0  0  0  0  0  0  0  0  0  0  0
    0.3892    1.0814    2.4875 H   0  0  0  0  0  0  0  0  0  0  0  0
    0.5873   -0.6623    2.5524 H   0  0  0  0  0  0  0  0  0  0  0  0
   -0.9103   -2.0513    3.9212 H   0  0  0  0  0  0  0  0  0  0  0  0
   -2.5162   -2.1469    5.8068 H   0  0  0  0  0  0  0  0  0  0  0  0
   -3.6672   -0.0827    6.5661 H   0  0  0  0  0  0  0  0  0  0  0  0
   -3.2036    2.0798    5.4414 H   0  0  0  0  0  0  0  0  0  0  0  0
   -1.5968    2.1816    3.5567 H   0  0  0  0  0  0  0  0  0  0  0  0
  1  4  1  0  0  0  0
  2  1  2  0  0  0  0
  3  1  1  0  0  0  0
  4  5  1  0  0  0  0
  5 15  1  0  0  0  0
  5 16  1  0  0  0  0
  5  6  1  0  0  0  0
  6 11  2  0  0  0  0
  6  7  1  0  0  0  0
  7  8  2  0  0  0  0
  8  9  1  0  0  0  0
  8 18  1  0  0  0  0
  9 19  1  0  0  0  0
 10 20  1  0  0  0  0
 10  9  2  0  0  0  0
 11 10  1  0  0  0  0
 12  3  1  0  0  0  0
 13  4  1  0  0  0  0
 14  4  1  0  0  0  0
 17  7  1  0  0  0  0
 21 11  1  0  0  0  0
M  END
$$$$
