21
rmsd179.gzmat
C          0.00000        0.00000        0.00000
O          1.20200        0.00000        0.00000
O         -0.69190        0.00000       -1.17230
C         -0.94800       -0.00950        1.15440
C         -0.24740        0.51030        2.41550
C         -1.16950        0.40160        3.59110
C         -1.07850       -0.69520        4.45030
C         -1.93850       -0.80000        5.54120
C         -2.89360        0.18740        5.77620
C         -2.98600        1.28240        4.91850
C         -2.12610        1.39120        3.82800
H         -0.11650       -0.00600       -1.97500
H         -1.32750       -1.04420        1.31340
H         -1.85480        0.59360        0.92730
H          0.08520        1.55950        2.26600
H          0.69410       -0.05650        2.59020
H         -0.33470       -1.46890        4.26980
H         -1.86360       -1.65470        6.21100
H         -3.56530        0.10430        6.62770
H         -3.73070        2.05430        5.10350
H         -2.20040        2.24800        3.16170
