rmsd242.gzmat
 OpenBabel08211713393D

 35 37  0  0  0  0  0  0  0  0999 V2000
    0.0000    0.0000    0.0000 O   0  0  0  0  0  0  0  0  0  0  0  0
    1.3719    0.0000    0.0000 N   0  0  0  0  0  0  0  0  0  0  0  0
    1.7759    0.0000    1.2721 C   0  0  0  0  0  0  0  0  0  0  0  0
    0.6511   -0.0063    2.1317 N   0  0  0  0  0  0  0  0  0  0  0  0
   -0.4054   -0.0070    1.3336 C   0  0  0  0  0  0  0  0  0  0  0  0
   -1.8195   -0.0087    1.6203 C   0  0  0  0  0  0  0  0  0  0  0  0
   -2.7459   -0.2318    0.5954 C   0  0  0  0  0  0  0  0  0  0  0  0
   -4.1067   -0.2196    0.8858 C   0  0  0  0  0  0  0  0  0  0  0  0
   -4.5415    0.0076    2.1919 C   0  0  0  0  0  0  0  0  0  0  0  0
   -3.6170    0.2228    3.2132 C   0  0  0  0  0  0  0  0  0  0  0  0
   -2.2538    0.2167    2.9320 C   0  0  0  0  0  0  0  0  0  0  0  0
    3.1763    0.0216    1.7508 C   0  0  0  0  0  0  0  0  0  0  0  0
    3.3963   -0.9404    2.9435 C   0  0  0  0  0  0  0  0  0  0  0  0
    2.7664   -0.4713    4.1844 N   0  0  0  0  0  0  0  0  0  0  0  0
    3.3045    0.6596    4.8255 C   0  0  0  0  0  0  0  0  0  0  0  0
    2.4730    1.3640    5.7224 C   0  0  0  0  0  0  0  0  0  0  0  0
    2.9849    2.4310    6.4459 C   0  0  0  0  0  0  0  0  0  0  0  0
    4.3162    2.8218    6.2907 C   0  0  0  0  0  0  0  0  0  0  0  0
    5.1372    2.1265    5.4074 C   0  0  0  0  0  0  0  0  0  0  0  0
    4.6445    1.0521    4.6728 C   0  0  0  0  0  0  0  0  0  0  0  0
   -2.4061   -0.4153   -0.4249 H   0  0  0  0  0  0  0  0  0  0  0  0
   -4.8328   -0.3870    0.0912 H   0  0  0  0  0  0  0  0  0  0  0  0
   -5.6083    0.0174    2.4139 H   0  0  0  0  0  0  0  0  0  0  0  0
   -3.9599    0.3981    4.2319 H   0  0  0  0  0  0  0  0  0  0  0  0
   -1.5206    0.3884    3.7244 H   0  0  0  0  0  0  0  0  0  0  0  0
    3.4497    1.0603    2.0583 H   0  0  0  0  0  0  0  0  0  0  0  0
    3.8730   -0.2340    0.9221 H   0  0  0  0  0  0  0  0  0  0  0  0
    4.4844   -1.1029    3.1064 H   0  0  0  0  0  0  0  0  0  0  0  0
    2.9632   -1.9421    2.7097 H   0  0  0  0  0  0  0  0  0  0  0  0
    1.7447   -0.4526    4.0859 H   0  0  0  0  0  0  0  0  0  0  0  0
    1.4354    1.0669    5.8455 H   0  0  0  0  0  0  0  0  0  0  0  0
    2.3419    2.9722    7.1391 H   0  0  0  0  0  0  0  0  0  0  0  0
    4.7064    3.6621    6.8555 H   0  0  0  0  0  0  0  0  0  0  0  0
    6.1773    2.4259    5.2852 H   0  0  0  0  0  0  0  0  0  0  0  0
    5.3042    0.5203    3.9962 H   0  0  0  0  0  0  0  0  0  0  0  0
  1  5  1  0  0  0  0
  2  1  1  0  0  0  0
  2  3  2  0  0  0  0
  3 12  1  0  0  0  0
  3  4  2  0  0  0  0
  5  6  1  0  0  0  0
  5  4  2  0  0  0  0
  6 11  2  0  0  0  0
  7  8  2  0  0  0  0
  7  6  1  0  0  0  0
  8  9  1  0  0  0  0
  9 23  1  0  0  0  0
  9 10  2  0  0  0  0
 10 24  1  0  0  0  0
 11 10  1  0  0  0  0
 11 25  1  0  0  0  0
 12 26  1  0  0  0  0
 12 13  1  0  0  0  0
 13 28  1  0  0  0  0
 13 14  1  0  0  0  0
 14 15  1  0  0  0  0
 15 16  1  0  0  0  0
 16 31  1  0  0  0  0
 16 17  2  0  0  0  0
 17 32  1  0  0  0  0
 18 17  1  0  0  0  0
 18 33  1  0  0  0  0
 19 18  2  0  0  0  0
 20 15  2  0  0  0  0
 20 19  1  0  0  0  0
 21  7  1  0  0  0  0
 22  8  1  0  0  0  0
 27 12  1  0  0  0  0
 29 13  1  0  0  0  0
 30 14  1  0  0  0  0
 34 19  1  0  0  0  0
 35 20  1  0  0  0  0
M  END
$$$$
