rmsd219.gzmat
 OpenBabel08211713393D

 35 37  0  0  0  0  0  0  0  0999 V2000
    0.0000    0.0000    0.0000 O   0  0  0  0  0  0  0  0  0  0  0  0
    1.3720    0.0000    0.0000 N   0  0  0  0  0  0  0  0  0  0  0  0
    1.7758    0.0000    1.2721 C   0  0  0  0  0  0  0  0  0  0  0  0
    0.6505   -0.0123    2.1309 N   0  0  0  0  0  0  0  0  0  0  0  0
   -0.4061   -0.0074    1.3333 C   0  0  0  0  0  0  0  0  0  0  0  0
   -1.8207    0.0083    1.6176 C   0  0  0  0  0  0  0  0  0  0  0  0
   -2.2566    0.3314    2.9080 C   0  0  0  0  0  0  0  0  0  0  0  0
   -3.6207    0.3649    3.1838 C   0  0  0  0  0  0  0  0  0  0  0  0
   -4.5434    0.0712    2.1805 C   0  0  0  0  0  0  0  0  0  0  0  0
   -4.1063   -0.2596    0.8973 C   0  0  0  0  0  0  0  0  0  0  0  0
   -2.7450   -0.2902    0.6099 C   0  0  0  0  0  0  0  0  0  0  0  0
    3.1732    0.0352    1.7590 C   0  0  0  0  0  0  0  0  0  0  0  0
    3.4425   -1.0529    2.8281 C   0  0  0  0  0  0  0  0  0  0  0  0
    2.7633   -0.7888    4.1025 N   0  0  0  0  0  0  0  0  0  0  0  0
    3.2666    0.2218    4.9420 C   0  0  0  0  0  0  0  0  0  0  0  0
    2.3690    0.8387    5.8394 C   0  0  0  0  0  0  0  0  0  0  0  0
    2.8390    1.7603    6.7632 C   0  0  0  0  0  0  0  0  0  0  0  0
    4.1944    2.0896    6.8106 C   0  0  0  0  0  0  0  0  0  0  0  0
    5.0799    1.4846    5.9226 C   0  0  0  0  0  0  0  0  0  0  0  0
    4.6293    0.5591    4.9866 C   0  0  0  0  0  0  0  0  0  0  0  0
   -1.5249    0.5566    3.6888 H   0  0  0  0  0  0  0  0  0  0  0  0
   -3.9655    0.6223    4.1847 H   0  0  0  0  0  0  0  0  0  0  0  0
   -5.6108    0.0994    2.3990 H   0  0  0  0  0  0  0  0  0  0  0  0
   -4.8308   -0.4949    0.1185 H   0  0  0  0  0  0  0  0  0  0  0  0
   -2.4037   -0.5477   -0.3940 H   0  0  0  0  0  0  0  0  0  0  0  0
    3.3918    1.0407    2.1930 H   0  0  0  0  0  0  0  0  0  0  0  0
    3.8827   -0.0841    0.9105 H   0  0  0  0  0  0  0  0  0  0  0  0
    4.5377   -1.1590    2.9891 H   0  0  0  0  0  0  0  0  0  0  0  0
    3.0836   -2.0443    2.4620 H   0  0  0  0  0  0  0  0  0  0  0  0
    1.7456   -0.7552    3.9707 H   0  0  0  0  0  0  0  0  0  0  0  0
    1.3121    0.5891    5.8048 H   0  0  0  0  0  0  0  0  0  0  0  0
    2.1433    2.2356    7.4538 H   0  0  0  0  0  0  0  0  0  0  0  0
    4.5545    2.8130    7.5345 H   0  0  0  0  0  0  0  0  0  0  0  0
    6.1387    1.7384    5.9589 H   0  0  0  0  0  0  0  0  0  0  0  0
    5.3374    0.0935    4.3099 H   0  0  0  0  0  0  0  0  0  0  0  0
  1  5  1  0  0  0  0
  2  1  1  0  0  0  0
  2  3  2  0  0  0  0
  3 12  1  0  0  0  0
  3  4  2  0  0  0  0
  5  6  1  0  0  0  0
  5  4  2  0  0  0  0
  6  7  2  0  0  0  0
  7  8  1  0  0  0  0
  7 21  1  0  0  0  0
  8 22  1  0  0  0  0
  9 23  1  0  0  0  0
  9  8  2  0  0  0  0
 10  9  1  0  0  0  0
 11 10  2  0  0  0  0
 11  6  1  0  0  0  0
 12 26  1  0  0  0  0
 12 13  1  0  0  0  0
 13 28  1  0  0  0  0
 13 14  1  0  0  0  0
 14 15  1  0  0  0  0
 15 20  2  0  0  0  0
 15 16  1  0  0  0  0
 16 17  2  0  0  0  0
 17 18  1  0  0  0  0
 17 32  1  0  0  0  0
 18 33  1  0  0  0  0
 19 34  1  0  0  0  0
 19 18  2  0  0  0  0
 20 19  1  0  0  0  0
 24 10  1  0  0  0  0
 25 11  1  0  0  0  0
 27 12  1  0  0  0  0
 29 13  1  0  0  0  0
 30 14  1  0  0  0  0
 31 16  1  0  0  0  0
 35 20  1  0  0  0  0
M  END
$$$$
