35

O          0.06650       -0.06530        0.02190
N          1.46030       -0.09620       -0.01060
C          1.80250       -0.03960        1.25400
N          0.72770        0.01390        2.11540
C         -0.30130       -0.00310        1.30980
C         -1.72060        0.03800        1.64820
C         -2.10140        0.16790        2.99490
C         -3.45220        0.20720        3.33370
C         -4.42920        0.11850        2.33580
C         -4.05240       -0.00880        0.99490
C         -2.70290       -0.04900        0.64710
C          3.22600       -0.05040        1.70550
C          3.46570       -1.02140        2.88160
N          2.82710       -0.62470        4.11710
C          3.25380        0.48520        4.83690
C          4.56230        1.00270        4.74460
C          4.95090        2.09320        5.52620
C          4.05840        2.70240        6.41000
C          2.75530        2.19910        6.50140
C          2.35650        1.11270        5.72880
H         -1.32590        0.24140        3.75870
H         -3.74660        0.30940        4.38050
H         -5.48770        0.14980        2.60430
H         -4.81510       -0.07710        0.21610
H         -2.40010       -0.14830       -0.39630
H          3.50990        0.96670        2.02520
H          3.85690       -0.31200        0.84330
H          4.54830       -1.12900        3.04230
H          3.09690       -2.02360        2.61130
H          1.81480       -0.68030        4.05330
H          5.28720        0.55140        4.06630
H          5.97270        2.47150        5.43560
H          4.36930        3.55630        7.01520
H          2.03670        2.66220        7.18280
H          1.33580        0.72830        5.80780
