rmsd12.gzmat
 OpenBabel08211713393D

 35 37  0  0  0  0  0  0  0  0999 V2000
    0.0000    0.0000    0.0000 O   0  0  0  0  0  0  0  0  0  0  0  0
    1.3719    0.0000    0.0000 N   0  0  0  0  0  0  0  0  0  0  0  0
    1.7759    0.0000    1.2720 C   0  0  0  0  0  0  0  0  0  0  0  0
    0.6512   -0.0081    2.1313 N   0  0  0  0  0  0  0  0  0  0  0  0
   -0.4057   -0.0061    1.3331 C   0  0  0  0  0  0  0  0  0  0  0  0
   -1.8196   -0.0054    1.6206 C   0  0  0  0  0  0  0  0  0  0  0  0
   -2.2477    0.1142    2.9481 C   0  0  0  0  0  0  0  0  0  0  0  0
   -3.6098    0.1118    3.2343 C   0  0  0  0  0  0  0  0  0  0  0  0
   -4.5393   -0.0062    2.2019 C   0  0  0  0  0  0  0  0  0  0  0  0
   -4.1111   -0.1232    0.8791 C   0  0  0  0  0  0  0  0  0  0  0  0
   -2.7514   -0.1241    0.5830 C   0  0  0  0  0  0  0  0  0  0  0  0
    3.1767    0.0308    1.7491 C   0  0  0  0  0  0  0  0  0  0  0  0
    3.4131   -0.9470    2.9253 C   0  0  0  0  0  0  0  0  0  0  0  0
    2.7707   -0.5146    4.1723 N   0  0  0  0  0  0  0  0  0  0  0  0
    3.3105    0.5794    4.8711 C   0  0  0  0  0  0  0  0  0  0  0  0
    4.6585    0.9593    4.7649 C   0  0  0  0  0  0  0  0  0  0  0  0
    5.1502    1.9881    5.5626 C   0  0  0  0  0  0  0  0  0  0  0  0
    4.3212    2.6488    6.4650 C   0  0  0  0  0  0  0  0  0  0  0  0
    2.9819    2.2691    6.5756 C   0  0  0  0  0  0  0  0  0  0  0  0
    2.4701    1.2504    5.7859 C   0  0  0  0  0  0  0  0  0  0  0  0
   -1.5107    0.2089    3.7500 H   0  0  0  0  0  0  0  0  0  0  0  0
   -3.9476    0.2026    4.2659 H   0  0  0  0  0  0  0  0  0  0  0  0
   -5.6051   -0.0075    2.4293 H   0  0  0  0  0  0  0  0  0  0  0  0
   -4.8414   -0.2147    0.0761 H   0  0  0  0  0  0  0  0  0  0  0  0
   -2.4175   -0.2183   -0.4516 H   0  0  0  0  0  0  0  0  0  0  0  0
    3.4381    1.0676    2.0722 H   0  0  0  0  0  0  0  0  0  0  0  0
    3.8744   -0.2048    0.9148 H   0  0  0  0  0  0  0  0  0  0  0  0
    4.5045   -1.0896    3.0839 H   0  0  0  0  0  0  0  0  0  0  0  0
    3.0003   -1.9532    2.6738 H   0  0  0  0  0  0  0  0  0  0  0  0
    1.7507   -0.4846    4.0624 H   0  0  0  0  0  0  0  0  0  0  0  0
    5.3257    0.4511    4.0777 H   0  0  0  0  0  0  0  0  0  0  0  0
    6.1967    2.2779    5.4766 H   0  0  0  0  0  0  0  0  0  0  0  0
    4.7120    3.4532    7.0793 H   0  0  0  0  0  0  0  0  0  0  0  0
    2.3329    2.7801    7.2863 H   0  0  0  0  0  0  0  0  0  0  0  0
    1.4257    0.9633    5.8719 H   0  0  0  0  0  0  0  0  0  0  0  0
  1  5  1  0  0  0  0
  2  1  1  0  0  0  0
  2  3  2  0  0  0  0
  3 12  1  0  0  0  0
  3  4  2  0  0  0  0
  5  6  1  0  0  0  0
  5  4  2  0  0  0  0
  6  7  2  0  0  0  0
  7  8  1  0  0  0  0
  7 21  1  0  0  0  0
  8 22  1  0  0  0  0
  9 23  1  0  0  0  0
  9  8  2  0  0  0  0
 10  9  1  0  0  0  0
 11 10  2  0  0  0  0
 11  6  1  0  0  0  0
 12 26  1  0  0  0  0
 12 13  1  0  0  0  0
 13 28  1  0  0  0  0
 13 14  1  0  0  0  0
 14 15  1  0  0  0  0
 15 20  1  0  0  0  0
 16 15  2  0  0  0  0
 16 17  1  0  0  0  0
 17 18  2  0  0  0  0
 18 19  1  0  0  0  0
 18 33  1  0  0  0  0
 19 34  1  0  0  0  0
 20 35  1  0  0  0  0
 20 19  2  0  0  0  0
 24 10  1  0  0  0  0
 25 11  1  0  0  0  0
 27 12  1  0  0  0  0
 29 13  1  0  0  0  0
 30 14  1  0  0  0  0
 31 16  1  0  0  0  0
 32 17  1  0  0  0  0
M  END
$$$$
