rmsd165.gzmat
 OpenBabel08211713393D

 35 37  0  0  0  0  0  0  0  0999 V2000
    0.0000    0.0000    0.0000 O   0  0  0  0  0  0  0  0  0  0  0  0
    1.3715    0.0000    0.0000 N   0  0  0  0  0  0  0  0  0  0  0  0
    1.7760    0.0000    1.2721 C   0  0  0  0  0  0  0  0  0  0  0  0
    0.6512   -0.0044    2.1315 N   0  0  0  0  0  0  0  0  0  0  0  0
   -0.4056   -0.0041    1.3331 C   0  0  0  0  0  0  0  0  0  0  0  0
   -1.8207   -0.0038    1.6156 C   0  0  0  0  0  0  0  0  0  0  0  0
   -2.2556    0.0140    2.9461 C   0  0  0  0  0  0  0  0  0  0  0  0
   -3.6195    0.0227    3.2237 C   0  0  0  0  0  0  0  0  0  0  0  0
   -4.5443    0.0145    2.1806 C   0  0  0  0  0  0  0  0  0  0  0  0
   -4.1095   -0.0083    0.8551 C   0  0  0  0  0  0  0  0  0  0  0  0
   -2.7482   -0.0186    0.5673 C   0  0  0  0  0  0  0  0  0  0  0  0
    3.1804    0.0295    1.7401 C   0  0  0  0  0  0  0  0  0  0  0  0
    3.3981   -0.8160    3.0181 C   0  0  0  0  0  0  0  0  0  0  0  0
    2.7840   -0.2217    4.2124 N   0  0  0  0  0  0  0  0  0  0  0  0
    3.3498    0.9504    4.7458 C   0  0  0  0  0  0  0  0  0  0  0  0
    2.5242    1.7851    5.5283 C   0  0  0  0  0  0  0  0  0  0  0  0
    3.0608    2.9055    6.1458 C   0  0  0  0  0  0  0  0  0  0  0  0
    4.4129    3.2188    5.9978 C   0  0  0  0  0  0  0  0  0  0  0  0
    5.2298    2.3920    5.2314 C   0  0  0  0  0  0  0  0  0  0  0  0
    4.7121    1.2637    4.6029 C   0  0  0  0  0  0  0  0  0  0  0  0
   -1.5224    0.0216    3.7569 H   0  0  0  0  0  0  0  0  0  0  0  0
   -3.9621    0.0372    4.2577 H   0  0  0  0  0  0  0  0  0  0  0  0
   -5.6117    0.0273    2.4007 H   0  0  0  0  0  0  0  0  0  0  0  0
   -4.8361   -0.0159    0.0433 H   0  0  0  0  0  0  0  0  0  0  0  0
   -2.4095   -0.0374   -0.4696 H   0  0  0  0  0  0  0  0  0  0  0  0
    3.4828    1.0863    1.9405 H   0  0  0  0  0  0  0  0  0  0  0  0
    3.8613   -0.3228    0.9329 H   0  0  0  0  0  0  0  0  0  0  0  0
    4.4856   -0.9757    3.1869 H   0  0  0  0  0  0  0  0  0  0  0  0
    2.9508   -1.8299    2.8857 H   0  0  0  0  0  0  0  0  0  0  0  0
    1.7630   -0.1924    4.1134 H   0  0  0  0  0  0  0  0  0  0  0  0
    1.4709    1.5469    5.6469 H   0  0  0  0  0  0  0  0  0  0  0  0
    2.4208    3.5489    6.7487 H   0  0  0  0  0  0  0  0  0  0  0  0
    4.8231    4.1020    6.4765 H   0  0  0  0  0  0  0  0  0  0  0  0
    6.2869    2.6292    5.1187 H   0  0  0  0  0  0  0  0  0  0  0  0
    5.3682    0.6268    4.0202 H   0  0  0  0  0  0  0  0  0  0  0  0
  1  5  1  0  0  0  0
  2  1  1  0  0  0  0
  2  3  2  0  0  0  0
  3 12  1  0  0  0  0
  3  4  2  0  0  0  0
  5  6  1  0  0  0  0
  5  4  2  0  0  0  0
  6  7  2  0  0  0  0
  7  8  1  0  0  0  0
  7 21  1  0  0  0  0
  8 22  1  0  0  0  0
  9 23  1  0  0  0  0
  9  8  2  0  0  0  0
 10  9  1  0  0  0  0
 11 10  2  0  0  0  0
 11  6  1  0  0  0  0
 12 26  1  0  0  0  0
 12 13  1  0  0  0  0
 13 28  1  0  0  0  0
 13 14  1  0  0  0  0
 14 15  1  0  0  0  0
 15 16  1  0  0  0  0
 16 31  1  0  0  0  0
 16 17  2  0  0  0  0
 17 32  1  0  0  0  0
 18 17  1  0  0  0  0
 18 33  1  0  0  0  0
 19 18  2  0  0  0  0
 20 15  2  0  0  0  0
 20 19  1  0  0  0  0
 24 10  1  0  0  0  0
 25 11  1  0  0  0  0
 27 12  1  0  0  0  0
 29 13  1  0  0  0  0
 30 14  1  0  0  0  0
 34 19  1  0  0  0  0
 35 20  1  0  0  0  0
M  END
$$$$
