35
rmsd191.gzmat
O          0.00000        0.00000        0.00000
N          1.37190        0.00000        0.00000
C          1.77590        0.00000        1.27200
N          0.65100        0.00910        2.13110
C         -0.40600        0.00520        1.33330
C         -1.82030       -0.00220        1.61900
C         -2.75040       -0.02140        0.57320
C         -4.11100       -0.03510        0.86480
C         -4.54260       -0.03050        2.19160
C         -3.61480       -0.01120        3.23210
C         -2.25160        0.00300        2.95060
C          3.17650       -0.03680        1.74970
C          3.41920        0.93650        2.92870
N          2.77260        0.50410        4.17360
C          3.31690       -0.58410        4.87830
C          2.46470       -1.29260        5.75220
C          2.97870       -2.30430        6.54980
C          4.33320       -2.63600        6.49070
C          5.17360       -1.94050        5.62570
C          4.67870       -0.92140        4.81750
H         -2.41460       -0.02760       -0.46470
H         -4.83970       -0.04950        0.05530
H         -5.60920       -0.04280        2.41470
H         -3.95470       -0.00920        4.26680
H         -1.51680        0.01620        3.76010
H          3.87530        0.19680        0.91580
H          3.43280       -1.07570        2.06970
H          3.01290        1.94590        2.67960
H          4.51110        1.07150        3.08900
H          1.75380        0.46440        4.05570
H          1.40880       -1.04170        5.79960
H          2.31930       -2.84760        7.22570
H          4.72730       -3.43100        7.11530
H          6.23140       -2.19570        5.57820
H          5.35280       -0.38710        4.15730
