35
rmsd116.gzmat
O          0.00000        0.00000        0.00000
N          1.37200        0.00000        0.00000
C          1.77570        0.00000        1.27180
N          0.65100        0.01090        2.13110
C         -0.40580        0.00760        1.33330
C         -1.82050       -0.00080        1.61760
C         -2.25520       -0.25210        2.92440
C         -3.61870       -0.26910        3.20410
C         -4.54290       -0.03420        2.18680
C         -4.10780        0.21630        0.88510
C         -2.74680        0.23380        0.59510
C          3.17430       -0.03090        1.75530
C          3.43080        1.03560        2.84800
N          2.78700        0.71620        4.12700
C          3.35290       -0.26540        4.95700
C          4.70870       -0.62750        4.89650
C          5.22780       -1.51620        5.83310
C          4.41710       -2.06350        6.82360
C          3.06670       -1.71310        6.87870
C          2.52940       -0.82690        5.95710
H         -1.52250       -0.43400        3.71520
H         -3.96190       -0.46690        4.21870
H         -5.60970       -0.04610        2.40920
H         -4.83440        0.39770        0.09410
H         -2.40690        0.42940       -0.42300
H          3.88030        0.11720        0.90810
H          3.40640       -1.04400        2.16320
H          3.03040        2.02420        2.51660
H          4.52470        1.17700        2.98940
H          1.76920        0.64850        4.01760
H          5.36070       -0.21410        4.13510
H          6.28230       -1.78570        5.78790
H          4.83040       -2.75740        7.54790
H          2.42980       -2.14150        7.65160
H          1.47820       -0.55660        6.00650
