rmsd191.gzmat
 OpenBabel08211713393D

 35 37  0  0  0  0  0  0  0  0999 V2000
    0.0000    0.0000    0.0000 O   0  0  0  0  0  0  0  0  0  0  0  0
    1.3719    0.0000    0.0000 N   0  0  0  0  0  0  0  0  0  0  0  0
    1.7759    0.0000    1.2720 C   0  0  0  0  0  0  0  0  0  0  0  0
    0.6510    0.0091    2.1311 N   0  0  0  0  0  0  0  0  0  0  0  0
   -0.4060    0.0052    1.3333 C   0  0  0  0  0  0  0  0  0  0  0  0
   -1.8203   -0.0022    1.6190 C   0  0  0  0  0  0  0  0  0  0  0  0
   -2.7504   -0.0214    0.5732 C   0  0  0  0  0  0  0  0  0  0  0  0
   -4.1110   -0.0351    0.8648 C   0  0  0  0  0  0  0  0  0  0  0  0
   -4.5426   -0.0305    2.1916 C   0  0  0  0  0  0  0  0  0  0  0  0
   -3.6148   -0.0112    3.2321 C   0  0  0  0  0  0  0  0  0  0  0  0
   -2.2516    0.0030    2.9506 C   0  0  0  0  0  0  0  0  0  0  0  0
    3.1765   -0.0368    1.7497 C   0  0  0  0  0  0  0  0  0  0  0  0
    3.4192    0.9365    2.9287 C   0  0  0  0  0  0  0  0  0  0  0  0
    2.7726    0.5041    4.1736 N   0  0  0  0  0  0  0  0  0  0  0  0
    3.3169   -0.5841    4.8783 C   0  0  0  0  0  0  0  0  0  0  0  0
    2.4647   -1.2926    5.7522 C   0  0  0  0  0  0  0  0  0  0  0  0
    2.9787   -2.3043    6.5498 C   0  0  0  0  0  0  0  0  0  0  0  0
    4.3332   -2.6360    6.4907 C   0  0  0  0  0  0  0  0  0  0  0  0
    5.1736   -1.9405    5.6257 C   0  0  0  0  0  0  0  0  0  0  0  0
    4.6787   -0.9214    4.8175 C   0  0  0  0  0  0  0  0  0  0  0  0
   -2.4146   -0.0276   -0.4647 H   0  0  0  0  0  0  0  0  0  0  0  0
   -4.8397   -0.0495    0.0553 H   0  0  0  0  0  0  0  0  0  0  0  0
   -5.6092   -0.0428    2.4147 H   0  0  0  0  0  0  0  0  0  0  0  0
   -3.9547   -0.0092    4.2668 H   0  0  0  0  0  0  0  0  0  0  0  0
   -1.5168    0.0162    3.7601 H   0  0  0  0  0  0  0  0  0  0  0  0
    3.8753    0.1968    0.9158 H   0  0  0  0  0  0  0  0  0  0  0  0
    3.4328   -1.0757    2.0697 H   0  0  0  0  0  0  0  0  0  0  0  0
    3.0129    1.9459    2.6796 H   0  0  0  0  0  0  0  0  0  0  0  0
    4.5111    1.0715    3.0890 H   0  0  0  0  0  0  0  0  0  0  0  0
    1.7538    0.4644    4.0557 H   0  0  0  0  0  0  0  0  0  0  0  0
    1.4088   -1.0417    5.7996 H   0  0  0  0  0  0  0  0  0  0  0  0
    2.3193   -2.8476    7.2257 H   0  0  0  0  0  0  0  0  0  0  0  0
    4.7273   -3.4310    7.1153 H   0  0  0  0  0  0  0  0  0  0  0  0
    6.2314   -2.1957    5.5782 H   0  0  0  0  0  0  0  0  0  0  0  0
    5.3528   -0.3871    4.1573 H   0  0  0  0  0  0  0  0  0  0  0  0
  1  5  1  0  0  0  0
  2  1  1  0  0  0  0
  2  3  2  0  0  0  0
  3 12  1  0  0  0  0
  3  4  2  0  0  0  0
  5  6  1  0  0  0  0
  5  4  2  0  0  0  0
  6 11  2  0  0  0  0
  7  8  2  0  0  0  0
  7  6  1  0  0  0  0
  8  9  1  0  0  0  0
  9 23  1  0  0  0  0
  9 10  2  0  0  0  0
 10 24  1  0  0  0  0
 11 10  1  0  0  0  0
 11 25  1  0  0  0  0
 12 27  1  0  0  0  0
 12 13  1  0  0  0  0
 13 29  1  0  0  0  0
 13 14  1  0  0  0  0
 14 15  1  0  0  0  0
 15 16  1  0  0  0  0
 16 31  1  0  0  0  0
 16 17  2  0  0  0  0
 17 32  1  0  0  0  0
 18 17  1  0  0  0  0
 18 33  1  0  0  0  0
 19 18  2  0  0  0  0
 20 15  2  0  0  0  0
 20 19  1  0  0  0  0
 21  7  1  0  0  0  0
 22  8  1  0  0  0  0
 26 12  1  0  0  0  0
 28 13  1  0  0  0  0
 30 14  1  0  0  0  0
 34 19  1  0  0  0  0
 35 20  1  0  0  0  0
M  END
$$$$
