rmsd116.gzmat
 OpenBabel08211713393D

 35 37  0  0  0  0  0  0  0  0999 V2000
    0.0000    0.0000    0.0000 O   0  0  0  0  0  0  0  0  0  0  0  0
    1.3720    0.0000    0.0000 N   0  0  0  0  0  0  0  0  0  0  0  0
    1.7757    0.0000    1.2718 C   0  0  0  0  0  0  0  0  0  0  0  0
    0.6510    0.0109    2.1311 N   0  0  0  0  0  0  0  0  0  0  0  0
   -0.4058    0.0076    1.3333 C   0  0  0  0  0  0  0  0  0  0  0  0
   -1.8205   -0.0008    1.6176 C   0  0  0  0  0  0  0  0  0  0  0  0
   -2.2552   -0.2521    2.9244 C   0  0  0  0  0  0  0  0  0  0  0  0
   -3.6187   -0.2691    3.2041 C   0  0  0  0  0  0  0  0  0  0  0  0
   -4.5429   -0.0342    2.1868 C   0  0  0  0  0  0  0  0  0  0  0  0
   -4.1078    0.2163    0.8851 C   0  0  0  0  0  0  0  0  0  0  0  0
   -2.7468    0.2338    0.5951 C   0  0  0  0  0  0  0  0  0  0  0  0
    3.1743   -0.0309    1.7553 C   0  0  0  0  0  0  0  0  0  0  0  0
    3.4308    1.0356    2.8480 C   0  0  0  0  0  0  0  0  0  0  0  0
    2.7870    0.7162    4.1270 N   0  0  0  0  0  0  0  0  0  0  0  0
    3.3529   -0.2654    4.9570 C   0  0  0  0  0  0  0  0  0  0  0  0
    4.7087   -0.6275    4.8965 C   0  0  0  0  0  0  0  0  0  0  0  0
    5.2278   -1.5162    5.8331 C   0  0  0  0  0  0  0  0  0  0  0  0
    4.4171   -2.0635    6.8236 C   0  0  0  0  0  0  0  0  0  0  0  0
    3.0667   -1.7131    6.8787 C   0  0  0  0  0  0  0  0  0  0  0  0
    2.5294   -0.8269    5.9571 C   0  0  0  0  0  0  0  0  0  0  0  0
   -1.5225   -0.4340    3.7152 H   0  0  0  0  0  0  0  0  0  0  0  0
   -3.9619   -0.4669    4.2187 H   0  0  0  0  0  0  0  0  0  0  0  0
   -5.6097   -0.0461    2.4092 H   0  0  0  0  0  0  0  0  0  0  0  0
   -4.8344    0.3977    0.0941 H   0  0  0  0  0  0  0  0  0  0  0  0
   -2.4069    0.4294   -0.4230 H   0  0  0  0  0  0  0  0  0  0  0  0
    3.8803    0.1172    0.9081 H   0  0  0  0  0  0  0  0  0  0  0  0
    3.4064   -1.0440    2.1632 H   0  0  0  0  0  0  0  0  0  0  0  0
    3.0304    2.0242    2.5166 H   0  0  0  0  0  0  0  0  0  0  0  0
    4.5247    1.1770    2.9894 H   0  0  0  0  0  0  0  0  0  0  0  0
    1.7692    0.6485    4.0176 H   0  0  0  0  0  0  0  0  0  0  0  0
    5.3607   -0.2141    4.1351 H   0  0  0  0  0  0  0  0  0  0  0  0
    6.2823   -1.7857    5.7879 H   0  0  0  0  0  0  0  0  0  0  0  0
    4.8304   -2.7574    7.5479 H   0  0  0  0  0  0  0  0  0  0  0  0
    2.4298   -2.1415    7.6516 H   0  0  0  0  0  0  0  0  0  0  0  0
    1.4782   -0.5566    6.0065 H   0  0  0  0  0  0  0  0  0  0  0  0
  1  5  1  0  0  0  0
  2  1  1  0  0  0  0
  2  3  2  0  0  0  0
  3 12  1  0  0  0  0
  3  4  2  0  0  0  0
  5  6  1  0  0  0  0
  5  4  2  0  0  0  0
  6  7  2  0  0  0  0
  7  8  1  0  0  0  0
  7 21  1  0  0  0  0
  8 22  1  0  0  0  0
  9 23  1  0  0  0  0
  9  8  2  0  0  0  0
 10  9  1  0  0  0  0
 11 10  2  0  0  0  0
 11  6  1  0  0  0  0
 12 27  1  0  0  0  0
 12 13  1  0  0  0  0
 13 29  1  0  0  0  0
 13 14  1  0  0  0  0
 14 15  1  0  0  0  0
 15 20  1  0  0  0  0
 16 15  2  0  0  0  0
 16 17  1  0  0  0  0
 17 18  2  0  0  0  0
 18 19  1  0  0  0  0
 18 33  1  0  0  0  0
 19 34  1  0  0  0  0
 20 35  1  0  0  0  0
 20 19  2  0  0  0  0
 24 10  1  0  0  0  0
 25 11  1  0  0  0  0
 26 12  1  0  0  0  0
 28 13  1  0  0  0  0
 30 14  1  0  0  0  0
 31 16  1  0  0  0  0
 32 17  1  0  0  0  0
M  END
$$$$
