38
rmsd234.gzmat
N          0.00000        0.00000        0.00000
C          1.40790        0.00000        0.00000
O          2.07460        0.00000        0.99700
C          1.89330       -0.00410       -1.45500
H          2.50980       -0.92460       -1.61230
C          0.60010       -0.06150       -2.29990
C         -0.54140       -0.05430       -1.30150
O         -1.72090       -0.08610       -1.52510
C          2.69180        1.22590       -1.75670
C          2.30840        2.46430       -1.23360
C          3.05720        3.58700       -1.55850
C          4.16880        3.52010       -2.39000
C          4.54160        2.27890       -2.90430
C          3.81140        1.13540       -2.58600
Br         2.53990        5.26730       -0.84560
C         -0.82090        0.00300        1.23230
N         -1.14150       -1.29170        1.80780
C         -2.03910       -2.14610        1.01400
C         -1.30090       -3.10540        0.06460
O         -0.31840       -3.84470        0.76320
C          0.64830       -3.02400        1.38930
C         -0.01190       -2.04530        2.37580
H          0.51110        0.79910       -2.99370
H          0.55470       -0.96200       -2.94030
H          1.43970        2.53870       -0.57720
H          4.74510        4.41000       -2.64270
H          5.40970        2.20430       -3.55900
H          4.12110        0.17090       -2.98610
H         -1.78390        0.52940        0.98980
H         -0.26430        0.60500        2.00060
H         -2.75710       -1.51850        0.44140
H         -2.63800       -2.73820        1.74690
H         -1.96940       -3.89700       -0.32050
H         -0.83490       -2.57960       -0.78350
H          1.28590       -3.76100        1.91190
H          1.24620       -2.50730        0.62220
H         -0.42280       -2.61470        3.24350
H          0.75100       -1.34300        2.77990
