38
rmsd225.gzmat
N          0.00000        0.00000        0.00000
C          1.40470        0.00000        0.00000
O          2.06290        0.00000        1.00590
C          1.90360       -0.03620       -1.45000
H          2.49800       -0.98010       -1.58400
C          0.60660       -0.09390       -2.29250
C         -0.53900       -0.07800       -1.30090
O         -1.71730       -0.11780       -1.52790
C          2.78610        1.12580       -1.80070
C          2.98970        1.42490       -3.15340
C          3.78900        2.50720       -3.49150
C          4.41620        3.29380       -2.53350
C          4.23800        2.96530       -1.19100
C          3.43110        1.88850       -0.82570
Br         4.02820        2.92690       -5.32800
C         -0.82080        0.08190        1.23040
N         -1.17040       -1.17260        1.87210
C         -2.10590       -2.03740        1.13530
C         -1.41250       -3.06130        0.22010
O         -0.43230       -3.79060        0.93260
C          0.56630       -2.96420        1.49830
C         -0.05390       -1.93260        2.45680
H          0.50580        0.76980       -2.98240
H          0.56080       -0.99430       -2.93290
H          2.52780        0.80990       -3.92600
H          5.03560        4.14620       -2.81070
H          4.73330        3.55510       -0.41900
H          3.32310        1.65080        0.23690
H         -1.77070        0.61830        0.95970
H         -0.25000        0.70800        1.96870
H         -2.81530       -1.41790        0.54330
H         -2.70760       -2.57550        1.90670
H         -2.11040       -3.85230       -0.11030
H         -0.95300       -2.58880       -0.66240
H          1.20210       -3.69070        2.03650
H          1.15460       -2.49090        0.69630
H         -0.46860       -2.45920        3.34930
H          0.73110       -1.23580        2.82580
