rmsd235.gzmat
 OpenBabel08211713413D

 38 40  0  0  1  0  0  0  0  0999 V2000
    0.0000    0.0000    0.0000 N   0  0  0  0  0  0  0  0  0  0  0  0
    1.4064    0.0000    0.0000 C   0  0  0  0  0  0  0  0  0  0  0  0
    2.0697    0.0000    1.0011 O   0  0  0  0  0  0  0  0  0  0  0  0
    1.8963   -0.0162   -1.4515 C   0  0  1  0  0  0  0  0  0  0  0  0
    2.4949   -0.9539   -1.5976 H   0  0  0  0  0  0  0  0  0  0  0  0
    0.6014   -0.0541   -2.2970 C   0  0  0  0  0  0  0  0  0  0  0  0
   -0.5413   -0.0489   -1.3014 C   0  0  0  0  0  0  0  0  0  0  0  0
   -1.7204   -0.0801   -1.5267 O   0  0  0  0  0  0  0  0  0  0  0  0
    2.7428    1.1691   -1.8022 C   0  0  0  0  0  0  0  0  0  0  0  0
    2.9085    2.2469   -0.9320 C   0  0  0  0  0  0  0  0  0  0  0  0
    3.6991    3.3169   -1.3350 C   0  0  0  0  0  0  0  0  0  0  0  0
    4.3251    3.3511   -2.5735 C   0  0  0  0  0  0  0  0  0  0  0  0
    4.1519    2.2681   -3.4361 C   0  0  0  0  0  0  0  0  0  0  0  0
    3.3709    1.1821   -3.0531 C   0  0  0  0  0  0  0  0  0  0  0  0
    3.9276    4.7800   -0.1491 Br  0  0  0  0  0  0  0  0  0  0  0  0
   -0.8196    0.0103    1.2330 C   0  0  0  0  0  0  0  0  0  0  0  0
   -1.1573   -1.2828    1.8020 N   0  0  0  0  0  0  0  0  0  0  0  0
   -2.0737   -2.1183    1.0093 C   0  0  0  0  0  0  0  0  0  0  0  0
   -1.3605   -3.0943    0.0569 C   0  0  0  0  0  0  0  0  0  0  0  0
   -0.3735   -3.8408    0.7414 O   0  0  0  0  0  0  0  0  0  0  0  0
    0.6098   -3.0253    1.3483 C   0  0  0  0  0  0  0  0  0  0  0  0
   -0.0333   -2.0558    2.3551 C   0  0  0  0  0  0  0  0  0  0  0  0
    0.5175    0.8186   -2.9767 H   0  0  0  0  0  0  0  0  0  0  0  0
    0.5492   -0.9446   -2.9497 H   0  0  0  0  0  0  0  0  0  0  0  0
    2.4376    2.2469    0.0541 H   0  0  0  0  0  0  0  0  0  0  0  0
    4.9413    4.1963   -2.8794 H   0  0  0  0  0  0  0  0  0  0  0  0
    4.6322    2.2757   -4.4138 H   0  0  0  0  0  0  0  0  0  0  0  0
    3.2503    0.3381   -3.7309 H   0  0  0  0  0  0  0  0  0  0  0  0
   -1.7740    0.5527    0.9935 H   0  0  0  0  0  0  0  0  0  0  0  0
   -0.2528    0.5993    2.0046 H   0  0  0  0  0  0  0  0  0  0  0  0
   -2.7778   -1.4764    0.4342 H   0  0  0  0  0  0  0  0  0  0  0  0
   -2.6849   -2.6943    1.7449 H   0  0  0  0  0  0  0  0  0  0  0  0
   -2.0451   -3.8811   -0.3095 H   0  0  0  0  0  0  0  0  0  0  0  0
   -0.9034   -2.5804   -0.8036 H   0  0  0  0  0  0  0  0  0  0  0  0
    1.2610   -3.7647    1.8496 H   0  0  0  0  0  0  0  0  0  0  0  0
    1.1879   -2.5018    0.5704 H   0  0  0  0  0  0  0  0  0  0  0  0
   -0.4456   -2.6356    3.2153 H   0  0  0  0  0  0  0  0  0  0  0  0
    0.7373   -1.3665    2.7660 H   0  0  0  0  0  0  0  0  0  0  0  0
  1  2  1  0  0  0  0
  1 16  1  0  0  0  0
  2  3  2  0  0  0  0
  4  5  1  6  0  0  0
  4  2  1  0  0  0  0
  6  4  1  0  0  0  0
  6  7  1  0  0  0  0
  7  1  1  0  0  0  0
  8  7  2  0  0  0  0
  9  4  1  0  0  0  0
  9 10  2  0  0  0  0
 10 25  1  0  0  0  0
 11 10  1  0  0  0  0
 11 15  1  0  0  0  0
 12 11  2  0  0  0  0
 13 14  2  0  0  0  0
 13 12  1  0  0  0  0
 14  9  1  0  0  0  0
 16 17  1  0  0  0  0
 16 30  1  0  0  0  0
 17 22  1  0  0  0  0
 18 32  1  0  0  0  0
 18 17  1  0  0  0  0
 19 20  1  0  0  0  0
 19 18  1  0  0  0  0
 20 21  1  0  0  0  0
 21 35  1  0  0  0  0
 21 22  1  0  0  0  0
 22 38  1  0  0  0  0
 22 37  1  0  0  0  0
 23  6  1  0  0  0  0
 24  6  1  0  0  0  0
 26 12  1  0  0  0  0
 27 13  1  0  0  0  0
 28 14  1  0  0  0  0
 29 16  1  0  0  0  0
 31 18  1  0  0  0  0
 33 19  1  0  0  0  0
 34 19  1  0  0  0  0
 36 21  1  0  0  0  0
M  END
$$$$
