rmsd231.gzmat
 OpenBabel08211713413D

 38 40  0  0  1  0  0  0  0  0999 V2000
    0.0000    0.0000    0.0000 N   0  0  0  0  0  0  0  0  0  0  0  0
    1.4069    0.0000    0.0000 C   0  0  0  0  0  0  0  0  0  0  0  0
    2.0790    0.0000    0.9935 O   0  0  0  0  0  0  0  0  0  0  0  0
    1.8922   -0.0071   -1.4590 C   0  0  1  0  0  0  0  0  0  0  0  0
    2.5410   -0.9060   -1.6138 H   0  0  0  0  0  0  0  0  0  0  0  0
    0.6043   -0.1389   -2.2967 C   0  0  0  0  0  0  0  0  0  0  0  0
   -0.5395   -0.0748   -1.3009 C   0  0  0  0  0  0  0  0  0  0  0  0
   -1.7187   -0.0876   -1.5276 O   0  0  0  0  0  0  0  0  0  0  0  0
    2.6774    1.2483   -1.6874 C   0  0  0  0  0  0  0  0  0  0  0  0
    2.0400    2.4696   -1.9199 C   0  0  0  0  0  0  0  0  0  0  0  0
    2.8168    3.6104   -2.0734 C   0  0  0  0  0  0  0  0  0  0  0  0
    4.2032    3.5799   -1.9901 C   0  0  0  0  0  0  0  0  0  0  0  0
    4.8284    2.3568   -1.7502 C   0  0  0  0  0  0  0  0  0  0  0  0
    4.0719    1.1961   -1.6052 C   0  0  0  0  0  0  0  0  0  0  0  0
    1.9511    5.2687   -2.3950 Br  0  0  0  0  0  0  0  0  0  0  0  0
   -0.8142    0.0257    1.2369 C   0  0  0  0  0  0  0  0  0  0  0  0
   -1.1449   -1.2593    1.8292 N   0  0  0  0  0  0  0  0  0  0  0  0
   -2.1126   -2.0854    1.0890 C   0  0  0  0  0  0  0  0  0  0  0  0
   -1.4637   -3.0668    0.0976 C   0  0  0  0  0  0  0  0  0  0  0  0
   -0.4504   -3.8266    0.7274 O   0  0  0  0  0  0  0  0  0  0  0  0
    0.5706   -3.0256    1.2897 C   0  0  0  0  0  0  0  0  0  0  0  0
   -0.0106   -2.0523    2.3302 C   0  0  0  0  0  0  0  0  0  0  0  0
    0.5039    0.6478   -3.0696 H   0  0  0  0  0  0  0  0  0  0  0  0
    0.5704   -1.0930   -2.8588 H   0  0  0  0  0  0  0  0  0  0  0  0
    0.9515    2.5236   -1.9663 H   0  0  0  0  0  0  0  0  0  0  0  0
    4.8006    4.4847   -2.1015 H   0  0  0  0  0  0  0  0  0  0  0  0
    5.9141    2.3102   -1.6655 H   0  0  0  0  0  0  0  0  0  0  0  0
    4.5746    0.2485   -1.4086 H   0  0  0  0  0  0  0  0  0  0  0  0
   -1.7699    0.5654    0.9968 H   0  0  0  0  0  0  0  0  0  0  0  0
   -0.2414    0.6239    1.9973 H   0  0  0  0  0  0  0  0  0  0  0  0
   -2.8436   -1.4359    0.5596 H   0  0  0  0  0  0  0  0  0  0  0  0
   -2.6857   -2.6589    1.8565 H   0  0  0  0  0  0  0  0  0  0  0  0
   -2.1754   -3.8453   -0.2332 H   0  0  0  0  0  0  0  0  0  0  0  0
   -1.0480   -2.5560   -0.7854 H   0  0  0  0  0  0  0  0  0  0  0  0
    1.2364   -3.7749    1.7552 H   0  0  0  0  0  0  0  0  0  0  0  0
    1.1158   -2.5059    0.4860 H   0  0  0  0  0  0  0  0  0  0  0  0
   -0.3950   -2.6302    3.2046 H   0  0  0  0  0  0  0  0  0  0  0  0
    0.7887   -1.3793    2.7130 H   0  0  0  0  0  0  0  0  0  0  0  0
  1  2  1  0  0  0  0
  1 16  1  0  0  0  0
  2  3  2  0  0  0  0
  4  5  1  6  0  0  0
  4  2  1  0  0  0  0
  6  4  1  0  0  0  0
  6  7  1  0  0  0  0
  7  1  1  0  0  0  0
  8  7  2  0  0  0  0
  9 14  1  0  0  0  0
  9  4  1  0  0  0  0
 10  9  2  0  0  0  0
 11 12  2  0  0  0  0
 11 10  1  0  0  0  0
 12 13  1  0  0  0  0
 13 27  1  0  0  0  0
 13 14  2  0  0  0  0
 14 28  1  0  0  0  0
 15 11  1  0  0  0  0
 16 17  1  0  0  0  0
 16 30  1  0  0  0  0
 17 22  1  0  0  0  0
 18 17  1  0  0  0  0
 18 32  1  0  0  0  0
 19 20  1  0  0  0  0
 19 18  1  0  0  0  0
 20 21  1  0  0  0  0
 21 35  1  0  0  0  0
 21 22  1  0  0  0  0
 22 38  1  0  0  0  0
 22 37  1  0  0  0  0
 23  6  1  0  0  0  0
 24  6  1  0  0  0  0
 25 10  1  0  0  0  0
 26 12  1  0  0  0  0
 29 16  1  0  0  0  0
 31 18  1  0  0  0  0
 33 19  1  0  0  0  0
 34 19  1  0  0  0  0
 36 21  1  0  0  0  0
M  END
$$$$
