38

N          0.22010       -0.06010       -0.03190
C          1.58810       -0.19430       -0.22820
O          2.40100       -0.38900        0.64280
C          1.87260       -0.01330       -1.73140
H          2.50620       -0.85400       -2.04570
C          0.47720       -0.06030       -2.37200
C         -0.50280        0.07750       -1.21560
O         -1.69840        0.23950       -1.27600
C          2.64950        1.27640       -1.91900
C          1.99110        2.51430       -1.92920
C          2.73160        3.69230       -2.04070
C          4.12460        3.66690       -2.13760
C          4.77510        2.43120       -2.11720
C          4.04690        1.24540       -2.00590
Br         1.81920        5.36540       -2.05820
C         -0.41470       -0.06330        1.31280
N         -0.83760       -1.31680        1.82730
C         -2.00960       -1.95980        1.24400
C         -1.62850       -3.02770        0.21580
O         -0.71200       -3.95610        0.76140
C          0.47370       -3.32860        1.21040
C          0.16940       -2.27230        2.27520
H          0.29100        0.71480       -3.12680
H          0.28150       -1.03260       -2.85150
H          0.90500        2.57550       -1.84710
H          4.68710        4.59700       -2.22650
H          5.86450        2.39650       -2.18980
H          4.56620        0.28520       -1.98200
H         -1.27800        0.61030        1.22220
H          0.33250        0.38040        1.98510
H         -2.65270       -1.19950        0.77820
H         -2.58150       -2.45180        2.05290
H         -2.51550       -3.59870       -0.09890
H         -1.19700       -2.55010       -0.68790
H          1.11990       -4.11980        1.62070
H          1.00840       -2.86400        0.35690
H         -0.21160       -2.79080        3.17480
H          1.08950       -1.73580        2.54730
