rmsd227.gzmat
 OpenBabel08211713413D

 38 40  0  0  1  0  0  0  0  0999 V2000
    0.0000    0.0000    0.0000 N   0  0  0  0  0  0  0  0  0  0  0  0
    1.4086    0.0000    0.0000 C   0  0  0  0  0  0  0  0  0  0  0  0
    2.0736    0.0000    0.9986 O   0  0  0  0  0  0  0  0  0  0  0  0
    1.8928   -0.0122   -1.4547 C   0  0  1  0  0  0  0  0  0  0  0  0
    2.4995   -0.9414   -1.6052 H   0  0  0  0  0  0  0  0  0  0  0  0
    0.5985   -0.0582   -2.2995 C   0  0  0  0  0  0  0  0  0  0  0  0
   -0.5415   -0.0450   -1.3021 C   0  0  0  0  0  0  0  0  0  0  0  0
   -1.7212   -0.0636   -1.5264 O   0  0  0  0  0  0  0  0  0  0  0  0
    2.7021    1.2034   -1.7834 C   0  0  0  0  0  0  0  0  0  0  0  0
    3.7371    1.0931   -2.7163 C   0  0  0  0  0  0  0  0  0  0  0  0
    4.4563    2.2326   -3.0516 C   0  0  0  0  0  0  0  0  0  0  0  0
    4.1833    3.4732   -2.4892 C   0  0  0  0  0  0  0  0  0  0  0  0
    3.1522    3.5685   -1.5552 C   0  0  0  0  0  0  0  0  0  0  0  0
    2.4138    2.4409   -1.2035 C   0  0  0  0  0  0  0  0  0  0  0  0
    5.8583    2.0873   -4.3236 Br  0  0  0  0  0  0  0  0  0  0  0  0
   -0.8203   -0.0290    1.2320 C   0  0  0  0  0  0  0  0  0  0  0  0
   -1.1399   -1.3394    1.7726 N   0  0  0  0  0  0  0  0  0  0  0  0
   -2.0539   -2.1667    0.9686 C   0  0  0  0  0  0  0  0  0  0  0  0
   -1.3374   -3.1028   -0.0208 C   0  0  0  0  0  0  0  0  0  0  0  0
   -0.3398   -3.8609    0.6349 O   0  0  0  0  0  0  0  0  0  0  0  0
    0.6394   -3.0557    1.2620 C   0  0  0  0  0  0  0  0  0  0  0  0
   -0.0039   -2.1154    2.2968 C   0  0  0  0  0  0  0  0  0  0  0  0
    0.5150    0.8059   -2.9903 H   0  0  0  0  0  0  0  0  0  0  0  0
    0.5466   -0.9545   -2.9451 H   0  0  0  0  0  0  0  0  0  0  0  0
    3.9685    0.1270   -3.1655 H   0  0  0  0  0  0  0  0  0  0  0  0
    4.7535    4.3612   -2.7615 H   0  0  0  0  0  0  0  0  0  0  0  0
    2.9249    4.5309   -1.0965 H   0  0  0  0  0  0  0  0  0  0  0  0
    1.6150    2.5322   -0.4665 H   0  0  0  0  0  0  0  0  0  0  0  0
   -1.7824    0.5058    1.0054 H   0  0  0  0  0  0  0  0  0  0  0  0
   -0.2611    0.5489    2.0168 H   0  0  0  0  0  0  0  0  0  0  0  0
   -2.7770   -1.5211    0.4228 H   0  0  0  0  0  0  0  0  0  0  0  0
   -2.6430   -2.7752    1.6967 H   0  0  0  0  0  0  0  0  0  0  0  0
   -2.0162   -3.8834   -0.4103 H   0  0  0  0  0  0  0  0  0  0  0  0
   -0.8895   -2.5569   -0.8660 H   0  0  0  0  0  0  0  0  0  0  0  0
    1.2952   -3.8055    1.7417 H   0  0  0  0  0  0  0  0  0  0  0  0
    1.2133   -2.5091    0.4970 H   0  0  0  0  0  0  0  0  0  0  0  0
   -0.4032   -2.7190    3.1469 H   0  0  0  0  0  0  0  0  0  0  0  0
    0.7642   -1.4294    2.7178 H   0  0  0  0  0  0  0  0  0  0  0  0
  1  2  1  0  0  0  0
  1 16  1  0  0  0  0
  2  3  2  0  0  0  0
  4  5  1  6  0  0  0
  4  2  1  0  0  0  0
  6  4  1  0  0  0  0
  6  7  1  0  0  0  0
  7  1  1  0  0  0  0
  8  7  2  0  0  0  0
  9  4  1  0  0  0  0
  9 14  2  0  0  0  0
 10  9  1  0  0  0  0
 11 10  2  0  0  0  0
 11 12  1  0  0  0  0
 12 13  2  0  0  0  0
 13 14  1  0  0  0  0
 13 27  1  0  0  0  0
 14 28  1  0  0  0  0
 15 11  1  0  0  0  0
 16 17  1  0  0  0  0
 16 30  1  0  0  0  0
 17 22  1  0  0  0  0
 18 32  1  0  0  0  0
 18 17  1  0  0  0  0
 19 20  1  0  0  0  0
 19 18  1  0  0  0  0
 20 21  1  0  0  0  0
 21 35  1  0  0  0  0
 21 22  1  0  0  0  0
 22 38  1  0  0  0  0
 22 37  1  0  0  0  0
 23  6  1  0  0  0  0
 24  6  1  0  0  0  0
 25 10  1  0  0  0  0
 26 12  1  0  0  0  0
 29 16  1  0  0  0  0
 31 18  1  0  0  0  0
 33 19  1  0  0  0  0
 34 19  1  0  0  0  0
 36 21  1  0  0  0  0
M  END
$$$$
