38
rmsd228.gzmat
N          0.00000        0.00000        0.00000
C          1.40860        0.00000        0.00000
O          2.07500        0.00000        0.99690
C          1.89170       -0.01020       -1.45720
H          2.50560       -0.93300       -1.61300
C          0.59910       -0.07520       -2.30010
C         -0.54140       -0.04890       -1.30150
O         -1.72120       -0.06150       -1.52670
C          2.69690        1.22000       -1.73880
C          4.00580        1.09200       -2.20830
C          4.73700        2.24490       -2.46600
C          4.21160        3.51520       -2.26950
C          2.90470        3.62960       -1.79540
C          2.15000        2.48960       -1.53220
Br         6.51600        2.07350       -3.10500
C         -0.81990       -0.02040        1.23250
N         -1.14880       -1.32650        1.77770
C         -2.02110       -2.17010        0.94470
C         -1.25400       -3.11310        0.00130
O         -0.28370       -3.85680        0.71230
C          0.66210       -3.03780        1.37220
C         -0.03260       -2.08720        2.36240
H          0.51330        0.76950       -3.01280
H          0.55010       -0.98760       -2.92420
H          4.44020        0.10360       -2.35990
H          4.79660        4.41160       -2.47500
H          2.47460        4.61690       -1.62710
H          1.13220        2.59190       -1.15560
H         -1.78090        0.51470        1.00180
H         -0.26170        0.56190        2.01410
H         -2.72350       -1.53450        0.36090
H         -2.64000       -2.77430        1.65040
H         -1.90920       -3.90190       -0.41130
H         -0.77010       -2.57370       -0.82800
H          1.29860       -3.77660        1.89340
H          1.26740       -2.49840        0.62650
H         -0.46720       -2.68130        3.20200
H          0.71220       -1.39250        2.81000
