
     RDKit          3D

 38 40  0  0  0  0  0  0  0  0999 V2000
    0.0191   -0.0274   -0.0948 N   0  0  0  0  0  0  0  0  0  0  0  0
    1.3987   -0.1800   -0.0704 C   0  0  0  0  0  0  0  0  0  0  0  0
    2.0772   -0.2417    0.9265 O   0  0  0  0  0  0  0  0  0  0  0  0
    1.8928   -0.1587   -1.5312 C   0  0  1  0  0  0  0  0  0  0  0  0
    2.6669   -0.9298   -1.6449 H   0  0  0  0  0  0  0  0  0  0  0  0
    0.6185   -0.4584   -2.3269 C   0  0  0  0  0  0  0  0  0  0  0  0
   -0.5197   -0.0982   -1.3788 C   0  0  0  0  0  0  0  0  0  0  0  0
   -1.6843    0.0753   -1.6481 O   0  0  0  0  0  0  0  0  0  0  0  0
    2.5102    1.2160   -1.7481 C   0  0  0  0  0  0  0  0  0  0  0  0
    3.7736    1.4688   -1.1921 C   0  0  0  0  0  0  0  0  0  0  0  0
    4.3118    2.7533   -1.2512 C   0  0  0  0  0  0  0  0  0  0  0  0
    3.6159    3.8063   -1.8525 C   0  0  0  0  0  0  0  0  0  0  0  0
    2.3624    3.5491   -2.4063 C   0  0  0  0  0  0  0  0  0  0  0  0
    1.8124    2.2653   -2.3593 C   0  0  0  0  0  0  0  0  0  0  0  0
    6.0238    3.0827   -0.4824 Br  0  0  0  0  0  0  0  0  0  0  0  0
   -0.7932    0.2122    1.1292 C   0  0  0  0  0  0  0  0  0  0  0  0
   -0.9575    1.5597    1.5433 N   0  0  0  0  0  0  0  0  0  0  0  0
    0.1747    2.2702    2.1295 C   0  0  0  0  0  0  0  0  0  0  0  0
    0.8962    3.1525    1.1080 C   0  0  0  0  0  0  0  0  0  0  0  0
   -0.0113    4.0178    0.4463 O   0  0  0  0  0  0  0  0  0  0  0  0
   -1.0452    3.3084   -0.2086 C   0  0  0  0  0  0  0  0  0  0  0  0
   -1.8311    2.4365    0.7725 C   0  0  0  0  0  0  0  0  0  0  0  0
    0.5173    0.0716   -3.2814 H   0  0  0  0  0  0  0  0  0  0  0  0
    0.5352   -1.5356   -2.5432 H   0  0  0  0  0  0  0  0  0  0  0  0
    4.3164    0.6706   -0.6849 H   0  0  0  0  0  0  0  0  0  0  0  0
    4.0481    4.8071   -1.8808 H   0  0  0  0  0  0  0  0  0  0  0  0
    1.8006    4.3625   -2.8697 H   0  0  0  0  0  0  0  0  0  0  0  0
    0.8250    2.1008   -2.7907 H   0  0  0  0  0  0  0  0  0  0  0  0
   -0.2917   -0.3606    1.9216 H   0  0  0  0  0  0  0  0  0  0  0  0
   -1.7748   -0.2323    0.9151 H   0  0  0  0  0  0  0  0  0  0  0  0
    0.8787    1.5459    2.5641 H   0  0  0  0  0  0  0  0  0  0  0  0
   -0.2030    2.9182    2.9424 H   0  0  0  0  0  0  0  0  0  0  0  0
    1.6407    3.7923    1.6053 H   0  0  0  0  0  0  0  0  0  0  0  0
    1.4313    2.5293    0.3695 H   0  0  0  0  0  0  0  0  0  0  0  0
   -1.7027    4.0587   -0.6744 H   0  0  0  0  0  0  0  0  0  0  0  0
   -0.6257    2.6777   -1.0152 H   0  0  0  0  0  0  0  0  0  0  0  0
   -2.3698    3.1013    1.4734 H   0  0  0  0  0  0  0  0  0  0  0  0
   -2.5717    1.8326    0.2287 H   0  0  0  0  0  0  0  0  0  0  0  0
  1  2  1  0
  1  7  1  0
  1 16  1  0
  2  3  2  0
  2  4  1  0
  4  5  1  1
  4  6  1  0
  4  9  1  0
  6  7  1  0
  6 23  1  0
  6 24  1  0
  7  8  2  0
  9 10  2  0
  9 14  1  0
 10 11  1  0
 10 25  1  0
 11 12  2  0
 11 15  1  0
 12 13  1  0
 12 26  1  0
 13 14  2  0
 13 27  1  0
 14 28  1  0
 16 17  1  0
 16 29  1  0
 16 30  1  0
 17 18  1  0
 17 22  1  0
 18 19  1  0
 18 31  1  0
 18 32  1  0
 19 20  1  0
 19 33  1  0
 19 34  1  0
 20 21  1  0
 21 22  1  0
 21 35  1  0
 21 36  1  0
 22 37  1  0
 22 38  1  0
M  END

