38
rmsd230.gzmat
N          0.00000        0.00000        0.00000
C          1.40800        0.00000        0.00000
O          2.07710        0.00000        0.99530
C          1.89190       -0.00840       -1.45720
H          2.53260       -0.91260       -1.60960
C          0.60070       -0.11490       -2.29810
C         -0.54140       -0.07380       -1.30040
O         -1.72110       -0.09780       -1.52400
C          2.66400        1.24490       -1.73160
C          2.03560        2.49070       -1.63700
C          2.77520        3.63420       -1.90300
C          4.11910        3.58110       -2.25430
C          4.73740        2.33430       -2.33380
C          4.01610        1.17050       -2.07120
Br         1.91820        5.32260       -1.77970
C         -0.81690        0.00000        1.23510
N         -1.14620       -1.29770        1.80040
C         -2.07940       -2.12510        1.01900
C         -1.38620       -3.08260        0.03450
O         -0.39360       -3.84610        0.69180
C          0.60230       -3.04940        1.30280
C         -0.01530       -2.07980        2.32570
H          0.50330        0.70490       -3.03770
H          0.56370       -1.04720       -2.89310
H          0.98500        2.55260       -1.34900
H          4.68960        4.48600       -2.46360
H          5.79220        2.27070       -2.60090
H          4.51720        0.20420       -2.12360
H         -1.77460        0.53970        1.00210
H         -0.25020        0.58720        2.00820
H         -2.80280       -1.47750        0.47630
H         -2.66650       -2.71890        1.76010
H         -2.07950       -3.85880       -0.33770
H         -0.93950       -2.55470       -0.82270
H          1.24540       -3.80340        1.79300
H          1.18370       -2.52730        0.52650
H         -0.41150       -2.65930        3.19400
H          0.76950       -1.39760        2.72210
