rmsd176.gzmat
 OpenBabel08211713403D

 38 40  0  0  0  0  0  0  0  0999 V2000
    0.0000    0.0000    0.0000 S   0  0  0  0  0  0  0  0  0  0  0  0
    1.4351    0.0000    0.0000 O   0  0  0  0  0  0  0  0  0  0  0  0
   -0.7923    0.0000   -1.1980 O   0  0  0  0  0  0  0  0  0  0  0  0
   -0.4365    1.5006    0.8331 N   0  0  0  0  0  0  0  0  0  0  0  0
    0.3373    2.1708    1.7743 C   0  0  0  0  0  0  0  0  0  0  0  0
   -0.3632    3.2989    2.1971 C   0  0  0  0  0  0  0  0  0  0  0  0
   -1.6081    3.3256    1.4862 C   0  0  0  0  0  0  0  0  0  0  0  0
   -1.6319    2.2222    0.6543 C   0  0  0  0  0  0  0  0  0  0  0  0
    0.1082    4.2333    3.2071 C   0  0  0  0  0  0  0  0  0  0  0  0
    0.9876    3.9310    3.9863 O   0  0  0  0  0  0  0  0  0  0  0  0
   -0.5200    5.5794    3.2750 C   0  0  0  0  0  0  0  0  0  0  0  0
   -0.7755    6.3067    2.1129 C   0  0  0  0  0  0  0  0  0  0  0  0
   -1.3473    7.5736    2.2038 C   0  0  0  0  0  0  0  0  0  0  0  0
   -1.6622    8.1081    3.4530 C   0  0  0  0  0  0  0  0  0  0  0  0
   -1.3971    7.3829    4.6136 C   0  0  0  0  0  0  0  0  0  0  0  0
   -0.8177    6.1186    4.5269 C   0  0  0  0  0  0  0  0  0  0  0  0
   -0.5947   -1.2111    1.1009 C   0  0  0  0  0  0  0  0  0  0  0  0
   -1.8253   -1.8258    0.8656 C   0  0  0  0  0  0  0  0  0  0  0  0
   -2.3101   -2.7781    1.7566 C   0  0  0  0  0  0  0  0  0  0  0  0
   -1.5661   -3.1245    2.8891 C   0  0  0  0  0  0  0  0  0  0  0  0
   -0.3268   -2.5154    3.1138 C   0  0  0  0  0  0  0  0  0  0  0  0
    0.1582   -1.5651    2.2217 C   0  0  0  0  0  0  0  0  0  0  0  0
   -2.0953   -4.1204    3.8595 C   0  0  0  0  0  0  0  0  0  0  0  0
    1.3176    1.8331    2.0739 H   0  0  0  0  0  0  0  0  0  0  0  0
   -2.3698    4.0676    1.6027 H   0  0  0  0  0  0  0  0  0  0  0  0
   -2.3795    1.9027   -0.0481 H   0  0  0  0  0  0  0  0  0  0  0  0
   -0.5226    5.8860    1.1392 H   0  0  0  0  0  0  0  0  0  0  0  0
   -1.5458    8.1455    1.3003 H   0  0  0  0  0  0  0  0  0  0  0  0
   -2.1126    9.0965    3.5225 H   0  0  0  0  0  0  0  0  0  0  0  0
   -1.6349    7.8057    5.5873 H   0  0  0  0  0  0  0  0  0  0  0  0
   -0.5865    5.5511    5.4300 H   0  0  0  0  0  0  0  0  0  0  0  0
   -2.4225   -1.5734   -0.0198 H   0  0  0  0  0  0  0  0  0  0  0  0
   -3.2715   -3.2529    1.5721 H   0  0  0  0  0  0  0  0  0  0  0  0
    0.2590   -2.7848    3.9907 H   0  0  0  0  0  0  0  0  0  0  0  0
    1.1363   -1.1076    2.4144 H   0  0  0  0  0  0  0  0  0  0  0  0
   -1.2973   -4.6878    4.3605 H   0  0  0  0  0  0  0  0  0  0  0  0
   -2.7643   -4.8565    3.3909 H   0  0  0  0  0  0  0  0  0  0  0  0
   -2.6759   -3.6209    4.6535 H   0  0  0  0  0  0  0  0  0  0  0  0
  1  4  1  0  0  0  0
  1 17  1  0  0  0  0
  2  1  2  0  0  0  0
  3  1  2  0  0  0  0
  4  5  1  0  0  0  0
  5 24  1  0  0  0  0
  5  6  2  0  0  0  0
  6  9  1  0  0  0  0
  7 25  1  0  0  0  0
  7  6  1  0  0  0  0
  8  4  1  0  0  0  0
  8  7  2  0  0  0  0
  9 11  1  0  0  0  0
  9 10  2  0  0  0  0
 11 16  2  0  0  0  0
 12 13  2  0  0  0  0
 12 11  1  0  0  0  0
 13 14  1  0  0  0  0
 14 29  1  0  0  0  0
 14 15  2  0  0  0  0
 15 30  1  0  0  0  0
 16 15  1  0  0  0  0
 16 31  1  0  0  0  0
 17 22  1  0  0  0  0
 18 17  2  0  0  0  0
 18 19  1  0  0  0  0
 19 20  2  0  0  0  0
 20 21  1  0  0  0  0
 20 23  1  0  0  0  0
 21 34  1  0  0  0  0
 22 35  1  0  0  0  0
 22 21  2  0  0  0  0
 23 36  1  0  0  0  0
 23 38  1  0  0  0  0
 26  8  1  0  0  0  0
 27 12  1  0  0  0  0
 28 13  1  0  0  0  0
 32 18  1  0  0  0  0
 33 19  1  0  0  0  0
 37 23  1  0  0  0  0
M  END
$$$$
