rmsd241.gzmat
 OpenBabel08211713413D

 38 40  0  0  0  0  0  0  0  0999 V2000
    0.0000    0.0000    0.0000 S   0  0  0  0  0  0  0  0  0  0  0  0
    1.4350    0.0000    0.0000 O   0  0  0  0  0  0  0  0  0  0  0  0
   -0.7900    0.0000   -1.1999 O   0  0  0  0  0  0  0  0  0  0  0  0
   -0.4623    1.5014    0.8183 N   0  0  0  0  0  0  0  0  0  0  0  0
    0.1735    2.0818    1.9097 C   0  0  0  0  0  0  0  0  0  0  0  0
   -0.4974    3.2591    2.2363 C   0  0  0  0  0  0  0  0  0  0  0  0
   -1.5762    3.4130    1.3041 C   0  0  0  0  0  0  0  0  0  0  0  0
   -1.5354    2.3330    0.4434 C   0  0  0  0  0  0  0  0  0  0  0  0
   -0.1530    4.1226    3.3541 C   0  0  0  0  0  0  0  0  0  0  0  0
    0.6210    3.7650    4.2170 O   0  0  0  0  0  0  0  0  0  0  0  0
   -0.7970    5.4618    3.4300 C   0  0  0  0  0  0  0  0  0  0  0  0
   -0.8052    6.3126    2.3253 C   0  0  0  0  0  0  0  0  0  0  0  0
   -1.4133    7.5622    2.4226 C   0  0  0  0  0  0  0  0  0  0  0  0
   -2.0115    7.9556    3.6195 C   0  0  0  0  0  0  0  0  0  0  0  0
   -1.9901    7.1078    4.7255 C   0  0  0  0  0  0  0  0  0  0  0  0
   -1.3759    5.8602    4.6345 C   0  0  0  0  0  0  0  0  0  0  0  0
   -0.5834   -1.2153    1.1016 C   0  0  0  0  0  0  0  0  0  0  0  0
   -1.9051   -1.6554    1.0207 C   0  0  0  0  0  0  0  0  0  0  0  0
   -2.3724   -2.6232    1.9046 C   0  0  0  0  0  0  0  0  0  0  0  0
   -1.5193   -3.1610    2.8731 C   0  0  0  0  0  0  0  0  0  0  0  0
   -0.1927   -2.7210    2.9465 C   0  0  0  0  0  0  0  0  0  0  0  0
    0.2742   -1.7556    2.0615 C   0  0  0  0  0  0  0  0  0  0  0  0
   -2.0105   -4.1906    3.8282 C   0  0  0  0  0  0  0  0  0  0  0  0
    1.0448    1.6530    2.3779 H   0  0  0  0  0  0  0  0  0  0  0  0
   -2.2783    4.2202    1.2998 H   0  0  0  0  0  0  0  0  0  0  0  0
   -2.1628    2.0932   -0.3963 H   0  0  0  0  0  0  0  0  0  0  0  0
   -0.3352    6.0014    1.3922 H   0  0  0  0  0  0  0  0  0  0  0  0
   -1.4213    8.2293    1.5635 H   0  0  0  0  0  0  0  0  0  0  0  0
   -2.4934    8.9285    3.6911 H   0  0  0  0  0  0  0  0  0  0  0  0
   -2.4480    7.4206    5.6613 H   0  0  0  0  0  0  0  0  0  0  0  0
   -1.3389    5.1959    5.4985 H   0  0  0  0  0  0  0  0  0  0  0  0
   -2.5885   -1.2549    0.2623 H   0  0  0  0  0  0  0  0  0  0  0  0
   -3.4046   -2.9622    1.8411 H   0  0  0  0  0  0  0  0  0  0  0  0
    0.4745   -3.1370    3.6992 H   0  0  0  0  0  0  0  0  0  0  0  0
    1.3222   -1.4355    2.1272 H   0  0  0  0  0  0  0  0  0  0  0  0
   -1.3180   -5.0427    3.9070 H   0  0  0  0  0  0  0  0  0  0  0  0
   -2.9907   -4.6033    3.5511 H   0  0  0  0  0  0  0  0  0  0  0  0
   -2.1156   -3.7704    4.8421 H   0  0  0  0  0  0  0  0  0  0  0  0
  1  4  1  0  0  0  0
  1 17  1  0  0  0  0
  2  1  2  0  0  0  0
  3  1  2  0  0  0  0
  4  5  1  0  0  0  0
  5  6  2  0  0  0  0
  5 24  1  0  0  0  0
  6  9  1  0  0  0  0
  7  6  1  0  0  0  0
  8  4  1  0  0  0  0
  8  7  2  0  0  0  0
  9 11  1  0  0  0  0
  9 10  2  0  0  0  0
 11 16  2  0  0  0  0
 12 13  2  0  0  0  0
 12 11  1  0  0  0  0
 13 14  1  0  0  0  0
 14 29  1  0  0  0  0
 14 15  2  0  0  0  0
 15 30  1  0  0  0  0
 16 15  1  0  0  0  0
 16 31  1  0  0  0  0
 17 22  1  0  0  0  0
 18 17  2  0  0  0  0
 18 19  1  0  0  0  0
 19 20  2  0  0  0  0
 20 21  1  0  0  0  0
 20 23  1  0  0  0  0
 21 34  1  0  0  0  0
 22 35  1  0  0  0  0
 22 21  2  0  0  0  0
 23 36  1  0  0  0  0
 23 38  1  0  0  0  0
 25  7  1  0  0  0  0
 26  8  1  0  0  0  0
 27 12  1  0  0  0  0
 28 13  1  0  0  0  0
 32 18  1  0  0  0  0
 33 19  1  0  0  0  0
 37 23  1  0  0  0  0
M  END
$$$$
