rmsd5.gzmat
 OpenBabel08211713413D

 38 40  0  0  0  0  0  0  0  0999 V2000
    0.0000    0.0000    0.0000 S   0  0  0  0  0  0  0  0  0  0  0  0
    1.4361    0.0000    0.0000 O   0  0  0  0  0  0  0  0  0  0  0  0
   -0.7927    0.0000   -1.1963 O   0  0  0  0  0  0  0  0  0  0  0  0
   -0.4428    1.5011    0.8287 N   0  0  0  0  0  0  0  0  0  0  0  0
   -1.6548    2.1743    0.7286 C   0  0  0  0  0  0  0  0  0  0  0  0
   -1.6032    3.2986    1.5510 C   0  0  0  0  0  0  0  0  0  0  0  0
   -0.3090    3.3221    2.1686 C   0  0  0  0  0  0  0  0  0  0  0  0
    0.3870    2.2201    1.7104 C   0  0  0  0  0  0  0  0  0  0  0  0
   -2.7020    4.2291    1.7493 C   0  0  0  0  0  0  0  0  0  0  0  0
   -3.8287    3.9691    1.3833 O   0  0  0  0  0  0  0  0  0  0  0  0
   -2.4153    5.5132    2.4436 C   0  0  0  0  0  0  0  0  0  0  0  0
   -3.2485    5.9104    3.4892 C   0  0  0  0  0  0  0  0  0  0  0  0
   -2.9941    7.1070    4.1565 C   0  0  0  0  0  0  0  0  0  0  0  0
   -1.9191    7.9057    3.7691 C   0  0  0  0  0  0  0  0  0  0  0  0
   -1.0996    7.5139    2.7107 C   0  0  0  0  0  0  0  0  0  0  0  0
   -1.3465    6.3151    2.0453 C   0  0  0  0  0  0  0  0  0  0  0  0
   -0.5905   -1.2140    1.1000 C   0  0  0  0  0  0  0  0  0  0  0  0
   -1.8980   -1.6896    0.9816 C   0  0  0  0  0  0  0  0  0  0  0  0
   -2.3719   -2.6489    1.8695 C   0  0  0  0  0  0  0  0  0  0  0  0
   -1.5409   -3.1445    2.8808 C   0  0  0  0  0  0  0  0  0  0  0  0
   -0.2288   -2.6740    2.9886 C   0  0  0  0  0  0  0  0  0  0  0  0
    0.2448   -1.7135    2.0998 C   0  0  0  0  0  0  0  0  0  0  0  0
   -2.0603   -4.1681    3.8277 C   0  0  0  0  0  0  0  0  0  0  0  0
   -2.4596    1.8406    0.0917 H   0  0  0  0  0  0  0  0  0  0  0  0
    0.0312    4.0626    2.8617 H   0  0  0  0  0  0  0  0  0  0  0  0
    1.3910    1.9005    1.9212 H   0  0  0  0  0  0  0  0  0  0  0  0
   -4.0970    5.2865    3.7733 H   0  0  0  0  0  0  0  0  0  0  0  0
   -3.6379    7.4187    4.9760 H   0  0  0  0  0  0  0  0  0  0  0  0
   -1.7219    8.8400    4.2907 H   0  0  0  0  0  0  0  0  0  0  0  0
   -0.2675    8.1436    2.4034 H   0  0  0  0  0  0  0  0  0  0  0  0
   -0.7115    6.0060    1.2149 H   0  0  0  0  0  0  0  0  0  0  0  0
   -2.5643   -1.3209    0.1916 H   0  0  0  0  0  0  0  0  0  0  0  0
   -3.3929   -3.0160    1.7800 H   0  0  0  0  0  0  0  0  0  0  0  0
    0.4252   -3.0587    3.7682 H   0  0  0  0  0  0  0  0  0  0  0  0
    1.2802   -1.3648    2.1970 H   0  0  0  0  0  0  0  0  0  0  0  0
   -2.2755   -5.1178    3.3120 H   0  0  0  0  0  0  0  0  0  0  0  0
   -2.9998   -3.8426    4.3020 H   0  0  0  0  0  0  0  0  0  0  0  0
   -1.3585   -4.4001    4.6409 H   0  0  0  0  0  0  0  0  0  0  0  0
  1  4  1  0  0  0  0
  1 17  1  0  0  0  0
  2  1  2  0  0  0  0
  3  1  2  0  0  0  0
  4  8  1  0  0  0  0
  5  4  1  0  0  0  0
  5  6  2  0  0  0  0
  6  9  1  0  0  0  0
  6  7  1  0  0  0  0
  7 25  1  0  0  0  0
  8 26  1  0  0  0  0
  8  7  2  0  0  0  0
  9 11  1  0  0  0  0
 10  9  2  0  0  0  0
 11 12  1  0  0  0  0
 12 27  1  0  0  0  0
 12 13  2  0  0  0  0
 13 28  1  0  0  0  0
 14 13  1  0  0  0  0
 14 29  1  0  0  0  0
 15 14  2  0  0  0  0
 16 11  2  0  0  0  0
 16 15  1  0  0  0  0
 17 22  1  0  0  0  0
 18 17  2  0  0  0  0
 18 19  1  0  0  0  0
 19 20  2  0  0  0  0
 20 21  1  0  0  0  0
 20 23  1  0  0  0  0
 21 34  1  0  0  0  0
 22 35  1  0  0  0  0
 22 21  2  0  0  0  0
 23 37  1  0  0  0  0
 23 38  1  0  0  0  0
 24  5  1  0  0  0  0
 30 15  1  0  0  0  0
 31 16  1  0  0  0  0
 32 18  1  0  0  0  0
 33 19  1  0  0  0  0
 36 23  1  0  0  0  0
M  END
$$$$
