38

S          0.09660        0.02710        0.02030
O          1.55020        0.03620        0.11520
O         -0.62830       -0.04510       -1.24210
N         -0.41580        1.51100        0.74700
C          0.25820        2.16380        1.75020
C         -0.52440        3.23260        2.15510
C         -1.73160        3.19630        1.36580
C         -1.64260        2.12420        0.51390
C         -0.11440        4.13390        3.25770
O          0.75210        3.78850        4.04730
C         -0.78110        5.46990        3.40940
C         -1.29260        6.19610        2.32220
C         -1.85330        7.46020        2.52060
C         -1.91810        8.00420        3.80600
C         -1.40110        7.29020        4.89340
C         -0.82500        6.03740        4.69370
C         -0.55210       -1.19600        1.13610
C          0.22470       -1.60830        2.21950
C         -0.30430       -2.54840        3.10390
C         -1.58900       -3.08120        2.91580
C         -2.33890       -2.65200        1.80610
C         -1.83090       -1.71390        0.91160
C         -2.15870       -4.09850        3.86860
H          1.23990        1.84550        2.08740
H         -2.57600        3.87660        1.43710
H         -2.31300        1.74140       -0.25000
H         -1.22380        5.78750        1.31330
H         -2.23630        8.02460        1.66700
H         -2.36450        8.98960        3.96070
H         -1.44320        7.71790        5.89790
H         -0.39490        5.47260        5.52260
H          1.22850       -1.20450        2.35780
H          0.29520       -2.87770        3.95580
H         -3.33700       -3.06520        1.63960
H         -2.40440       -1.39000        0.04220
H         -2.35240       -5.05400        3.35380
H         -3.12020       -3.75540        4.28370
H         -1.47610       -4.29670        4.70670
