38
rmsd174.gzmat
S          0.00000        0.00000        0.00000
O          1.43510        0.00000        0.00000
O         -0.79240        0.00000       -1.19770
N         -0.44800        1.50030        0.82820
C          0.27130        2.13050        1.83700
C         -0.42790        3.27010        2.23090
C         -1.61190        3.34930        1.42580
C         -1.60420        2.26300        0.57200
C         -0.01400        4.17000        3.29450
O          0.87500        3.87880        4.06610
C         -0.72960        5.46790        3.42670
C         -0.86910        6.31400        2.32740
C         -1.53300        7.52980        2.47440
C         -2.05870        7.89180        3.71470
C         -1.91080        7.04630        4.81300
C         -1.23740        5.83420        4.67280
C         -0.58840       -1.20880        1.10650
C         -1.87850       -1.72020        0.96440
C         -2.35710       -2.66460        1.86790
C         -1.54750       -3.10570        2.91870
C         -0.24790       -2.60180        3.04790
C          0.23060       -1.66090        2.14330
C         -2.05660       -4.09830        3.90310
H          1.21640        1.75950        2.20200
H         -2.35680        4.11410        1.49680
H         -2.30420        1.97990       -0.19260
H         -0.45670        6.02530        1.36050
H         -1.64000        8.19660        1.62130
H         -2.58200        8.83940        3.82620
H         -2.31450        7.33400        5.78150
H         -1.09830        5.17560        5.53080
H         -2.52900       -1.39380        0.14360
H         -3.36510       -3.05840        1.75500
H          0.38870       -2.94750        3.86010
H          1.25680       -1.28860        2.25630
H         -1.35850       -4.93890        4.03690
H         -3.02500       -4.53200        3.61750
H         -2.19420       -3.63710        4.89520
