38
rmsd195.gzmat
S          0.00000        0.00000        0.00000
O          1.43560        0.00000        0.00000
O         -0.79400        0.00000       -1.19680
N         -0.43820        1.50500        0.82290
C          0.35170        2.21610        1.71930
C         -0.34100        3.36290        2.10250
C         -1.59610        3.36130        1.40860
C         -1.63370        2.22340        0.62640
C          0.14320        4.35060        3.05310
O          1.08820        4.13030        3.77960
C         -0.56750        5.65670        3.11450
C         -0.77710        6.39740        1.95170
C         -1.43020        7.62530        2.02570
C         -1.87510        8.10490        3.25750
C         -1.66140        7.36250        4.41790
C         -0.99830        6.13850        4.34990
C         -0.58990       -1.22010        1.09360
C         -1.88170       -1.72560        0.94310
C         -2.35240       -2.70630        1.81090
C         -1.53340       -3.19030        2.83550
C         -0.23770       -2.68200        2.98180
C          0.23340       -1.70470        2.11190
C         -2.02780       -4.23740        3.76970
H          1.33550        1.88860        2.01960
H         -2.35240        4.11240        1.50120
H         -2.38930        1.87830       -0.05450
H         -0.42760        6.01610        0.99200
H         -1.59180        8.20960        1.12250
H         -2.38840        9.06270        3.31300
H         -2.00620        7.74090        5.37790
H         -0.80900        5.56000        5.25450
H         -2.53900       -1.36810        0.14110
H         -3.36020       -3.09760        1.68890
H          0.40320       -3.05510        3.77860
H          1.25810       -1.33210        2.23530
H         -1.33770       -5.09360        3.82580
H         -3.01010       -4.64010        3.48530
H         -2.12980       -3.84260        4.79370
