38
rmsd178.gzmat
S          0.00000        0.00000        0.00000
O          1.43560        0.00000        0.00000
O         -0.79340        0.00000       -1.19680
N         -0.44280        1.50150        0.82790
C          0.33530        2.19560        1.74730
C         -0.37290        3.32230        2.16160
C         -1.62740        3.32320        1.46710
C         -1.64850        2.20750        0.65220
C          0.10170        4.28400        3.14330
O          1.03450        4.03460        3.87750
C         -0.59540        5.59500        3.23580
C         -0.87650        6.33210        2.08560
C         -1.51380        7.56570        2.19650
C         -1.87010        8.05600        3.45260
C         -1.58260        7.31970        4.60050
C         -0.93650        6.08960        4.49460
C         -0.59100       -1.21270        1.10120
C         -1.90580       -1.67030        0.99420
C         -2.38660       -2.62050        1.88790
C         -1.55500       -3.12500        2.89410
C         -0.23450       -2.67570        2.98790
C          0.24650       -1.72490        2.09250
C         -2.07840       -4.14270        3.84500
H          1.32280        1.87220        2.04010
H         -2.39600        4.05860        1.58200
H         -2.39940        1.87110       -0.03810
H         -0.59320        5.94530        1.10650
H         -1.73130        8.14610        1.30280
H         -2.37140        9.01810        3.53660
H         -1.85470        7.70760        5.57990
H         -0.68850        5.51520        5.38790
H         -2.57200       -1.29590        0.20790
H         -3.41250       -2.97370        1.80570
H          0.42040       -3.06980        3.76250
H          1.28960       -1.39430        2.17830
H         -1.42970       -4.28770        4.72030
H         -2.17900       -5.12550        3.35660
H         -3.07410       -3.87410        4.22980
