rmsd174.gzmat
 OpenBabel08211713403D

 38 40  0  0  0  0  0  0  0  0999 V2000
    0.0000    0.0000    0.0000 S   0  0  0  0  0  0  0  0  0  0  0  0
    1.4351    0.0000    0.0000 O   0  0  0  0  0  0  0  0  0  0  0  0
   -0.7924    0.0000   -1.1977 O   0  0  0  0  0  0  0  0  0  0  0  0
   -0.4480    1.5003    0.8282 N   0  0  0  0  0  0  0  0  0  0  0  0
    0.2713    2.1305    1.8370 C   0  0  0  0  0  0  0  0  0  0  0  0
   -0.4279    3.2701    2.2309 C   0  0  0  0  0  0  0  0  0  0  0  0
   -1.6119    3.3493    1.4258 C   0  0  0  0  0  0  0  0  0  0  0  0
   -1.6042    2.2630    0.5720 C   0  0  0  0  0  0  0  0  0  0  0  0
   -0.0140    4.1700    3.2945 C   0  0  0  0  0  0  0  0  0  0  0  0
    0.8750    3.8788    4.0661 O   0  0  0  0  0  0  0  0  0  0  0  0
   -0.7296    5.4679    3.4267 C   0  0  0  0  0  0  0  0  0  0  0  0
   -0.8691    6.3140    2.3274 C   0  0  0  0  0  0  0  0  0  0  0  0
   -1.5330    7.5298    2.4744 C   0  0  0  0  0  0  0  0  0  0  0  0
   -2.0587    7.8918    3.7147 C   0  0  0  0  0  0  0  0  0  0  0  0
   -1.9108    7.0463    4.8130 C   0  0  0  0  0  0  0  0  0  0  0  0
   -1.2374    5.8342    4.6728 C   0  0  0  0  0  0  0  0  0  0  0  0
   -0.5884   -1.2088    1.1065 C   0  0  0  0  0  0  0  0  0  0  0  0
   -1.8785   -1.7202    0.9644 C   0  0  0  0  0  0  0  0  0  0  0  0
   -2.3571   -2.6646    1.8679 C   0  0  0  0  0  0  0  0  0  0  0  0
   -1.5475   -3.1057    2.9187 C   0  0  0  0  0  0  0  0  0  0  0  0
   -0.2479   -2.6018    3.0479 C   0  0  0  0  0  0  0  0  0  0  0  0
    0.2306   -1.6609    2.1433 C   0  0  0  0  0  0  0  0  0  0  0  0
   -2.0566   -4.0983    3.9031 C   0  0  0  0  0  0  0  0  0  0  0  0
    1.2164    1.7595    2.2020 H   0  0  0  0  0  0  0  0  0  0  0  0
   -2.3568    4.1141    1.4968 H   0  0  0  0  0  0  0  0  0  0  0  0
   -2.3042    1.9799   -0.1926 H   0  0  0  0  0  0  0  0  0  0  0  0
   -0.4567    6.0253    1.3605 H   0  0  0  0  0  0  0  0  0  0  0  0
   -1.6400    8.1966    1.6213 H   0  0  0  0  0  0  0  0  0  0  0  0
   -2.5820    8.8394    3.8262 H   0  0  0  0  0  0  0  0  0  0  0  0
   -2.3145    7.3340    5.7815 H   0  0  0  0  0  0  0  0  0  0  0  0
   -1.0983    5.1756    5.5308 H   0  0  0  0  0  0  0  0  0  0  0  0
   -2.5290   -1.3938    0.1436 H   0  0  0  0  0  0  0  0  0  0  0  0
   -3.3651   -3.0584    1.7550 H   0  0  0  0  0  0  0  0  0  0  0  0
    0.3887   -2.9475    3.8601 H   0  0  0  0  0  0  0  0  0  0  0  0
    1.2568   -1.2886    2.2563 H   0  0  0  0  0  0  0  0  0  0  0  0
   -1.3585   -4.9389    4.0369 H   0  0  0  0  0  0  0  0  0  0  0  0
   -3.0250   -4.5320    3.6175 H   0  0  0  0  0  0  0  0  0  0  0  0
   -2.1942   -3.6371    4.8952 H   0  0  0  0  0  0  0  0  0  0  0  0
  1  4  1  0  0  0  0
  1 17  1  0  0  0  0
  2  1  2  0  0  0  0
  3  1  2  0  0  0  0
  4  5  1  0  0  0  0
  5 24  1  0  0  0  0
  5  6  2  0  0  0  0
  6  9  1  0  0  0  0
  7 25  1  0  0  0  0
  7  6  1  0  0  0  0
  8  4  1  0  0  0  0
  8  7  2  0  0  0  0
  9 11  1  0  0  0  0
  9 10  2  0  0  0  0
 11 16  2  0  0  0  0
 12 13  2  0  0  0  0
 12 11  1  0  0  0  0
 13 14  1  0  0  0  0
 14 29  1  0  0  0  0
 14 15  2  0  0  0  0
 15 30  1  0  0  0  0
 16 15  1  0  0  0  0
 16 31  1  0  0  0  0
 17 22  1  0  0  0  0
 18 17  2  0  0  0  0
 18 19  1  0  0  0  0
 19 20  2  0  0  0  0
 20 21  1  0  0  0  0
 20 23  1  0  0  0  0
 21 34  1  0  0  0  0
 22 35  1  0  0  0  0
 22 21  2  0  0  0  0
 23 36  1  0  0  0  0
 23 38  1  0  0  0  0
 26  8  1  0  0  0  0
 27 12  1  0  0  0  0
 28 13  1  0  0  0  0
 32 18  1  0  0  0  0
 33 19  1  0  0  0  0
 37 23  1  0  0  0  0
M  END
$$$$
