rmsd198.gzmat
 OpenBabel08211713413D

 38 40  0  0  0  0  0  0  0  0999 V2000
    0.0000    0.0000    0.0000 S   0  0  0  0  0  0  0  0  0  0  0  0
    1.4352    0.0000    0.0000 O   0  0  0  0  0  0  0  0  0  0  0  0
   -0.7926    0.0000   -1.1975 O   0  0  0  0  0  0  0  0  0  0  0  0
   -0.4548    1.5008    0.8230 N   0  0  0  0  0  0  0  0  0  0  0  0
    0.2659    2.1554    1.8148 C   0  0  0  0  0  0  0  0  0  0  0  0
   -0.4454    3.2910    2.1989 C   0  0  0  0  0  0  0  0  0  0  0  0
   -1.6402    3.3403    1.4080 C   0  0  0  0  0  0  0  0  0  0  0  0
   -1.6256    2.2421    0.5700 C   0  0  0  0  0  0  0  0  0  0  0  0
   -0.0341    4.2139    3.2439 C   0  0  0  0  0  0  0  0  0  0  0  0
    0.8431    3.9334    4.0328 O   0  0  0  0  0  0  0  0  0  0  0  0
   -0.7365    5.5225    3.3361 C   0  0  0  0  0  0  0  0  0  0  0  0
   -0.8761    6.3349    2.2114 C   0  0  0  0  0  0  0  0  0  0  0  0
   -1.5207    7.5647    2.3263 C   0  0  0  0  0  0  0  0  0  0  0  0
   -2.0262    7.9747    3.5596 C   0  0  0  0  0  0  0  0  0  0  0  0
   -1.8814    7.1613    4.6825 C   0  0  0  0  0  0  0  0  0  0  0  0
   -1.2282    5.9352    4.5743 C   0  0  0  0  0  0  0  0  0  0  0  0
   -0.5904   -1.2104    1.1037 C   0  0  0  0  0  0  0  0  0  0  0  0
   -1.9195   -1.6297    1.0323 C   0  0  0  0  0  0  0  0  0  0  0  0
   -2.4004   -2.5783    1.9295 C   0  0  0  0  0  0  0  0  0  0  0  0
   -1.5516   -3.1232    2.8978 C   0  0  0  0  0  0  0  0  0  0  0  0
   -0.2159   -2.7097    2.9573 C   0  0  0  0  0  0  0  0  0  0  0  0
    0.2628   -1.7587    2.0627 C   0  0  0  0  0  0  0  0  0  0  0  0
   -2.0587   -4.1312    3.8673 C   0  0  0  0  0  0  0  0  0  0  0  0
    1.2187    1.8018    2.1765 H   0  0  0  0  0  0  0  0  0  0  0  0
   -2.3950    4.0947    1.4773 H   0  0  0  0  0  0  0  0  0  0  0  0
   -2.3289    1.9382   -0.1833 H   0  0  0  0  0  0  0  0  0  0  0  0
   -0.4791    6.0095    1.2499 H   0  0  0  0  0  0  0  0  0  0  0  0
   -1.6294    8.2048    1.4536 H   0  0  0  0  0  0  0  0  0  0  0  0
   -2.5316    8.9344    3.6463 H   0  0  0  0  0  0  0  0  0  0  0  0
   -2.2713    7.4860    5.6445 H   0  0  0  0  0  0  0  0  0  0  0  0
   -1.0911    5.3002    5.4502 H   0  0  0  0  0  0  0  0  0  0  0  0
   -2.5988   -1.2281    0.2711 H   0  0  0  0  0  0  0  0  0  0  0  0
   -3.4398   -2.8958    1.8771 H   0  0  0  0  0  0  0  0  0  0  0  0
    0.4491   -3.1335    3.7071 H   0  0  0  0  0  0  0  0  0  0  0  0
    1.3163   -1.4559    2.1212 H   0  0  0  0  0  0  0  0  0  0  0  0
   -1.3623   -4.9748    3.9882 H   0  0  0  0  0  0  0  0  0  0  0  0
   -3.0277   -4.5592    3.5754 H   0  0  0  0  0  0  0  0  0  0  0  0
   -2.1952   -3.6840    4.8659 H   0  0  0  0  0  0  0  0  0  0  0  0
  1  4  1  0  0  0  0
  1 17  1  0  0  0  0
  2  1  2  0  0  0  0
  3  1  2  0  0  0  0
  4  5  1  0  0  0  0
  5 24  1  0  0  0  0
  5  6  2  0  0  0  0
  6  9  1  0  0  0  0
  7 25  1  0  0  0  0
  7  6  1  0  0  0  0
  8  4  1  0  0  0  0
  8  7  2  0  0  0  0
  9 11  1  0  0  0  0
  9 10  2  0  0  0  0
 11 16  2  0  0  0  0
 12 13  2  0  0  0  0
 12 11  1  0  0  0  0
 13 14  1  0  0  0  0
 14 29  1  0  0  0  0
 14 15  2  0  0  0  0
 15 30  1  0  0  0  0
 16 15  1  0  0  0  0
 16 31  1  0  0  0  0
 17 22  1  0  0  0  0
 18 17  2  0  0  0  0
 18 19  1  0  0  0  0
 19 20  2  0  0  0  0
 20 21  1  0  0  0  0
 20 23  1  0  0  0  0
 21 34  1  0  0  0  0
 22 35  1  0  0  0  0
 22 21  2  0  0  0  0
 23 36  1  0  0  0  0
 23 38  1  0  0  0  0
 26  8  1  0  0  0  0
 27 12  1  0  0  0  0
 28 13  1  0  0  0  0
 32 18  1  0  0  0  0
 33 19  1  0  0  0  0
 37 23  1  0  0  0  0
M  END
$$$$
