38
rmsd103.gzmat
S          0.00000        0.00000        0.00000
O          1.43510        0.00000        0.00000
O         -0.79300        0.00000       -1.19680
N         -0.43910        1.49660        0.84050
C          0.36540        2.21880        1.71320
C         -0.37470        3.29170        2.20910
C         -1.67730        3.22880        1.61340
C         -1.69540        2.12990        0.77610
C          0.11910        4.25320        3.18000
O          1.16950        4.08430        3.76310
C         -0.71160        5.45390        3.46700
C         -1.19770        6.25010        2.43090
C         -1.96260        7.37610        2.72850
C         -2.24030        7.70000        4.05620
C         -1.74690        6.90500        5.08960
C         -0.97440        5.78290        4.79660
C         -0.60470       -1.20110        1.10640
C         -1.88940       -1.71960        0.93190
C         -2.40050       -2.63270        1.84680
C         -1.62970       -3.03790        2.94300
C         -0.33420       -2.53650        3.09980
C          0.17810       -1.62420        2.18160
C         -2.20060       -3.99600        3.92780
H          1.39070        1.95120        1.92250
H         -2.47780        3.91260        1.80360
H         -2.47670        1.76260        0.13810
H         -0.97540        5.99440        1.39480
H         -2.34110        8.00300        1.92390
H         -2.83980        8.57850        4.28690
H         -1.95870        7.16320        6.12480
H         -0.56730        5.16550        5.59790
H         -2.50850       -1.41930        0.07730
H         -3.40430       -3.03130        1.71360
H          0.27620       -2.85560        3.94300
H          1.20080       -1.25090        2.31930
H         -1.50440       -4.24810        4.74010
H         -2.49000       -4.94410        3.44790
H         -3.10860       -3.58940        4.40190
