
     RDKit          3D

 38 40  0  0  0  0  0  0  0  0999 V2000
    0.1125    0.0018   -0.0312 S   0  0  0  0  0  0  0  0  0  0  0  0
    1.5663   -0.0069    0.0594 O   0  0  0  0  0  0  0  0  0  0  0  0
   -0.6173   -0.0838   -1.2900 O   0  0  0  0  0  0  0  0  0  0  0  0
   -0.3771    1.5053    0.6703 N   0  0  0  0  0  0  0  0  0  0  0  0
    0.3135    2.1707    1.6538 C   0  0  0  0  0  0  0  0  0  0  0  0
   -0.4541    3.2555    2.0450 C   0  0  0  0  0  0  0  0  0  0  0  0
   -1.6693    3.2161    1.2684 C   0  0  0  0  0  0  0  0  0  0  0  0
   -1.5998    2.1266    0.4371 C   0  0  0  0  0  0  0  0  0  0  0  0
   -0.0239    4.1738    3.1256 C   0  0  0  0  0  0  0  0  0  0  0  0
    0.8470    3.8350    3.9132 O   0  0  0  0  0  0  0  0  0  0  0  0
   -0.6756    5.5192    3.2577 C   0  0  0  0  0  0  0  0  0  0  0  0
   -1.1908    6.2294    2.1617 C   0  0  0  0  0  0  0  0  0  0  0  0
   -1.7369    7.5027    2.3410 C   0  0  0  0  0  0  0  0  0  0  0  0
   -1.7834    8.0721    3.6161 C   0  0  0  0  0  0  0  0  0  0  0  0
   -1.2626    7.3741    4.7121 C   0  0  0  0  0  0  0  0  0  0  0  0
   -0.7010    6.1119    4.5312 C   0  0  0  0  0  0  0  0  0  0  0  0
   -0.5489   -1.1924    1.1083 C   0  0  0  0  0  0  0  0  0  0  0  0
   -1.8259   -1.7109    0.8869 C   0  0  0  0  0  0  0  0  0  0  0  0
   -2.3452   -2.6258    1.8017 C   0  0  0  0  0  0  0  0  0  0  0  0
   -1.6064   -3.0297    2.9257 C   0  0  0  0  0  0  0  0  0  0  0  0
   -0.3206   -2.4933    3.1125 C   0  0  0  0  0  0  0  0  0  0  0  0
    0.2182   -1.5792    2.2103 C   0  0  0  0  0  0  0  0  0  0  0  0
   -2.1624   -4.0393    3.8946 C   0  0  0  0  0  0  0  0  0  0  0  0
    1.2954    1.8490    1.9873 H   0  0  0  0  0  0  0  0  0  0  0  0
   -2.5061    3.9063    1.3345 H   0  0  0  0  0  0  0  0  0  0  0  0
   -2.2819    1.7357   -0.3122 H   0  0  0  0  0  0  0  0  0  0  0  0
   -1.1361    5.8007    1.1604 H   0  0  0  0  0  0  0  0  0  0  0  0
   -2.1228    8.0543    1.4804 H   0  0  0  0  0  0  0  0  0  0  0  0
   -2.2184    9.0647    3.7560 H   0  0  0  0  0  0  0  0  0  0  0  0
   -1.2904    7.8216    5.7085 H   0  0  0  0  0  0  0  0  0  0  0  0
   -0.2683    5.5589    5.3667 H   0  0  0  0  0  0  0  0  0  0  0  0
   -2.3927   -1.4054    0.0065 H   0  0  0  0  0  0  0  0  0  0  0  0
   -3.3443   -3.0374    1.6388 H   0  0  0  0  0  0  0  0  0  0  0  0
    0.2694   -2.8000    3.9797 H   0  0  0  0  0  0  0  0  0  0  0  0
    1.2211   -1.1729    2.3478 H   0  0  0  0  0  0  0  0  0  0  0  0
   -1.8564   -3.8154    4.9276 H   0  0  0  0  0  0  0  0  0  0  0  0
   -1.7906   -5.0508    3.6563 H   0  0  0  0  0  0  0  0  0  0  0  0
   -3.2607   -4.0740    3.8572 H   0  0  0  0  0  0  0  0  0  0  0  0
  1  2  2  0
  1  3  2  0
  1  4  1  0
  1 17  1  0
  4  5  1  0
  4  8  1  0
  5  6  2  0
  5 24  1  0
  6  7  1  0
  6  9  1  0
  7  8  2  0
  7 25  1  0
  8 26  1  0
  9 10  2  0
  9 11  1  0
 11 12  2  0
 11 16  1  0
 12 13  1  0
 12 27  1  0
 13 14  2  0
 13 28  1  0
 14 15  1  0
 14 29  1  0
 15 16  2  0
 15 30  1  0
 16 31  1  0
 17 18  2  0
 17 22  1  0
 18 19  1  0
 18 32  1  0
 19 20  2  0
 19 33  1  0
 20 21  1  0
 20 23  1  0
 21 22  2  0
 21 34  1  0
 22 35  1  0
 23 36  1  0
 23 37  1  0
 23 38  1  0
M  END

