38
rmsd9.gzmat
S          0.00000        0.00000        0.00000
O          1.43540        0.00000        0.00000
O         -0.79320        0.00000       -1.19700
N         -0.44610        1.49910        0.83060
C          0.31390        2.17420        1.77840
C         -0.40670        3.28710        2.20950
C         -1.65030        3.29860        1.49550
C         -1.65320        2.20320        0.65330
C          0.04910        4.22100        3.22620
O          0.99130        3.96510        3.94610
C         -0.68480        5.50550        3.38000
C         -0.99430        6.28730        2.26750
C         -1.67950        7.48810        2.43810
C         -2.05090        7.90340        3.71640
C         -1.72880        7.12570        4.82760
C         -1.03840        5.92680        4.66180
C         -0.59300       -1.20810        1.10500
C          0.24560       -1.72540        2.09260
C         -0.24050       -2.66430        2.99780
C         -1.56830       -3.09350        2.92020
C         -2.40110       -2.58530        1.91610
C         -1.91390       -1.65030        1.01000
C         -2.10330       -4.08770        3.88920
H          1.29900        1.85000        2.07840
H         -2.42550        4.02630        1.61590
H         -2.39200        1.87920       -0.05640
H         -0.69840        5.95990        1.27070
H         -1.92370        8.10070        1.57290
H         -2.59030        8.83920        3.84710
H         -2.01110        7.45490        5.82490
H         -0.76500        5.32050        5.52670
H          1.29320       -1.40710        2.16900
H          0.41670       -3.06340        3.76790
H         -3.43300       -2.92320        1.84650
H         -2.58000       -1.27510        0.22370
H         -2.41520       -5.01490        3.38290
H         -2.98840       -3.70040        4.41870
H         -1.37410       -4.37660        4.65920
