
     RDKit          3D

 38 40  0  0  0  0  0  0  0  0999 V2000
    0.0966    0.0271    0.0203 S   0  0  0  0  0  0  0  0  0  0  0  0
    1.5502    0.0362    0.1152 O   0  0  0  0  0  0  0  0  0  0  0  0
   -0.6283   -0.0451   -1.2421 O   0  0  0  0  0  0  0  0  0  0  0  0
   -0.4158    1.5110    0.7470 N   0  0  0  0  0  0  0  0  0  0  0  0
    0.2582    2.1638    1.7502 C   0  0  0  0  0  0  0  0  0  0  0  0
   -0.5244    3.2326    2.1551 C   0  0  0  0  0  0  0  0  0  0  0  0
   -1.7316    3.1963    1.3658 C   0  0  0  0  0  0  0  0  0  0  0  0
   -1.6426    2.1242    0.5139 C   0  0  0  0  0  0  0  0  0  0  0  0
   -0.1144    4.1339    3.2577 C   0  0  0  0  0  0  0  0  0  0  0  0
    0.7521    3.7885    4.0473 O   0  0  0  0  0  0  0  0  0  0  0  0
   -0.7811    5.4699    3.4094 C   0  0  0  0  0  0  0  0  0  0  0  0
   -1.2926    6.1961    2.3222 C   0  0  0  0  0  0  0  0  0  0  0  0
   -1.8533    7.4602    2.5206 C   0  0  0  0  0  0  0  0  0  0  0  0
   -1.9181    8.0042    3.8060 C   0  0  0  0  0  0  0  0  0  0  0  0
   -1.4011    7.2902    4.8934 C   0  0  0  0  0  0  0  0  0  0  0  0
   -0.8250    6.0374    4.6937 C   0  0  0  0  0  0  0  0  0  0  0  0
   -0.5521   -1.1960    1.1361 C   0  0  0  0  0  0  0  0  0  0  0  0
    0.2247   -1.6083    2.2195 C   0  0  0  0  0  0  0  0  0  0  0  0
   -0.3043   -2.5484    3.1039 C   0  0  0  0  0  0  0  0  0  0  0  0
   -1.5890   -3.0812    2.9158 C   0  0  0  0  0  0  0  0  0  0  0  0
   -2.3389   -2.6520    1.8061 C   0  0  0  0  0  0  0  0  0  0  0  0
   -1.8309   -1.7139    0.9116 C   0  0  0  0  0  0  0  0  0  0  0  0
   -2.1587   -4.0985    3.8686 C   0  0  0  0  0  0  0  0  0  0  0  0
    1.2399    1.8455    2.0874 H   0  0  0  0  0  0  0  0  0  0  0  0
   -2.5760    3.8766    1.4371 H   0  0  0  0  0  0  0  0  0  0  0  0
   -2.3130    1.7414   -0.2500 H   0  0  0  0  0  0  0  0  0  0  0  0
   -1.2238    5.7875    1.3133 H   0  0  0  0  0  0  0  0  0  0  0  0
   -2.2363    8.0246    1.6670 H   0  0  0  0  0  0  0  0  0  0  0  0
   -2.3645    8.9896    3.9607 H   0  0  0  0  0  0  0  0  0  0  0  0
   -1.4432    7.7179    5.8979 H   0  0  0  0  0  0  0  0  0  0  0  0
   -0.3949    5.4726    5.5226 H   0  0  0  0  0  0  0  0  0  0  0  0
    1.2285   -1.2045    2.3578 H   0  0  0  0  0  0  0  0  0  0  0  0
    0.2952   -2.8777    3.9558 H   0  0  0  0  0  0  0  0  0  0  0  0
   -3.3370   -3.0652    1.6396 H   0  0  0  0  0  0  0  0  0  0  0  0
   -2.4044   -1.3900    0.0422 H   0  0  0  0  0  0  0  0  0  0  0  0
   -2.3524   -5.0540    3.3538 H   0  0  0  0  0  0  0  0  0  0  0  0
   -3.1202   -3.7554    4.2837 H   0  0  0  0  0  0  0  0  0  0  0  0
   -1.4761   -4.2967    4.7067 H   0  0  0  0  0  0  0  0  0  0  0  0
  1  2  2  0
  1  3  2  0
  1  4  1  0
  1 17  1  0
  4  5  1  0
  4  8  1  0
  5  6  2  0
  5 24  1  0
  6  7  1  0
  6  9  1  0
  7  8  2  0
  7 25  1  0
  8 26  1  0
  9 10  2  0
  9 11  1  0
 11 12  2  0
 11 16  1  0
 12 13  1  0
 12 27  1  0
 13 14  2  0
 13 28  1  0
 14 15  1  0
 14 29  1  0
 15 16  2  0
 15 30  1  0
 16 31  1  0
 17 18  2  0
 17 22  1  0
 18 19  1  0
 18 32  1  0
 19 20  2  0
 19 33  1  0
 20 21  1  0
 20 23  1  0
 21 22  2  0
 21 34  1  0
 22 35  1  0
 23 36  1  0
 23 37  1  0
 23 38  1  0
M  END

