rmsd178.gzmat
 OpenBabel08211713413D

 38 40  0  0  0  0  0  0  0  0999 V2000
    0.0000    0.0000    0.0000 S   0  0  0  0  0  0  0  0  0  0  0  0
    1.4356    0.0000    0.0000 O   0  0  0  0  0  0  0  0  0  0  0  0
   -0.7934    0.0000   -1.1968 O   0  0  0  0  0  0  0  0  0  0  0  0
   -0.4428    1.5015    0.8279 N   0  0  0  0  0  0  0  0  0  0  0  0
    0.3353    2.1956    1.7473 C   0  0  0  0  0  0  0  0  0  0  0  0
   -0.3729    3.3223    2.1616 C   0  0  0  0  0  0  0  0  0  0  0  0
   -1.6274    3.3232    1.4671 C   0  0  0  0  0  0  0  0  0  0  0  0
   -1.6485    2.2075    0.6522 C   0  0  0  0  0  0  0  0  0  0  0  0
    0.1017    4.2840    3.1433 C   0  0  0  0  0  0  0  0  0  0  0  0
    1.0345    4.0346    3.8775 O   0  0  0  0  0  0  0  0  0  0  0  0
   -0.5954    5.5950    3.2358 C   0  0  0  0  0  0  0  0  0  0  0  0
   -0.8765    6.3321    2.0856 C   0  0  0  0  0  0  0  0  0  0  0  0
   -1.5138    7.5657    2.1965 C   0  0  0  0  0  0  0  0  0  0  0  0
   -1.8701    8.0560    3.4526 C   0  0  0  0  0  0  0  0  0  0  0  0
   -1.5826    7.3197    4.6005 C   0  0  0  0  0  0  0  0  0  0  0  0
   -0.9365    6.0896    4.4946 C   0  0  0  0  0  0  0  0  0  0  0  0
   -0.5910   -1.2127    1.1012 C   0  0  0  0  0  0  0  0  0  0  0  0
   -1.9058   -1.6703    0.9942 C   0  0  0  0  0  0  0  0  0  0  0  0
   -2.3866   -2.6205    1.8879 C   0  0  0  0  0  0  0  0  0  0  0  0
   -1.5550   -3.1250    2.8941 C   0  0  0  0  0  0  0  0  0  0  0  0
   -0.2345   -2.6757    2.9879 C   0  0  0  0  0  0  0  0  0  0  0  0
    0.2465   -1.7249    2.0925 C   0  0  0  0  0  0  0  0  0  0  0  0
   -2.0784   -4.1427    3.8450 C   0  0  0  0  0  0  0  0  0  0  0  0
    1.3228    1.8722    2.0401 H   0  0  0  0  0  0  0  0  0  0  0  0
   -2.3960    4.0586    1.5820 H   0  0  0  0  0  0  0  0  0  0  0  0
   -2.3994    1.8711   -0.0381 H   0  0  0  0  0  0  0  0  0  0  0  0
   -0.5932    5.9453    1.1065 H   0  0  0  0  0  0  0  0  0  0  0  0
   -1.7313    8.1461    1.3028 H   0  0  0  0  0  0  0  0  0  0  0  0
   -2.3714    9.0181    3.5366 H   0  0  0  0  0  0  0  0  0  0  0  0
   -1.8547    7.7076    5.5799 H   0  0  0  0  0  0  0  0  0  0  0  0
   -0.6885    5.5152    5.3879 H   0  0  0  0  0  0  0  0  0  0  0  0
   -2.5720   -1.2959    0.2079 H   0  0  0  0  0  0  0  0  0  0  0  0
   -3.4125   -2.9737    1.8057 H   0  0  0  0  0  0  0  0  0  0  0  0
    0.4204   -3.0698    3.7625 H   0  0  0  0  0  0  0  0  0  0  0  0
    1.2896   -1.3943    2.1783 H   0  0  0  0  0  0  0  0  0  0  0  0
   -1.4297   -4.2877    4.7203 H   0  0  0  0  0  0  0  0  0  0  0  0
   -2.1790   -5.1255    3.3566 H   0  0  0  0  0  0  0  0  0  0  0  0
   -3.0741   -3.8741    4.2298 H   0  0  0  0  0  0  0  0  0  0  0  0
  1  4  1  0  0  0  0
  1 17  1  0  0  0  0
  2  1  2  0  0  0  0
  3  1  2  0  0  0  0
  4  5  1  0  0  0  0
  5 24  1  0  0  0  0
  5  6  2  0  0  0  0
  6  9  1  0  0  0  0
  7 25  1  0  0  0  0
  7  6  1  0  0  0  0
  8  4  1  0  0  0  0
  8  7  2  0  0  0  0
  9 11  1  0  0  0  0
  9 10  2  0  0  0  0
 11 16  2  0  0  0  0
 12 13  2  0  0  0  0
 12 11  1  0  0  0  0
 13 14  1  0  0  0  0
 14 29  1  0  0  0  0
 14 15  2  0  0  0  0
 15 30  1  0  0  0  0
 16 15  1  0  0  0  0
 16 31  1  0  0  0  0
 17 22  1  0  0  0  0
 18 17  2  0  0  0  0
 18 19  1  0  0  0  0
 19 20  2  0  0  0  0
 20 21  1  0  0  0  0
 20 23  1  0  0  0  0
 21 34  1  0  0  0  0
 22 35  1  0  0  0  0
 22 21  2  0  0  0  0
 23 38  1  0  0  0  0
 23 36  1  0  0  0  0
 26  8  1  0  0  0  0
 27 12  1  0  0  0  0
 28 13  1  0  0  0  0
 32 18  1  0  0  0  0
 33 19  1  0  0  0  0
 37 23  1  0  0  0  0
M  END
$$$$
