38
rmsd241.gzmat
S          0.00000        0.00000        0.00000
O          1.43500        0.00000        0.00000
O         -0.79000        0.00000       -1.19990
N         -0.46230        1.50140        0.81830
C          0.17350        2.08180        1.90970
C         -0.49740        3.25910        2.23630
C         -1.57620        3.41300        1.30410
C         -1.53540        2.33300        0.44340
C         -0.15300        4.12260        3.35410
O          0.62100        3.76500        4.21700
C         -0.79700        5.46180        3.43000
C         -0.80520        6.31260        2.32530
C         -1.41330        7.56220        2.42260
C         -2.01150        7.95560        3.61950
C         -1.99010        7.10780        4.72550
C         -1.37590        5.86020        4.63450
C         -0.58340       -1.21530        1.10160
C         -1.90510       -1.65540        1.02070
C         -2.37240       -2.62320        1.90460
C         -1.51930       -3.16100        2.87310
C         -0.19270       -2.72100        2.94650
C          0.27420       -1.75560        2.06150
C         -2.01050       -4.19060        3.82820
H          1.04480        1.65300        2.37790
H         -2.27830        4.22020        1.29980
H         -2.16280        2.09320       -0.39630
H         -0.33520        6.00140        1.39220
H         -1.42130        8.22930        1.56350
H         -2.49340        8.92850        3.69110
H         -2.44800        7.42060        5.66130
H         -1.33890        5.19590        5.49850
H         -2.58850       -1.25490        0.26230
H         -3.40460       -2.96220        1.84110
H          0.47450       -3.13700        3.69920
H          1.32220       -1.43550        2.12720
H         -1.31800       -5.04270        3.90700
H         -2.99070       -4.60330        3.55110
H         -2.11560       -3.77040        4.84210
