38
rmsd198.gzmat
S          0.00000        0.00000        0.00000
O          1.43520        0.00000        0.00000
O         -0.79260        0.00000       -1.19750
N         -0.45480        1.50080        0.82300
C          0.26590        2.15540        1.81480
C         -0.44540        3.29100        2.19890
C         -1.64020        3.34030        1.40800
C         -1.62560        2.24210        0.57000
C         -0.03410        4.21390        3.24390
O          0.84310        3.93340        4.03280
C         -0.73650        5.52250        3.33610
C         -0.87610        6.33490        2.21140
C         -1.52070        7.56470        2.32630
C         -2.02620        7.97470        3.55960
C         -1.88140        7.16130        4.68250
C         -1.22820        5.93520        4.57430
C         -0.59040       -1.21040        1.10370
C         -1.91950       -1.62970        1.03230
C         -2.40040       -2.57830        1.92950
C         -1.55160       -3.12320        2.89780
C         -0.21590       -2.70970        2.95730
C          0.26280       -1.75870        2.06270
C         -2.05870       -4.13120        3.86730
H          1.21870        1.80180        2.17650
H         -2.39500        4.09470        1.47730
H         -2.32890        1.93820       -0.18330
H         -0.47910        6.00950        1.24990
H         -1.62940        8.20480        1.45360
H         -2.53160        8.93440        3.64630
H         -2.27130        7.48600        5.64450
H         -1.09110        5.30020        5.45020
H         -2.59880       -1.22810        0.27110
H         -3.43980       -2.89580        1.87710
H          0.44910       -3.13350        3.70710
H          1.31630       -1.45590        2.12120
H         -1.36230       -4.97480        3.98820
H         -3.02770       -4.55920        3.57540
H         -2.19520       -3.68400        4.86590
