40
rmsd95.gzmat
N          0.00000        0.00000        0.00000
C          1.45980        0.00000        0.00000
O          2.00100        0.00000        1.07990
N          2.08250        0.00580       -1.22270
C          1.37500       -0.01710       -2.36170
N          2.18800       -0.01490       -3.49740
C          1.73090       -0.01240       -4.82740
O          0.55700       -0.01650       -5.10230
C          2.82180       -0.02780       -5.83640
C          2.74500       -0.96730       -6.86430
C          3.74620       -1.00740       -7.83250
C          4.80880       -0.10690       -7.77380
C          4.87120        0.84070       -6.75200
C          3.87520        0.88440       -5.77960
C         -0.04860       -0.04950       -2.37880
C         -0.70160       -0.04830       -1.16670
C         -0.67210       -0.02250        1.32740
H         -0.44840       -1.00680        1.81210
C         -0.31230        1.20620        2.18130
C         -1.61810        1.99660        2.33150
C         -2.66350        1.20650        1.53750
H         -3.51940        0.85970        2.15860
O         -2.06080       -0.02000        1.11460
C         -3.15610        1.94440        0.28780
O         -4.25480        1.26400       -0.27860
H          3.19970       -0.03170       -3.31660
H          1.90270       -1.66080       -6.91040
H          3.69660       -1.74130       -8.63560
H          5.59270       -0.14160       -8.52960
H          5.69900        1.54740       -6.71470
H          3.91940        1.63470       -4.98920
H         -0.60280       -0.08260       -3.31580
H         -1.80060       -0.09090       -1.11030
H          0.48850        1.81730        1.72330
H          0.10040        0.89130        3.15720
H         -1.90850        2.09050        3.39290
H         -1.50500        3.03020        1.96130
H         -3.57260        2.93990        0.53230
H         -2.36570        2.05500       -0.47570
H         -4.04190        0.31260       -0.39170
