
     RDKit          3D

 40 42  0  0  0  0  0  0  0  0999 V2000
   -0.1486   -0.2547   -0.1104 N   0  0  0  0  0  0  0  0  0  0  0  0
    1.2821   -0.2965   -0.0796 C   0  0  0  0  0  0  0  0  0  0  0  0
    1.8360   -0.4188    0.9991 O   0  0  0  0  0  0  0  0  0  0  0  0
    1.9207   -0.1879   -1.2832 N   0  0  0  0  0  0  0  0  0  0  0  0
    1.2443   -0.0577   -2.4033 C   0  0  0  0  0  0  0  0  0  0  0  0
    2.0480    0.0363   -3.5332 N   0  0  0  0  0  0  0  0  0  0  0  0
    1.6880    0.2098   -4.8584 C   0  0  0  0  0  0  0  0  0  0  0  0
    0.5365    0.3649   -5.2235 O   0  0  0  0  0  0  0  0  0  0  0  0
    2.8324    0.2121   -5.8312 C   0  0  0  0  0  0  0  0  0  0  0  0
    2.5794    0.7397   -7.1070 C   0  0  0  0  0  0  0  0  0  0  0  0
    3.5872    0.7735   -8.0689 C   0  0  0  0  0  0  0  0  0  0  0  0
    4.8567    0.2669   -7.7716 C   0  0  0  0  0  0  0  0  0  0  0  0
    5.1123   -0.2770   -6.5100 C   0  0  0  0  0  0  0  0  0  0  0  0
    4.1058   -0.3045   -5.5430 C   0  0  0  0  0  0  0  0  0  0  0  0
   -0.1809   -0.0268   -2.4716 C   0  0  0  0  0  0  0  0  0  0  0  0
   -0.8291   -0.1399   -1.2722 C   0  0  0  0  0  0  0  0  0  0  0  0
   -0.8211   -0.3852    1.2080 C   0  0  1  0  0  0  0  0  0  0  0  0
   -0.3652   -1.2591    1.6928 H   0  0  0  0  0  0  0  0  0  0  0  0
   -0.6805    0.8888    2.0534 C   0  0  0  0  0  0  0  0  0  0  0  0
   -1.9395    1.6714    1.6724 C   0  0  0  0  0  0  0  0  0  0  0  0
   -2.9621    0.5529    1.5019 C   0  0  2  0  0  0  0  0  0  0  0  0
   -3.4014    0.2662    2.4750 H   0  0  0  0  0  0  0  0  0  0  0  0
   -2.1977   -0.5826    1.0252 O   0  0  0  0  0  0  0  0  0  0  0  0
   -4.0882    0.7958    0.5128 C   0  0  0  0  0  0  0  0  0  0  0  0
   -4.8717   -0.3543    0.3257 O   0  0  0  0  0  0  0  0  0  0  0  0
    3.0338    0.0060   -3.2941 H   0  0  0  0  0  0  0  0  0  0  0  0
    1.5783    1.1182   -7.3188 H   0  0  0  0  0  0  0  0  0  0  0  0
    3.3833    1.1941   -9.0562 H   0  0  0  0  0  0  0  0  0  0  0  0
    5.6466    0.2904   -8.5261 H   0  0  0  0  0  0  0  0  0  0  0  0
    6.0973   -0.6881   -6.2783 H   0  0  0  0  0  0  0  0  0  0  0  0
    4.3226   -0.7616   -4.5747 H   0  0  0  0  0  0  0  0  0  0  0  0
   -0.7043    0.0745   -3.4159 H   0  0  0  0  0  0  0  0  0  0  0  0
   -1.9145   -0.1590   -1.1896 H   0  0  0  0  0  0  0  0  0  0  0  0
    0.2676    1.4052    1.8673 H   0  0  0  0  0  0  0  0  0  0  0  0
   -0.7050    0.6071    3.1173 H   0  0  0  0  0  0  0  0  0  0  0  0
   -2.2412    2.4077    2.4302 H   0  0  0  0  0  0  0  0  0  0  0  0
   -1.7944    2.2048    0.7177 H   0  0  0  0  0  0  0  0  0  0  0  0
   -4.7458    1.5929    0.8965 H   0  0  0  0  0  0  0  0  0  0  0  0
   -3.6525    1.1646   -0.4406 H   0  0  0  0  0  0  0  0  0  0  0  0
   -4.2573   -1.0882    0.1789 H   0  0  0  0  0  0  0  0  0  0  0  0
  1  2  1  0
  1 16  1  0
  1 17  1  0
  2  3  2  0
  2  4  1  0
  4  5  2  0
  5  6  1  0
  5 15  1  0
  6  7  1  0
  6 26  1  0
  7  8  2  0
  7  9  1  0
  9 10  2  0
  9 14  1  0
 10 11  1  0
 10 27  1  0
 11 12  2  0
 11 28  1  0
 12 13  1  0
 12 29  1  0
 13 14  2  0
 13 30  1  0
 14 31  1  0
 15 16  2  0
 15 32  1  0
 16 33  1  0
 17 18  1  1
 17 19  1  0
 17 23  1  0
 19 20  1  0
 19 34  1  0
 19 35  1  0
 20 21  1  0
 20 36  1  0
 20 37  1  0
 21 22  1  1
 21 23  1  0
 21 24  1  0
 24 25  1  0
 24 38  1  0
 24 39  1  0
 25 40  1  0
M  END

