40
rmsd124.gzmat
N          0.00000        0.00000        0.00000
C          1.46080        0.00000        0.00000
O          2.00120        0.00000        1.07960
N          2.08200        0.01430       -1.22480
C          1.37350        0.02840       -2.36200
N          2.17960        0.02770       -3.50410
C          1.71620        0.19490       -4.82140
O          0.55040        0.36210       -5.07660
C          2.79500        0.15380       -5.84320
C          2.98630        1.27220       -6.65340
C          3.96940        1.24120       -7.64040
C          4.74480        0.09570       -7.81680
C          4.54140       -1.02240       -7.00810
C          3.56400       -0.99660       -6.01570
C         -0.05130        0.02030       -2.37860
C         -0.70260       -0.00240       -1.16700
C         -0.66950       -0.03050        1.32210
H         -0.12200       -0.75480        1.97960
C         -0.82690        1.38210        1.91710
C         -2.31180        1.71840        1.73480
C         -2.98010        0.36020        1.49510
H         -3.42820       -0.07000        2.41910
O         -1.95490       -0.57550        1.13720
C         -3.99380        0.36250        0.34640
O         -4.61030       -0.90050        0.23980
H          3.19130       -0.03400       -3.33550
H          2.36700        2.16030       -6.51920
H          4.12870        2.11050       -8.27650
H          5.51100        0.07360       -8.59110
H          5.14550       -1.91680       -7.15310
H          3.39750       -1.87270       -5.38800
H         -0.60660        0.02430       -3.31470
H         -1.80180       -0.03070       -1.10800
H         -0.16440        2.11740        1.42780
H         -0.53290        1.38560        2.98230
H         -2.72810        2.22970        2.61840
H         -2.46130        2.40970        0.88690
H         -4.83890        1.04820        0.54760
H         -3.53720        0.62120       -0.62590
H         -3.92510       -1.60560        0.20320
