rmsd43.gzmat
 OpenBabel08211713413D

 40 42  0  0  1  0  0  0  0  0999 V2000
    0.0000    0.0000    0.0000 N   0  0  0  0  0  0  0  0  0  0  0  0
    1.4616    0.0000    0.0000 C   0  0  0  0  0  0  0  0  0  0  0  0
    1.9993    0.0000    1.0808 O   0  0  0  0  0  0  0  0  0  0  0  0
    2.0832    0.0137   -1.2235 N   0  0  0  0  0  0  0  0  0  0  0  0
    1.3748    0.0234   -2.3611 C   0  0  0  0  0  0  0  0  0  0  0  0
    2.1824    0.0130   -3.5015 N   0  0  0  0  0  0  0  0  0  0  0  0
    1.7268    0.1866   -4.8206 C   0  0  0  0  0  0  0  0  0  0  0  0
    0.5667    0.3768   -5.0818 O   0  0  0  0  0  0  0  0  0  0  0  0
    2.8150    0.1033   -5.8308 C   0  0  0  0  0  0  0  0  0  0  0  0
    3.4080   -1.1276   -6.1079 C   0  0  0  0  0  0  0  0  0  0  0  0
    4.3972   -1.2039   -7.0856 C   0  0  0  0  0  0  0  0  0  0  0  0
    4.7903   -0.0547   -7.7711 C   0  0  0  0  0  0  0  0  0  0  0  0
    4.1919    1.1726   -7.4881 C   0  0  0  0  0  0  0  0  0  0  0  0
    3.1957    1.2549   -6.5168 C   0  0  0  0  0  0  0  0  0  0  0  0
   -0.0500    0.0129   -2.3776 C   0  0  0  0  0  0  0  0  0  0  0  0
   -0.7033   -0.0075   -1.1663 C   0  0  0  0  0  0  0  0  0  0  0  0
   -0.6546   -0.0341    1.3305 C   0  0  1  0  0  0  0  0  0  0  0  0
   -0.1826   -0.8553    1.9309 H   0  0  0  0  0  0  0  0  0  0  0  0
   -0.6293    1.3456    2.0139 C   0  0  0  0  0  0  0  0  0  0  0  0
   -2.0969    1.6852    2.2976 C   0  0  0  0  0  0  0  0  0  0  0  0
   -2.9073    0.5662    1.6342 C   0  0  2  0  0  0  0  0  0  0  0  0
   -3.5399   -0.0036    2.3515 H   0  0  0  0  0  0  0  0  0  0  0  0
   -1.9949   -0.4222    1.1484 O   0  0  0  0  0  0  0  0  0  0  0  0
   -3.7372    1.0484    0.4386 C   0  0  0  0  0  0  0  0  0  0  0  0
   -4.4947   -0.0178   -0.0900 O   0  0  0  0  0  0  0  0  0  0  0  0
    3.1929   -0.0660   -3.3310 H   0  0  0  0  0  0  0  0  0  0  0  0
    3.0979   -2.0243   -5.5701 H   0  0  0  0  0  0  0  0  0  0  0  0
    4.8620   -2.1616   -7.3149 H   0  0  0  0  0  0  0  0  0  0  0  0
    5.5674   -0.1175   -8.5317 H   0  0  0  0  0  0  0  0  0  0  0  0
    4.5002    2.0661   -8.0287 H   0  0  0  0  0  0  0  0  0  0  0  0
    2.7156    2.2099   -6.3005 H   0  0  0  0  0  0  0  0  0  0  0  0
   -0.6033    0.0128   -3.3152 H   0  0  0  0  0  0  0  0  0  0  0  0
   -1.8025   -0.0348   -1.1089 H   0  0  0  0  0  0  0  0  0  0  0  0
   -0.1437    2.1092    1.3797 H   0  0  0  0  0  0  0  0  0  0  0  0
   -0.0215    1.3125    2.9363 H   0  0  0  0  0  0  0  0  0  0  0  0
   -2.2950    1.7303    3.3834 H   0  0  0  0  0  0  0  0  0  0  0  0
   -2.3625    2.6823    1.9065 H   0  0  0  0  0  0  0  0  0  0  0  0
   -4.5048    1.7859    0.7406 H   0  0  0  0  0  0  0  0  0  0  0  0
   -3.1125    1.4771   -0.3648 H   0  0  0  0  0  0  0  0  0  0  0  0
   -3.9247   -0.8102   -0.2038 H   0  0  0  0  0  0  0  0  0  0  0  0
  1  2  1  0  0  0  0
  1 17  1  0  0  0  0
  2  3  2  0  0  0  0
  4  2  2  0  0  0  0
  5  4  2  0  0  0  0
  6 26  1  0  0  0  0
  6  5  1  0  0  0  0
  7  6  1  0  0  0  0
  8  7  2  0  0  0  0
  9  7  1  0  0  0  0
 10  9  1  0  0  0  0
 10 27  1  0  0  0  0
 11 10  2  0  0  0  0
 12 13  2  0  0  0  0
 12 11  1  0  0  0  0
 13 14  1  0  0  0  0
 14 31  1  0  0  0  0
 14  9  2  0  0  0  0
 15  5  1  0  0  0  0
 15 16  2  0  0  0  0
 16 33  1  0  0  0  0
 16  1  1  0  0  0  0
 17 18  1  1  0  0  0
 17 19  1  0  0  0  0
 19 20  1  0  0  0  0
 19 35  1  0  0  0  0
 20 36  1  0  0  0  0
 21 20  1  0  0  0  0
 21 22  1  1  0  0  0
 23 17  1  0  0  0  0
 23 21  1  0  0  0  0
 24 38  1  0  0  0  0
 24 21  1  0  0  0  0
 25 24  1  0  0  0  0
 28 11  1  0  0  0  0
 29 12  1  0  0  0  0
 30 13  1  0  0  0  0
 32 15  1  0  0  0  0
 34 19  1  0  0  0  0
 37 20  1  0  0  0  0
 39 24  1  0  0  0  0
 40 25  1  0  0  0  0
M  END
$$$$
