rmsd102.gzmat
 OpenBabel08211713413D

 40 42  0  0  1  0  0  0  0  0999 V2000
    0.0000    0.0000    0.0000 N   0  0  0  0  0  0  0  0  0  0  0  0
    1.4590    0.0000    0.0000 C   0  0  0  0  0  0  0  0  0  0  0  0
    2.0017    0.0000    1.0787 O   0  0  0  0  0  0  0  0  0  0  0  0
    2.0810    0.0011   -1.2244 N   0  0  0  0  0  0  0  0  0  0  0  0
    1.3724   -0.0296   -2.3618 C   0  0  0  0  0  0  0  0  0  0  0  0
    2.1808   -0.0441   -3.5019 N   0  0  0  0  0  0  0  0  0  0  0  0
    1.7141   -0.0283   -4.8280 C   0  0  0  0  0  0  0  0  0  0  0  0
    0.5412    0.0295   -5.0974 O   0  0  0  0  0  0  0  0  0  0  0  0
    2.8025   -0.0922   -5.8392 C   0  0  0  0  0  0  0  0  0  0  0  0
    3.5622   -1.2533   -5.9741 C   0  0  0  0  0  0  0  0  0  0  0  0
    4.5561   -1.3093   -6.9485 C   0  0  0  0  0  0  0  0  0  0  0  0
    4.7854   -0.2102   -7.7759 C   0  0  0  0  0  0  0  0  0  0  0  0
    4.0143    0.9436   -7.6412 C   0  0  0  0  0  0  0  0  0  0  0  0
    3.0145    1.0048   -6.6724 C   0  0  0  0  0  0  0  0  0  0  0  0
   -0.0513   -0.0671   -2.3775 C   0  0  0  0  0  0  0  0  0  0  0  0
   -0.7029   -0.0599   -1.1655 C   0  0  0  0  0  0  0  0  0  0  0  0
   -0.6823    0.0092    1.3219 C   0  0  1  0  0  0  0  0  0  0  0  0
   -0.5188   -0.9832    1.8101 H   0  0  0  0  0  0  0  0  0  0  0  0
   -0.2716    1.2230    2.1767 C   0  0  0  0  0  0  0  0  0  0  0  0
   -1.5823    1.9688    2.4556 C   0  0  0  0  0  0  0  0  0  0  0  0
   -2.5937    1.3511    1.4841 C   0  0  2  0  0  0  0  0  0  0  0  0
   -3.5599    1.0919    1.9635 H   0  0  0  0  0  0  0  0  0  0  0  0
   -2.0692    0.0830    1.0867 O   0  0  0  0  0  0  0  0  0  0  0  0
   -2.8038    2.2000    0.2174 C   0  0  0  0  0  0  0  0  0  0  0  0
   -3.5280    3.3615    0.5537 O   0  0  0  0  0  0  0  0  0  0  0  0
    3.1941   -0.0442   -3.3286 H   0  0  0  0  0  0  0  0  0  0  0  0
    3.3778   -2.1135   -5.3299 H   0  0  0  0  0  0  0  0  0  0  0  0
    5.1534   -2.2122   -7.0636 H   0  0  0  0  0  0  0  0  0  0  0  0
    5.5701   -0.2544   -8.5303 H   0  0  0  0  0  0  0  0  0  0  0  0
    4.1909    1.7967   -8.2943 H   0  0  0  0  0  0  0  0  0  0  0  0
    2.4008    1.9006   -6.5706 H   0  0  0  0  0  0  0  0  0  0  0  0
   -0.6070   -0.1070   -3.3124 H   0  0  0  0  0  0  0  0  0  0  0  0
   -1.8020   -0.1071   -1.1066 H   0  0  0  0  0  0  0  0  0  0  0  0
    0.4640    1.8687    1.6609 H   0  0  0  0  0  0  0  0  0  0  0  0
    0.2387    0.9000    3.1013 H   0  0  0  0  0  0  0  0  0  0  0  0
   -1.9005    1.8412    3.5042 H   0  0  0  0  0  0  0  0  0  0  0  0
   -1.4818    3.0586    2.3001 H   0  0  0  0  0  0  0  0  0  0  0  0
   -1.8534    2.6008   -0.1843 H   0  0  0  0  0  0  0  0  0  0  0  0
   -3.3260    1.6351   -0.5736 H   0  0  0  0  0  0  0  0  0  0  0  0
   -4.4551    3.1430    0.7746 H   0  0  0  0  0  0  0  0  0  0  0  0
  1  2  1  0  0  0  0
  1 17  1  0  0  0  0
  2  3  2  0  0  0  0
  4  2  2  0  0  0  0
  5  4  2  0  0  0  0
  6 26  1  0  0  0  0
  6  5  1  0  0  0  0
  7  6  1  0  0  0  0
  8  7  2  0  0  0  0
  9  7  1  0  0  0  0
 10  9  1  0  0  0  0
 10 27  1  0  0  0  0
 11 10  2  0  0  0  0
 12 13  2  0  0  0  0
 12 11  1  0  0  0  0
 13 14  1  0  0  0  0
 14 31  1  0  0  0  0
 14  9  2  0  0  0  0
 15  5  1  0  0  0  0
 15 16  2  0  0  0  0
 16 33  1  0  0  0  0
 16  1  1  0  0  0  0
 17 18  1  1  0  0  0
 17 19  1  0  0  0  0
 19 20  1  0  0  0  0
 19 35  1  0  0  0  0
 20 36  1  0  0  0  0
 21 22  1  1  0  0  0
 21 20  1  0  0  0  0
 23 17  1  0  0  0  0
 23 21  1  0  0  0  0
 24 25  1  0  0  0  0
 24 21  1  0  0  0  0
 25 40  1  0  0  0  0
 28 11  1  0  0  0  0
 29 12  1  0  0  0  0
 30 13  1  0  0  0  0
 32 15  1  0  0  0  0
 34 19  1  0  0  0  0
 37 20  1  0  0  0  0
 38 24  1  0  0  0  0
 39 24  1  0  0  0  0
M  END
$$$$
