rmsd106.gzmat
 OpenBabel08211713413D

 40 42  0  0  1  0  0  0  0  0999 V2000
    0.0000    0.0000    0.0000 N   0  0  0  0  0  0  0  0  0  0  0  0
    1.4589    0.0000    0.0000 C   0  0  0  0  0  0  0  0  0  0  0  0
    2.0057    0.0000    1.0759 O   0  0  0  0  0  0  0  0  0  0  0  0
    2.0789    0.0222   -1.2255 N   0  0  0  0  0  0  0  0  0  0  0  0
    1.3746   -0.0267   -2.3640 C   0  0  0  0  0  0  0  0  0  0  0  0
    2.1812    0.0353   -3.5023 N   0  0  0  0  0  0  0  0  0  0  0  0
    1.7101    0.0558   -4.8274 C   0  0  0  0  0  0  0  0  0  0  0  0
    0.5351   -0.0232   -5.0882 O   0  0  0  0  0  0  0  0  0  0  0  0
    2.7735    0.1691   -5.8586 C   0  0  0  0  0  0  0  0  0  0  0  0
    2.7006   -0.6844   -6.9604 C   0  0  0  0  0  0  0  0  0  0  0  0
    3.6541   -0.5839   -7.9712 C   0  0  0  0  0  0  0  0  0  0  0  0
    4.6683    0.3688   -7.8800 C   0  0  0  0  0  0  0  0  0  0  0  0
    4.7325    1.2233   -6.7793 C   0  0  0  0  0  0  0  0  0  0  0  0
    3.7826    1.1274   -5.7649 C   0  0  0  0  0  0  0  0  0  0  0  0
   -0.0478   -0.1287   -2.3780 C   0  0  0  0  0  0  0  0  0  0  0  0
   -0.6994   -0.1218   -1.1682 C   0  0  0  0  0  0  0  0  0  0  0  0
   -0.7100    0.0082    1.3110 C   0  0  1  0  0  0  0  0  0  0  0  0
   -0.6469   -1.0166    1.7528 H   0  0  0  0  0  0  0  0  0  0  0  0
   -0.2319    1.1381    2.2414 C   0  0  0  0  0  0  0  0  0  0  0  0
   -1.4727    2.0106    2.4801 C   0  0  0  0  0  0  0  0  0  0  0  0
   -2.4979    1.5208    1.4525 C   0  0  2  0  0  0  0  0  0  0  0  0
   -3.5020    1.3266    1.8868 H   0  0  0  0  0  0  0  0  0  0  0  0
   -2.0755    0.2164    1.0417 O   0  0  0  0  0  0  0  0  0  0  0  0
   -2.5975    2.4254    0.2159 C   0  0  0  0  0  0  0  0  0  0  0  0
   -1.3635    3.0286   -0.0999 O   0  0  0  0  0  0  0  0  0  0  0  0
    3.1929    0.0751   -3.3279 H   0  0  0  0  0  0  0  0  0  0  0  0
    1.8969   -1.4199   -7.0294 H   0  0  0  0  0  0  0  0  0  0  0  0
    3.6054   -1.2470   -8.8332 H   0  0  0  0  0  0  0  0  0  0  0  0
    5.4111    0.4474   -8.6731 H   0  0  0  0  0  0  0  0  0  0  0  0
    5.5239    1.9686   -6.7138 H   0  0  0  0  0  0  0  0  0  0  0  0
    3.8264    1.8089   -4.9142 H   0  0  0  0  0  0  0  0  0  0  0  0
   -0.6009   -0.2123   -3.3128 H   0  0  0  0  0  0  0  0  0  0  0  0
   -1.7969   -0.2065   -1.1072 H   0  0  0  0  0  0  0  0  0  0  0  0
    0.5966    1.7303    1.8067 H   0  0  0  0  0  0  0  0  0  0  0  0
    0.1812    0.7263    3.1787 H   0  0  0  0  0  0  0  0  0  0  0  0
   -1.8501    1.8997    3.5102 H   0  0  0  0  0  0  0  0  0  0  0  0
   -1.2424    3.0851    2.3479 H   0  0  0  0  0  0  0  0  0  0  0  0
   -2.9639    1.8658   -0.6644 H   0  0  0  0  0  0  0  0  0  0  0  0
   -3.2598    3.2927    0.3987 H   0  0  0  0  0  0  0  0  0  0  0  0
   -0.6755    2.3411   -0.2201 H   0  0  0  0  0  0  0  0  0  0  0  0
  1  2  1  0  0  0  0
  1 17  1  0  0  0  0
  2  3  2  0  0  0  0
  4  2  2  0  0  0  0
  5  4  2  0  0  0  0
  6 26  1  0  0  0  0
  6  5  1  0  0  0  0
  7  6  1  0  0  0  0
  8  7  2  0  0  0  0
  9 14  1  0  0  0  0
  9  7  1  0  0  0  0
 10  9  2  0  0  0  0
 11 12  2  0  0  0  0
 11 10  1  0  0  0  0
 12 13  1  0  0  0  0
 13 30  1  0  0  0  0
 13 14  2  0  0  0  0
 14 31  1  0  0  0  0
 15  5  1  0  0  0  0
 15 16  2  0  0  0  0
 16 33  1  0  0  0  0
 16  1  1  0  0  0  0
 17 18  1  1  0  0  0
 17 19  1  0  0  0  0
 19 20  1  0  0  0  0
 19 35  1  0  0  0  0
 20 36  1  0  0  0  0
 21 22  1  1  0  0  0
 21 20  1  0  0  0  0
 23 17  1  0  0  0  0
 23 21  1  0  0  0  0
 24 39  1  0  0  0  0
 24 21  1  0  0  0  0
 25 24  1  0  0  0  0
 27 10  1  0  0  0  0
 28 11  1  0  0  0  0
 29 12  1  0  0  0  0
 32 15  1  0  0  0  0
 34 19  1  0  0  0  0
 37 20  1  0  0  0  0
 38 24  1  0  0  0  0
 40 25  1  0  0  0  0
M  END
$$$$
