40
rmsd59.gzmat
N          0.00000        0.00000        0.00000
C          1.45930        0.00000        0.00000
O          2.00470        0.00000        1.07690
N          2.08050        0.00960       -1.22440
C          1.37740       -0.03870       -2.36380
N          2.18950       -0.02980       -3.49990
C          1.73290       -0.12500       -4.82720
O          0.56110       -0.20640       -5.09810
C          2.82300       -0.14210       -5.83730
C          2.85120       -1.19700       -6.74960
C          3.85180       -1.23880       -7.71810
C          4.80750       -0.22520       -7.77670
C          4.76330        0.83550       -6.87210
C          3.76910        0.88040       -5.89710
C         -0.04740       -0.09670       -2.37990
C         -0.69990       -0.09060       -1.17010
C         -0.69930       -0.04550        1.31600
H         -0.60280       -1.08050        1.72830
C         -0.23970        1.07080        2.27100
C         -1.49820        1.90440        2.54790
C         -2.53630        1.39790        1.54130
H         -3.51300        1.14390        2.00660
O         -2.07270        0.12960        1.06780
C         -2.72540        2.33310        0.33890
O         -1.52740        2.98250       -0.02140
H          3.20110        0.00820       -3.32150
H          2.09070       -1.97880       -6.70770
H          3.88320       -2.06020       -8.43200
H          5.59000       -0.26110       -8.53420
H          5.50610        1.62990       -6.92840
H          3.72980        1.71420       -5.19520
H         -0.60110       -0.14990       -3.31650
H         -1.79930       -0.15240       -1.11140
H          0.56950        1.69350        1.84260
H          0.19660        0.64530        3.19200
H         -1.84660        1.77420        3.58610
H         -1.30060        2.98640        2.42170
H         -3.11800        1.78680       -0.53870
H         -3.40340        3.17360        0.58040
H         -0.81660        2.32170       -0.15830
