40
rmsd102.gzmat
N          0.00000        0.00000        0.00000
C          1.45900        0.00000        0.00000
O          2.00170        0.00000        1.07870
N          2.08100        0.00110       -1.22440
C          1.37240       -0.02960       -2.36180
N          2.18080       -0.04410       -3.50190
C          1.71410       -0.02830       -4.82800
O          0.54120        0.02950       -5.09740
C          2.80250       -0.09220       -5.83920
C          3.56220       -1.25330       -5.97410
C          4.55610       -1.30930       -6.94850
C          4.78540       -0.21020       -7.77590
C          4.01430        0.94360       -7.64120
C          3.01450        1.00480       -6.67240
C         -0.05130       -0.06710       -2.37750
C         -0.70290       -0.05990       -1.16550
C         -0.68230        0.00920        1.32190
H         -0.51880       -0.98320        1.81010
C         -0.27160        1.22300        2.17670
C         -1.58230        1.96880        2.45560
C         -2.59370        1.35110        1.48410
H         -3.55990        1.09190        1.96350
O         -2.06920        0.08300        1.08670
C         -2.80380        2.20000        0.21740
O         -3.52800        3.36150        0.55370
H          3.19410       -0.04420       -3.32860
H          3.37780       -2.11350       -5.32990
H          5.15340       -2.21220       -7.06360
H          5.57010       -0.25440       -8.53030
H          4.19090        1.79670       -8.29430
H          2.40080        1.90060       -6.57060
H         -0.60700       -0.10700       -3.31240
H         -1.80200       -0.10710       -1.10660
H          0.46400        1.86870        1.66090
H          0.23870        0.90000        3.10130
H         -1.90050        1.84120        3.50420
H         -1.48180        3.05860        2.30010
H         -1.85340        2.60080       -0.18430
H         -3.32600        1.63510       -0.57360
H         -4.45510        3.14300        0.77460
