rmsd119.gzmat
 OpenBabel08211713413D

 40 42  0  0  1  0  0  0  0  0999 V2000
    0.0000    0.0000    0.0000 N   0  0  0  0  0  0  0  0  0  0  0  0
    1.4600    0.0000    0.0000 C   0  0  0  0  0  0  0  0  0  0  0  0
    1.9993    0.0000    1.0803 O   0  0  0  0  0  0  0  0  0  0  0  0
    2.0821    0.0028   -1.2241 N   0  0  0  0  0  0  0  0  0  0  0  0
    1.3728   -0.0024   -2.3618 C   0  0  0  0  0  0  0  0  0  0  0  0
    2.1804   -0.0293   -3.5027 N   0  0  0  0  0  0  0  0  0  0  0  0
    1.7165    0.0620   -4.8267 C   0  0  0  0  0  0  0  0  0  0  0  0
    0.5502    0.2094   -5.0915 O   0  0  0  0  0  0  0  0  0  0  0  0
    2.7953   -0.0408   -5.8445 C   0  0  0  0  0  0  0  0  0  0  0  0
    3.5427   -1.2119   -5.9615 C   0  0  0  0  0  0  0  0  0  0  0  0
    4.5180   -1.3038   -6.9517 C   0  0  0  0  0  0  0  0  0  0  0  0
    4.7412   -0.2301   -7.8133 C   0  0  0  0  0  0  0  0  0  0  0  0
    3.9878    0.9367   -7.6916 C   0  0  0  0  0  0  0  0  0  0  0  0
    3.0063    1.0333   -6.7073 C   0  0  0  0  0  0  0  0  0  0  0  0
   -0.0511   -0.0132   -2.3777 C   0  0  0  0  0  0  0  0  0  0  0  0
   -0.7035   -0.0234   -1.1655 C   0  0  0  0  0  0  0  0  0  0  0  0
   -0.6686   -0.0253    1.3274 C   0  0  1  0  0  0  0  0  0  0  0  0
   -0.4057   -0.9880    1.8333 H   0  0  0  0  0  0  0  0  0  0  0  0
   -0.3570    1.2378    2.1513 C   0  0  0  0  0  0  0  0  0  0  0  0
   -1.7282    1.8350    2.4878 C   0  0  0  0  0  0  0  0  0  0  0  0
   -2.7097    1.1009    1.5681 C   0  0  2  0  0  0  0  0  0  0  0  0
   -3.6027    0.7154    2.1028 H   0  0  0  0  0  0  0  0  0  0  0  0
   -2.0593   -0.0855    1.1109 O   0  0  0  0  0  0  0  0  0  0  0  0
   -3.1104    1.9291    0.3342 C   0  0  0  0  0  0  0  0  0  0  0  0
   -3.9288    3.0017    0.7427 O   0  0  0  0  0  0  0  0  0  0  0  0
    3.1926   -0.0774   -3.3312 H   0  0  0  0  0  0  0  0  0  0  0  0
    3.3604   -2.0534   -5.2924 H   0  0  0  0  0  0  0  0  0  0  0  0
    5.1041   -2.2155   -7.0556 H   0  0  0  0  0  0  0  0  0  0  0  0
    5.5053   -0.3049   -8.5862 H   0  0  0  0  0  0  0  0  0  0  0  0
    4.1628    1.7722   -8.3675 H   0  0  0  0  0  0  0  0  0  0  0  0
    2.4038    1.9383   -6.6165 H   0  0  0  0  0  0  0  0  0  0  0  0
   -0.6074   -0.0217   -3.3132 H   0  0  0  0  0  0  0  0  0  0  0  0
   -1.8029   -0.0572   -1.1091 H   0  0  0  0  0  0  0  0  0  0  0  0
    0.2767    1.9517    1.5929 H   0  0  0  0  0  0  0  0  0  0  0  0
    0.2285    0.9856    3.0535 H   0  0  0  0  0  0  0  0  0  0  0  0
   -1.9815    1.6818    3.5509 H   0  0  0  0  0  0  0  0  0  0  0  0
   -1.7593    2.9284    2.3258 H   0  0  0  0  0  0  0  0  0  0  0  0
   -2.2447    2.4353   -0.1339 H   0  0  0  0  0  0  0  0  0  0  0  0
   -3.6289    1.3140   -0.4213 H   0  0  0  0  0  0  0  0  0  0  0  0
   -4.8069    2.6827    1.0315 H   0  0  0  0  0  0  0  0  0  0  0  0
  1  2  1  0  0  0  0
  1 17  1  0  0  0  0
  2  3  2  0  0  0  0
  4  2  2  0  0  0  0
  5  4  2  0  0  0  0
  6 26  1  0  0  0  0
  6  5  1  0  0  0  0
  7  6  1  0  0  0  0
  8  7  2  0  0  0  0
  9  7  1  0  0  0  0
 10  9  1  0  0  0  0
 10 27  1  0  0  0  0
 11 10  2  0  0  0  0
 12 13  2  0  0  0  0
 12 11  1  0  0  0  0
 13 14  1  0  0  0  0
 14 31  1  0  0  0  0
 14  9  2  0  0  0  0
 15  5  1  0  0  0  0
 15 16  2  0  0  0  0
 16 33  1  0  0  0  0
 16  1  1  0  0  0  0
 17 18  1  1  0  0  0
 17 19  1  0  0  0  0
 19 20  1  0  0  0  0
 19 35  1  0  0  0  0
 20 36  1  0  0  0  0
 21 22  1  1  0  0  0
 21 20  1  0  0  0  0
 23 17  1  0  0  0  0
 23 21  1  0  0  0  0
 24 25  1  0  0  0  0
 24 21  1  0  0  0  0
 25 40  1  0  0  0  0
 28 11  1  0  0  0  0
 29 12  1  0  0  0  0
 30 13  1  0  0  0  0
 32 15  1  0  0  0  0
 34 19  1  0  0  0  0
 37 20  1  0  0  0  0
 38 24  1  0  0  0  0
 39 24  1  0  0  0  0
M  END
$$$$
