rmsd62.gzmat
 OpenBabel08211713413D

 40 42  0  0  1  0  0  0  0  0999 V2000
    0.0000    0.0000    0.0000 N   0  0  0  0  0  0  0  0  0  0  0  0
    1.4595    0.0000    0.0000 C   0  0  0  0  0  0  0  0  0  0  0  0
    1.9988    0.0000    1.0806 O   0  0  0  0  0  0  0  0  0  0  0  0
    2.0817    0.0024   -1.2232 N   0  0  0  0  0  0  0  0  0  0  0  0
    1.3729   -0.0035   -2.3620 C   0  0  0  0  0  0  0  0  0  0  0  0
    2.1884   -0.0185   -3.4971 N   0  0  0  0  0  0  0  0  0  0  0  0
    1.7373    0.0480   -4.8265 C   0  0  0  0  0  0  0  0  0  0  0  0
    0.5642    0.1130   -5.1005 O   0  0  0  0  0  0  0  0  0  0  0  0
    2.8205    0.0037   -5.8431 C   0  0  0  0  0  0  0  0  0  0  0  0
    2.6340   -0.8291   -6.9474 C   0  0  0  0  0  0  0  0  0  0  0  0
    3.6190   -0.8972   -7.9303 C   0  0  0  0  0  0  0  0  0  0  0  0
    4.7766   -0.1290   -7.8111 C   0  0  0  0  0  0  0  0  0  0  0  0
    4.9498    0.7148   -6.7140 C   0  0  0  0  0  0  0  0  0  0  0  0
    3.9699    0.7861   -5.7267 C   0  0  0  0  0  0  0  0  0  0  0  0
   -0.0508   -0.0130   -2.3784 C   0  0  0  0  0  0  0  0  0  0  0  0
   -0.7034   -0.0250   -1.1657 C   0  0  0  0  0  0  0  0  0  0  0  0
   -0.6642   -0.0360    1.3300 C   0  0  1  0  0  0  0  0  0  0  0  0
   -0.4127   -1.0101    1.8201 H   0  0  0  0  0  0  0  0  0  0  0  0
   -0.3316    1.2102    2.1716 C   0  0  0  0  0  0  0  0  0  0  0  0
   -1.6903    1.8425    2.4942 C   0  0  0  0  0  0  0  0  0  0  0  0
   -2.6862    1.1223    1.5790 C   0  0  2  0  0  0  0  0  0  0  0  0
   -3.5810    0.7502    2.1209 H   0  0  0  0  0  0  0  0  0  0  0  0
   -2.0554   -0.0745    1.1187 O   0  0  0  0  0  0  0  0  0  0  0  0
   -3.0848    1.9487    0.3438 C   0  0  0  0  0  0  0  0  0  0  0  0
   -4.0007    2.9480    0.7297 O   0  0  0  0  0  0  0  0  0  0  0  0
    3.1978   -0.0818   -3.3139 H   0  0  0  0  0  0  0  0  0  0  0  0
    1.7172   -1.4158   -7.0399 H   0  0  0  0  0  0  0  0  0  0  0  0
    3.4822   -1.5475   -8.7928 H   0  0  0  0  0  0  0  0  0  0  0  0
    5.5472   -0.1853   -8.5792 H   0  0  0  0  0  0  0  0  0  0  0  0
    5.8514    1.3200   -6.6299 H   0  0  0  0  0  0  0  0  0  0  0  0
    4.1026    1.4599   -4.8791 H   0  0  0  0  0  0  0  0  0  0  0  0
   -0.6062   -0.0213   -3.3146 H   0  0  0  0  0  0  0  0  0  0  0  0
   -1.8025   -0.0621   -1.1073 H   0  0  0  0  0  0  0  0  0  0  0  0
    0.3310    1.9120    1.6313 H   0  0  0  0  0  0  0  0  0  0  0  0
    0.2339    0.9330    3.0795 H   0  0  0  0  0  0  0  0  0  0  0  0
   -1.9541    1.7082    3.5575 H   0  0  0  0  0  0  0  0  0  0  0  0
   -1.6921    2.9342    2.3220 H   0  0  0  0  0  0  0  0  0  0  0  0
   -2.2371    2.5262   -0.0717 H   0  0  0  0  0  0  0  0  0  0  0  0
   -3.5199    1.3141   -0.4479 H   0  0  0  0  0  0  0  0  0  0  0  0
   -4.8642    2.5565    0.9714 H   0  0  0  0  0  0  0  0  0  0  0  0
  1  2  1  0  0  0  0
  1 17  1  0  0  0  0
  2  3  2  0  0  0  0
  4  2  2  0  0  0  0
  5  4  2  0  0  0  0
  6 26  1  0  0  0  0
  6  5  1  0  0  0  0
  7  6  1  0  0  0  0
  8  7  2  0  0  0  0
  9 14  1  0  0  0  0
  9  7  1  0  0  0  0
 10  9  2  0  0  0  0
 11 12  2  0  0  0  0
 11 10  1  0  0  0  0
 12 13  1  0  0  0  0
 13 30  1  0  0  0  0
 13 14  2  0  0  0  0
 14 31  1  0  0  0  0
 15  5  1  0  0  0  0
 15 16  2  0  0  0  0
 16 33  1  0  0  0  0
 16  1  1  0  0  0  0
 17 18  1  1  0  0  0
 17 19  1  0  0  0  0
 19 20  1  0  0  0  0
 19 35  1  0  0  0  0
 20 36  1  0  0  0  0
 21 22  1  1  0  0  0
 21 20  1  0  0  0  0
 23 17  1  0  0  0  0
 23 21  1  0  0  0  0
 24 25  1  0  0  0  0
 24 21  1  0  0  0  0
 25 40  1  0  0  0  0
 27 10  1  0  0  0  0
 28 11  1  0  0  0  0
 29 12  1  0  0  0  0
 32 15  1  0  0  0  0
 34 19  1  0  0  0  0
 37 20  1  0  0  0  0
 38 24  1  0  0  0  0
 39 24  1  0  0  0  0
M  END
$$$$
