
     RDKit          3D

 40 42  0  0  0  0  0  0  0  0999 V2000
   -0.1277   -0.2757   -0.1079 N   0  0  0  0  0  0  0  0  0  0  0  0
    1.3028   -0.2982   -0.0742 C   0  0  0  0  0  0  0  0  0  0  0  0
    1.8579   -0.3565    1.0094 O   0  0  0  0  0  0  0  0  0  0  0  0
    1.9411   -0.2459   -1.2820 N   0  0  0  0  0  0  0  0  0  0  0  0
    1.2634   -0.1897   -2.4075 C   0  0  0  0  0  0  0  0  0  0  0  0
    2.0677   -0.1451   -3.5409 N   0  0  0  0  0  0  0  0  0  0  0  0
    1.7078   -0.0525   -4.8735 C   0  0  0  0  0  0  0  0  0  0  0  0
    0.5547    0.0600   -5.2495 O   0  0  0  0  0  0  0  0  0  0  0  0
    2.8547   -0.0831   -5.8434 C   0  0  0  0  0  0  0  0  0  0  0  0
    2.5964    0.3712   -7.1460 C   0  0  0  0  0  0  0  0  0  0  0  0
    3.6060    0.3704   -8.1067 C   0  0  0  0  0  0  0  0  0  0  0  0
    4.8829   -0.0984   -7.7806 C   0  0  0  0  0  0  0  0  0  0  0  0
    5.1441   -0.5698   -6.4913 C   0  0  0  0  0  0  0  0  0  0  0  0
    4.1357   -0.5622   -5.5259 C   0  0  0  0  0  0  0  0  0  0  0  0
   -0.1615   -0.1868   -2.4781 C   0  0  0  0  0  0  0  0  0  0  0  0
   -0.8091   -0.2406   -1.2738 C   0  0  0  0  0  0  0  0  0  0  0  0
   -0.8032   -0.3380    1.2140 C   0  0  1  0  0  0  0  0  0  0  0  0
   -0.3449   -1.1832    1.7458 H   0  0  0  0  0  0  0  0  0  0  0  0
   -0.6699    0.9809    1.9899 C   0  0  0  0  0  0  0  0  0  0  0  0
   -1.9378    1.7266    1.5722 C   0  0  0  0  0  0  0  0  0  0  0  0
   -2.9434    0.5830    1.4704 C   0  0  2  0  0  0  0  0  0  0  0  0
   -3.3527    0.3532    2.4759 H   0  0  0  0  0  0  0  0  0  0  0  0
   -2.1784   -0.5544    1.0340 O   0  0  0  0  0  0  0  0  0  0  0  0
   -4.1100    0.8047    0.5152 C   0  0  0  0  0  0  0  0  0  0  0  0
   -4.9165    1.8837    0.9293 O   0  0  0  0  0  0  0  0  0  0  0  0
    3.0532   -0.1442   -3.2991 H   0  0  0  0  0  0  0  0  0  0  0  0
    1.5896    0.7211   -7.3793 H   0  0  0  0  0  0  0  0  0  0  0  0
    3.3977    0.7343   -9.1154 H   0  0  0  0  0  0  0  0  0  0  0  0
    5.6743   -0.1021   -8.5339 H   0  0  0  0  0  0  0  0  0  0  0  0
    6.1352   -0.9516   -6.2362 H   0  0  0  0  0  0  0  0  0  0  0  0
    4.3572   -0.9632   -4.5341 H   0  0  0  0  0  0  0  0  0  0  0  0
   -0.6851   -0.1494   -3.4269 H   0  0  0  0  0  0  0  0  0  0  0  0
   -1.8940   -0.2758   -1.1862 H   0  0  0  0  0  0  0  0  0  0  0  0
    0.2726    1.4952    1.7719 H   0  0  0  0  0  0  0  0  0  0  0  0
   -0.6854    0.7565    3.0678 H   0  0  0  0  0  0  0  0  0  0  0  0
   -2.2525    2.5058    2.2785 H   0  0  0  0  0  0  0  0  0  0  0  0
   -1.8094    2.2012    0.5850 H   0  0  0  0  0  0  0  0  0  0  0  0
   -3.7190    1.0664   -0.4815 H   0  0  0  0  0  0  0  0  0  0  0  0
   -4.6789   -0.1391    0.4073 H   0  0  0  0  0  0  0  0  0  0  0  0
   -5.3858    1.6231    1.7325 H   0  0  0  0  0  0  0  0  0  0  0  0
  1  2  1  0
  1 16  1  0
  1 17  1  0
  2  3  2  0
  2  4  1  0
  4  5  2  0
  5  6  1  0
  5 15  1  0
  6  7  1  0
  6 26  1  0
  7  8  2  0
  7  9  1  0
  9 10  2  0
  9 14  1  0
 10 11  1  0
 10 27  1  0
 11 12  2  0
 11 28  1  0
 12 13  1  0
 12 29  1  0
 13 14  2  0
 13 30  1  0
 14 31  1  0
 15 16  2  0
 15 32  1  0
 16 33  1  0
 17 18  1  1
 17 19  1  0
 17 23  1  0
 19 20  1  0
 19 34  1  0
 19 35  1  0
 20 21  1  0
 20 36  1  0
 20 37  1  0
 21 22  1  1
 21 23  1  0
 21 24  1  0
 24 25  1  0
 24 38  1  0
 24 39  1  0
 25 40  1  0
M  END

