40

N          0.06770        0.09310       -0.00990
C          1.49160       -0.05710       -0.00840
O          2.06610       -0.13110        1.06390
N          2.10090       -0.09850       -1.23120
C          1.40360       -0.01080       -2.34260
N          2.18000       -0.06070       -3.49410
C          1.79100       -0.01920       -4.82180
O          0.62640        0.02100       -5.17640
C          2.91820       -0.04440       -5.81420
C          2.58890       -0.36770       -7.13970
C          3.57650       -0.40840       -8.12210
C          4.90360       -0.11220       -7.79410
C          5.23770        0.22840       -6.48060
C          4.25050        0.26200       -5.49400
C         -0.01700        0.12100       -2.38060
C         -0.63630        0.15990       -1.16140
C         -0.57370        0.12430        1.32990
H         -0.17010       -0.73870        1.87670
C         -0.31420        1.44970        2.06020
C         -1.52180        2.29210        1.64230
C         -2.62940        1.24500        1.59100
H         -3.06080        1.07520        2.59450
O         -1.96590        0.01830        1.19620
C         -3.76230        1.49020        0.61010
O         -4.63470        0.39220        0.53970
H          3.16350       -0.18390       -3.27630
H          1.54540       -0.58410       -7.37310
H          3.31190       -0.66980       -9.14930
H          5.67810       -0.14130       -8.56420
H          6.26990        0.47530       -6.22260
H          4.53290        0.55930       -4.48130
H         -0.56000        0.16610       -3.31820
H         -1.71740        0.22840       -1.05260
H          0.66410        1.87450        1.80950
H         -0.32890        1.26030        3.14460
H         -1.74580        3.11000        2.34110
H         -1.36500        2.73120        0.64250
H         -4.34720        2.36470        0.93870
H         -3.32780        1.74320       -0.38090
H         -4.08150       -0.39660        0.44240
