40

N         -0.06980        0.10160       -0.24680
C          1.30760       -0.28500       -0.20270
O          1.80390       -0.54760        0.87880
N          1.96450       -0.32440       -1.40060
C          1.35560       -0.00410       -2.52140
N          2.17020       -0.09880       -3.64430
C          1.88360        0.18460       -4.96770
O          0.81510        0.63590       -5.33980
C          3.00310       -0.08940       -5.93140
C          4.09510       -0.92430       -5.64530
C          5.08780       -1.13870       -6.60320
C          4.99950       -0.52100       -7.85360
C          3.90880        0.30360       -8.14900
C          2.91320        0.51210       -7.19620
C         -0.01250        0.39290       -2.59870
C         -0.68540        0.41950       -1.40750
C         -0.76320        0.13520        1.05250
H         -0.52470       -0.82110        1.54540
C         -0.35010        1.32260        1.93330
C         -1.63720        1.60600        2.71050
C         -2.71920        1.26870        1.68030
H         -3.62050        0.84080        2.15450
O         -2.15250        0.25080        0.84310
C         -3.14080        2.46530        0.82180
O         -3.75690        3.47540        1.58640
H          3.11260       -0.38380       -3.39830
H          4.17210       -1.44180       -4.68620
H          5.92940       -1.79590       -6.37340
H          5.77900       -0.68720       -8.60090
H          3.83460        0.78330       -9.12760
H          2.04730        1.14150       -7.40690
H         -0.47920        0.64700       -3.54410
H         -1.74040        0.67790       -1.32410
H         -0.07650        2.17260        1.28900
H          0.51940        1.07730        2.55320
H         -1.71830        0.93890        3.58260
H         -1.72930        2.64270        3.06280
H         -2.24880        2.91860        0.35960
H         -3.78530        2.10220       -0.00270
H         -4.60610        3.14290        1.90620
