rmsd116.gzmat
 OpenBabel08211713383D

 35 36  0  0  0  0  0  0  0  0999 V2000
    0.0000    0.0000    0.0000 C   0  0  0  0  0  0  0  0  0  0  0  0
    1.2080    0.0000    0.0000 O   0  0  0  0  0  0  0  0  0  0  0  0
   -0.7677    0.0000   -1.2617 C   0  0  0  0  0  0  0  0  0  0  0  0
   -2.0174    0.6227   -1.3636 C   0  0  0  0  0  0  0  0  0  0  0  0
   -2.7168    0.5956   -2.5583 C   0  0  0  0  0  0  0  0  0  0  0  0
   -2.1509   -0.0739   -3.6587 C   0  0  0  0  0  0  0  0  0  0  0  0
   -0.8932   -0.6756   -3.5845 C   0  0  0  0  0  0  0  0  0  0  0  0
   -0.2033   -0.6236   -2.3764 C   0  0  0  0  0  0  0  0  0  0  0  0
   -2.9511   -0.0524   -4.7528 O   0  0  0  0  0  0  0  0  0  0  0  0
   -2.5168   -0.7772   -5.8962 C   0  0  0  0  0  0  0  0  0  0  0  0
   -0.7620   -0.0486    1.3120 C   0  0  0  0  0  0  0  0  0  0  0  0
   -1.1071    1.3336    1.7657 C   0  0  0  0  0  0  0  0  0  0  0  0
   -2.4322    1.6659    2.0706 C   0  0  0  0  0  0  0  0  0  0  0  0
   -2.7550    2.9460    2.4957 C   0  0  0  0  0  0  0  0  0  0  0  0
   -1.7304    3.8984    2.6168 C   0  0  0  0  0  0  0  0  0  0  0  0
   -0.4030    3.5836    2.3272 C   0  0  0  0  0  0  0  0  0  0  0  0
   -0.1010    2.2916    1.9044 C   0  0  0  0  0  0  0  0  0  0  0  0
   -2.1857    5.1098    3.0341 O   0  0  0  0  0  0  0  0  0  0  0  0
   -1.2249    6.1423    3.2057 C   0  0  0  0  0  0  0  0  0  0  0  0
   -2.4403    1.1438   -0.5000 H   0  0  0  0  0  0  0  0  0  0  0  0
   -3.6855    1.0780   -2.6610 H   0  0  0  0  0  0  0  0  0  0  0  0
   -0.4478   -1.1664   -4.4423 H   0  0  0  0  0  0  0  0  0  0  0  0
    0.7908   -1.0734   -2.2961 H   0  0  0  0  0  0  0  0  0  0  0  0
   -3.3476   -0.6213   -6.5984 H   0  0  0  0  0  0  0  0  0  0  0  0
   -2.4063   -1.8412   -5.6650 H   0  0  0  0  0  0  0  0  0  0  0  0
   -1.5915   -0.3540   -6.2990 H   0  0  0  0  0  0  0  0  0  0  0  0
   -0.1272   -0.5462    2.0818 H   0  0  0  0  0  0  0  0  0  0  0  0
   -1.6590   -0.6912    1.2120 H   0  0  0  0  0  0  0  0  0  0  0  0
   -3.2185    0.9163    1.9801 H   0  0  0  0  0  0  0  0  0  0  0  0
   -3.7778    3.2236    2.7363 H   0  0  0  0  0  0  0  0  0  0  0  0
    0.3884    4.3185    2.4249 H   0  0  0  0  0  0  0  0  0  0  0  0
    0.9344    2.0242    1.6758 H   0  0  0  0  0  0  0  0  0  0  0  0
   -1.8491    6.9886    3.5244 H   0  0  0  0  0  0  0  0  0  0  0  0
   -0.7250    6.3736    2.2600 H   0  0  0  0  0  0  0  0  0  0  0  0
   -0.5061    5.8804    3.9884 H   0  0  0  0  0  0  0  0  0  0  0  0
  1 11  1  0  0  0  0
  2  1  2  0  0  0  0
  3  1  1  0  0  0  0
  4  3  1  0  0  0  0
  4 20  1  0  0  0  0
  5  4  2  0  0  0  0
  6  7  2  0  0  0  0
  6  5  1  0  0  0  0
  7  8  1  0  0  0  0
  8 23  1  0  0  0  0
  8  3  2  0  0  0  0
  9  6  1  0  0  0  0
 10 25  1  0  0  0  0
 10  9  1  0  0  0  0
 11 12  1  0  0  0  0
 11 27  1  0  0  0  0
 12 17  2  0  0  0  0
 12 13  1  0  0  0  0
 13 14  2  0  0  0  0
 14 15  1  0  0  0  0
 14 30  1  0  0  0  0
 15 18  1  0  0  0  0
 16 31  1  0  0  0  0
 16 15  2  0  0  0  0
 17 16  1  0  0  0  0
 18 19  1  0  0  0  0
 19 33  1  0  0  0  0
 19 35  1  0  0  0  0
 21  5  1  0  0  0  0
 22  7  1  0  0  0  0
 24 10  1  0  0  0  0
 26 10  1  0  0  0  0
 28 11  1  0  0  0  0
 29 13  1  0  0  0  0
 32 17  1  0  0  0  0
 34 19  1  0  0  0  0
M  END
$$$$
