rmsd155.gzmat
 OpenBabel08211713383D

 35 36  0  0  0  0  0  0  0  0999 V2000
    0.0000    0.0000    0.0000 C   0  0  0  0  0  0  0  0  0  0  0  0
    1.2081    0.0000    0.0000 O   0  0  0  0  0  0  0  0  0  0  0  0
   -0.7677    0.0000   -1.2617 C   0  0  0  0  0  0  0  0  0  0  0  0
   -2.0148    0.6272   -1.3658 C   0  0  0  0  0  0  0  0  0  0  0  0
   -2.7105    0.6089   -2.5628 C   0  0  0  0  0  0  0  0  0  0  0  0
   -2.1409   -0.0530   -3.6656 C   0  0  0  0  0  0  0  0  0  0  0  0
   -0.8916   -0.6713   -3.5859 C   0  0  0  0  0  0  0  0  0  0  0  0
   -0.2064   -0.6298   -2.3748 C   0  0  0  0  0  0  0  0  0  0  0  0
   -2.9321   -0.0128   -4.7657 O   0  0  0  0  0  0  0  0  0  0  0  0
   -2.4488   -0.6436   -5.9445 C   0  0  0  0  0  0  0  0  0  0  0  0
   -0.7594   -0.0514    1.3133 C   0  0  0  0  0  0  0  0  0  0  0  0
   -1.1487    1.3247    1.7488 C   0  0  0  0  0  0  0  0  0  0  0  0
   -2.4919    1.6288    2.0009 C   0  0  0  0  0  0  0  0  0  0  0  0
   -2.8581    2.8993    2.4182 C   0  0  0  0  0  0  0  0  0  0  0  0
   -1.8585    3.8708    2.5887 C   0  0  0  0  0  0  0  0  0  0  0  0
   -0.5152    3.5866    2.3451 C   0  0  0  0  0  0  0  0  0  0  0  0
   -0.1702    2.3041    1.9248 C   0  0  0  0  0  0  0  0  0  0  0  0
   -2.3559    5.0660    3.0046 O   0  0  0  0  0  0  0  0  0  0  0  0
   -1.4274    6.1181    3.2240 C   0  0  0  0  0  0  0  0  0  0  0  0
   -2.4394    1.1467   -0.5025 H   0  0  0  0  0  0  0  0  0  0  0  0
   -3.6780    1.0938   -2.6655 H   0  0  0  0  0  0  0  0  0  0  0  0
   -0.4509   -1.1711   -4.4406 H   0  0  0  0  0  0  0  0  0  0  0  0
    0.7808   -1.0936   -2.2901 H   0  0  0  0  0  0  0  0  0  0  0  0
   -3.2710   -0.4685   -6.6527 H   0  0  0  0  0  0  0  0  0  0  0  0
   -2.3042   -1.7166   -5.7838 H   0  0  0  0  0  0  0  0  0  0  0  0
   -1.5311   -0.1611   -6.2961 H   0  0  0  0  0  0  0  0  0  0  0  0
   -0.1086   -0.5185    2.0890 H   0  0  0  0  0  0  0  0  0  0  0  0
   -1.6357   -0.7242    1.2247 H   0  0  0  0  0  0  0  0  0  0  0  0
   -3.2586    0.8645    1.8731 H   0  0  0  0  0  0  0  0  0  0  0  0
   -3.8954    3.1545    2.6172 H   0  0  0  0  0  0  0  0  0  0  0  0
    0.2558    4.3373    2.4779 H   0  0  0  0  0  0  0  0  0  0  0  0
    0.8775    2.0624    1.7275 H   0  0  0  0  0  0  0  0  0  0  0  0
   -2.0836    6.9448    3.5306 H   0  0  0  0  0  0  0  0  0  0  0  0
   -0.8968    6.3727    2.3013 H   0  0  0  0  0  0  0  0  0  0  0  0
   -0.7331    5.8629    4.0308 H   0  0  0  0  0  0  0  0  0  0  0  0
  1  2  2  0  0  0  0
  1 11  1  0  0  0  0
  3  1  1  0  0  0  0
  4  3  1  0  0  0  0
  4 20  1  0  0  0  0
  5  4  2  0  0  0  0
  6  7  2  0  0  0  0
  6  5  1  0  0  0  0
  7  8  1  0  0  0  0
  8 23  1  0  0  0  0
  8  3  2  0  0  0  0
  9  6  1  0  0  0  0
 10 25  1  0  0  0  0
 10  9  1  0  0  0  0
 11 12  1  0  0  0  0
 11 27  1  0  0  0  0
 12 17  2  0  0  0  0
 12 13  1  0  0  0  0
 13 14  2  0  0  0  0
 14 15  1  0  0  0  0
 14 30  1  0  0  0  0
 15 18  1  0  0  0  0
 16 31  1  0  0  0  0
 16 15  2  0  0  0  0
 17 16  1  0  0  0  0
 18 19  1  0  0  0  0
 19 33  1  0  0  0  0
 19 35  1  0  0  0  0
 21  5  1  0  0  0  0
 22  7  1  0  0  0  0
 24 10  1  0  0  0  0
 26 10  1  0  0  0  0
 28 11  1  0  0  0  0
 29 13  1  0  0  0  0
 32 17  1  0  0  0  0
 34 19  1  0  0  0  0
M  END
$$$$
