35

C         -0.03950        0.40560        0.21640
O          1.16040        0.62040        0.20290
C         -0.80460        0.22640       -1.05060
C         -0.11440        0.35750       -2.26510
C         -0.75950        0.20700       -3.48960
C         -2.13420       -0.08790       -3.51600
C         -2.83770       -0.22690       -2.30570
C         -2.18070       -0.07060       -1.09360
O         -2.85550       -0.25530       -4.64580
C         -2.21570       -0.13450       -5.89770
C         -0.77260        0.27250        1.54970
C         -1.04880       -1.17910        1.89090
C         -0.02210       -2.12870        1.83890
C         -0.25190       -3.47250        2.14760
C         -1.53810       -3.89230        2.51810
C         -2.57690       -2.94930        2.57560
C         -2.32970       -1.61640        2.26410
O         -1.86850       -5.17010        2.83440
C         -0.86980       -6.16190        2.79200
H          0.95260        0.58380       -2.22230
H         -0.19160        0.31860       -4.41270
H         -3.90220       -0.46220       -2.35090
H         -2.74660       -0.19830       -0.17110
H         -2.98610       -0.30890       -6.65990
H         -1.41270       -0.88280       -6.01950
H         -1.78810        0.87340       -6.04210
H         -1.71470        0.84000        1.53650
H         -0.11320        0.72780        2.30400
H          0.98340       -1.81300        1.54970
H          0.57610       -4.17880        2.09430
H         -3.57160       -3.29070        2.86780
H         -3.15130       -0.89620        2.31710
H         -1.35180       -7.10610        3.07840
H         -0.04900       -5.94960        3.50090
H         -0.44140       -6.27110        1.77920
