35
rmsd145.gzmat
C          0.00000        0.00000        0.00000
O          1.20900        0.00000        0.00000
C         -0.76330        0.00000       -1.26330
C         -2.07120        0.49390       -1.34300
C         -2.75450        0.47680       -2.54710
C         -2.10910       -0.04340       -3.68410
C         -0.80020       -0.52620       -3.62910
C         -0.13160       -0.49130       -2.40880
O         -2.89120       -0.01120       -4.79060
C         -2.34830       -0.54080       -5.99300
C         -0.75470       -0.03490        1.31620
C         -1.16560        1.34580        1.71610
C         -2.49740        1.61400        2.05410
C         -2.88220        2.89180        2.43100
C         -1.91240        3.90630        2.47470
C         -0.57960        3.65700        2.14870
C         -0.21540        2.36720        1.77040
O         -2.42410        5.10550        2.86090
C         -1.52390        6.20170        2.93590
H         -2.55460        0.90830       -0.45420
H         -3.77030        0.85500       -2.63090
H         -0.30140       -0.91570       -4.50860
H          0.90090       -0.84960       -2.34140
H         -3.17270       -0.39060       -6.70410
H         -2.12550       -1.60690       -5.88400
H         -1.46570        0.02520       -6.30650
H         -0.09360       -0.46820        2.10300
H         -1.61770       -0.72610        1.24640
H         -3.23940        0.81640        2.02650
H         -3.91140        3.12100        2.69300
H          0.16980        4.44030        2.18430
H          0.82480        2.15340        1.50950
H         -2.18240        7.02060        3.25670
H         -1.09130        6.41930        1.95440
H         -0.74840        6.01980        3.68620
