
     RDKit          3D

 35 36  0  0  0  0  0  0  0  0999 V2000
   -0.0395    0.4056    0.2164 C   0  0  0  0  0  0  0  0  0  0  0  0
    1.1604    0.6204    0.2029 O   0  0  0  0  0  0  0  0  0  0  0  0
   -0.8046    0.2264   -1.0506 C   0  0  0  0  0  0  0  0  0  0  0  0
   -0.1144    0.3575   -2.2651 C   0  0  0  0  0  0  0  0  0  0  0  0
   -0.7595    0.2070   -3.4896 C   0  0  0  0  0  0  0  0  0  0  0  0
   -2.1342   -0.0879   -3.5160 C   0  0  0  0  0  0  0  0  0  0  0  0
   -2.8377   -0.2269   -2.3057 C   0  0  0  0  0  0  0  0  0  0  0  0
   -2.1807   -0.0706   -1.0936 C   0  0  0  0  0  0  0  0  0  0  0  0
   -2.8555   -0.2553   -4.6458 O   0  0  0  0  0  0  0  0  0  0  0  0
   -2.2157   -0.1345   -5.8977 C   0  0  0  0  0  0  0  0  0  0  0  0
   -0.7726    0.2725    1.5497 C   0  0  0  0  0  0  0  0  0  0  0  0
   -1.0488   -1.1791    1.8909 C   0  0  0  0  0  0  0  0  0  0  0  0
   -0.0221   -2.1287    1.8389 C   0  0  0  0  0  0  0  0  0  0  0  0
   -0.2519   -3.4725    2.1476 C   0  0  0  0  0  0  0  0  0  0  0  0
   -1.5381   -3.8923    2.5181 C   0  0  0  0  0  0  0  0  0  0  0  0
   -2.5769   -2.9493    2.5756 C   0  0  0  0  0  0  0  0  0  0  0  0
   -2.3297   -1.6164    2.2641 C   0  0  0  0  0  0  0  0  0  0  0  0
   -1.8685   -5.1701    2.8344 O   0  0  0  0  0  0  0  0  0  0  0  0
   -0.8698   -6.1619    2.7920 C   0  0  0  0  0  0  0  0  0  0  0  0
    0.9526    0.5838   -2.2223 H   0  0  0  0  0  0  0  0  0  0  0  0
   -0.1916    0.3186   -4.4127 H   0  0  0  0  0  0  0  0  0  0  0  0
   -3.9022   -0.4622   -2.3509 H   0  0  0  0  0  0  0  0  0  0  0  0
   -2.7466   -0.1983   -0.1711 H   0  0  0  0  0  0  0  0  0  0  0  0
   -2.9861   -0.3089   -6.6599 H   0  0  0  0  0  0  0  0  0  0  0  0
   -1.4127   -0.8828   -6.0195 H   0  0  0  0  0  0  0  0  0  0  0  0
   -1.7881    0.8734   -6.0421 H   0  0  0  0  0  0  0  0  0  0  0  0
   -1.7147    0.8400    1.5365 H   0  0  0  0  0  0  0  0  0  0  0  0
   -0.1132    0.7278    2.3040 H   0  0  0  0  0  0  0  0  0  0  0  0
    0.9834   -1.8130    1.5497 H   0  0  0  0  0  0  0  0  0  0  0  0
    0.5761   -4.1788    2.0943 H   0  0  0  0  0  0  0  0  0  0  0  0
   -3.5716   -3.2907    2.8678 H   0  0  0  0  0  0  0  0  0  0  0  0
   -3.1513   -0.8962    2.3171 H   0  0  0  0  0  0  0  0  0  0  0  0
   -1.3518   -7.1061    3.0784 H   0  0  0  0  0  0  0  0  0  0  0  0
   -0.0490   -5.9496    3.5009 H   0  0  0  0  0  0  0  0  0  0  0  0
   -0.4414   -6.2711    1.7792 H   0  0  0  0  0  0  0  0  0  0  0  0
  1  2  2  0
  1  3  1  0
  1 11  1  0
  3  4  2  0
  3  8  1  0
  4  5  1  0
  4 20  1  0
  5  6  2  0
  5 21  1  0
  6  7  1  0
  6  9  1  0
  7  8  2  0
  7 22  1  0
  8 23  1  0
  9 10  1  0
 10 24  1  0
 10 25  1  0
 10 26  1  0
 11 12  1  0
 11 27  1  0
 11 28  1  0
 12 13  2  0
 12 17  1  0
 13 14  1  0
 13 29  1  0
 14 15  2  0
 14 30  1  0
 15 16  1  0
 15 18  1  0
 16 17  2  0
 16 31  1  0
 17 32  1  0
 18 19  1  0
 19 33  1  0
 19 34  1  0
 19 35  1  0
M  END

