35
rmsd200.gzmat
C          0.00000        0.00000        0.00000
O          1.20910        0.00000        0.00000
C         -0.76260        0.00000       -1.26360
C         -0.12820        0.48160       -2.41160
C         -0.79430        0.50950       -3.63340
C         -2.10430        0.02970       -3.68790
C         -2.75290       -0.47750       -2.54670
C         -2.07210       -0.48900       -1.34090
O         -2.88340       -0.01370       -4.79600
C         -2.33430        0.48930       -6.00760
C         -0.75350        0.03290        1.31690
C         -1.02570       -1.35930        1.79010
C          0.02810       -2.26440        1.92530
C         -0.19980       -3.55720        2.38930
C         -1.50260       -3.92650        2.72330
C         -2.57700       -3.03220        2.59170
C         -2.32720       -1.75040        2.12400
O         -1.88500       -5.14310        3.19570
C         -0.86160       -6.10140        3.42430
H          0.90560        0.83590       -2.34420
H         -0.29270        0.89030       -4.51530
H         -3.76870       -0.85470       -2.63000
H         -2.55570       -0.89610       -0.44920
H         -3.15770        0.32960       -6.71830
H         -1.45380       -0.08670       -6.30940
H         -2.10860        1.55640       -5.91760
H         -1.67910        0.63410        1.22730
H         -0.13180        0.56660        2.07380
H          1.04330       -1.95590        1.66010
H          0.62870       -4.25100        2.48090
H         -3.57960       -3.35350        2.86080
H         -3.15170       -1.04490        2.02650
H         -1.42790       -6.95300        3.82550
H         -0.14220       -5.73830        4.16520
H         -0.36890       -6.37740        2.48680
