rmsd185.gzmat
 OpenBabel08211713383D

 35 36  0  0  0  0  0  0  0  0999 V2000
    0.0000    0.0000    0.0000 C   0  0  0  0  0  0  0  0  0  0  0  0
    1.2081    0.0000    0.0000 O   0  0  0  0  0  0  0  0  0  0  0  0
   -0.7693    0.0000   -1.2604 C   0  0  0  0  0  0  0  0  0  0  0  0
   -0.1893    0.5848   -2.3876 C   0  0  0  0  0  0  0  0  0  0  0  0
   -0.8802    0.6353   -3.5952 C   0  0  0  0  0  0  0  0  0  0  0  0
   -2.1555    0.0710   -3.6555 C   0  0  0  0  0  0  0  0  0  0  0  0
   -2.7431   -0.5513   -2.5387 C   0  0  0  0  0  0  0  0  0  0  0  0
   -2.0400   -0.5808   -1.3465 C   0  0  0  0  0  0  0  0  0  0  0  0
   -2.9578    0.0503   -4.7476 O   0  0  0  0  0  0  0  0  0  0  0  0
   -2.4566    0.6372   -5.9417 C   0  0  0  0  0  0  0  0  0  0  0  0
   -0.7623    0.0442    1.3121 C   0  0  0  0  0  0  0  0  0  0  0  0
   -1.0001   -1.3459    1.8094 C   0  0  0  0  0  0  0  0  0  0  0  0
    0.0849   -2.1913    2.0457 C   0  0  0  0  0  0  0  0  0  0  0  0
   -0.1123   -3.4862    2.5178 C   0  0  0  0  0  0  0  0  0  0  0  0
   -1.4168   -3.9202    2.7518 C   0  0  0  0  0  0  0  0  0  0  0  0
   -2.5217   -3.0846    2.5233 C   0  0  0  0  0  0  0  0  0  0  0  0
   -2.3016   -1.7978    2.0545 C   0  0  0  0  0  0  0  0  0  0  0  0
   -1.7732   -5.1490    3.2126 O   0  0  0  0  0  0  0  0  0  0  0  0
   -0.7267   -6.0740    3.4726 C   0  0  0  0  0  0  0  0  0  0  0  0
    0.8187    1.0045   -2.3162 H   0  0  0  0  0  0  0  0  0  0  0  0
   -0.4237    1.0998   -4.4615 H   0  0  0  0  0  0  0  0  0  0  0  0
   -3.7301   -0.9975   -2.6280 H   0  0  0  0  0  0  0  0  0  0  0  0
   -2.4755   -1.0730   -0.4731 H   0  0  0  0  0  0  0  0  0  0  0  0
   -3.2873    0.4772   -6.6431 H   0  0  0  0  0  0  0  0  0  0  0  0
   -1.5582    0.1157   -6.2866 H   0  0  0  0  0  0  0  0  0  0  0  0
   -2.2734    1.7073   -5.8040 H   0  0  0  0  0  0  0  0  0  0  0  0
   -1.7046    0.6154    1.1992 H   0  0  0  0  0  0  0  0  0  0  0  0
   -0.1634    0.6138    2.0604 H   0  0  0  0  0  0  0  0  0  0  0  0
    1.1002   -1.8342    1.8523 H   0  0  0  0  0  0  0  0  0  0  0  0
    0.7407   -4.1312    2.6957 H   0  0  0  0  0  0  0  0  0  0  0  0
   -3.5245   -3.4553    2.7174 H   0  0  0  0  0  0  0  0  0  0  0  0
   -3.1516   -1.1375    1.8838 H   0  0  0  0  0  0  0  0  0  0  0  0
   -1.2804   -6.9600    3.8131 H   0  0  0  0  0  0  0  0  0  0  0  0
   -0.0693   -5.7067    4.2667 H   0  0  0  0  0  0  0  0  0  0  0  0
   -0.1673   -6.3010    2.5596 H   0  0  0  0  0  0  0  0  0  0  0  0
  1  2  2  0  0  0  0
  1 11  1  0  0  0  0
  3  1  1  0  0  0  0
  4 20  1  0  0  0  0
  4  3  2  0  0  0  0
  5  4  1  0  0  0  0
  6  5  2  0  0  0  0
  6  7  1  0  0  0  0
  7  8  2  0  0  0  0
  8  3  1  0  0  0  0
  8 23  1  0  0  0  0
  9  6  1  0  0  0  0
 10 26  1  0  0  0  0
 10  9  1  0  0  0  0
 11 12  1  0  0  0  0
 11 28  1  0  0  0  0
 12 13  2  0  0  0  0
 12 17  1  0  0  0  0
 13 14  1  0  0  0  0
 14 30  1  0  0  0  0
 14 15  2  0  0  0  0
 15 18  1  0  0  0  0
 16 31  1  0  0  0  0
 16 15  1  0  0  0  0
 17 16  2  0  0  0  0
 18 19  1  0  0  0  0
 19 33  1  0  0  0  0
 19 34  1  0  0  0  0
 21  5  1  0  0  0  0
 22  7  1  0  0  0  0
 24 10  1  0  0  0  0
 25 10  1  0  0  0  0
 27 11  1  0  0  0  0
 29 13  1  0  0  0  0
 32 17  1  0  0  0  0
 35 19  1  0  0  0  0
M  END
$$$$
