rmsd111.gzmat
 OpenBabel08211713383D

 35 36  0  0  0  0  0  0  0  0999 V2000
    0.0000    0.0000    0.0000 C   0  0  0  0  0  0  0  0  0  0  0  0
    1.2083    0.0000    0.0000 O   0  0  0  0  0  0  0  0  0  0  0  0
   -0.7676    0.0000   -1.2615 C   0  0  0  0  0  0  0  0  0  0  0  0
   -2.0438    0.5689   -1.3498 C   0  0  0  0  0  0  0  0  0  0  0  0
   -2.7411    0.5390   -2.5453 C   0  0  0  0  0  0  0  0  0  0  0  0
   -2.1432   -0.0717   -3.6631 C   0  0  0  0  0  0  0  0  0  0  0  0
   -0.8614   -0.6210   -3.6014 C   0  0  0  0  0  0  0  0  0  0  0  0
   -0.1766   -0.5707   -2.3902 C   0  0  0  0  0  0  0  0  0  0  0  0
   -2.9434   -0.0531   -4.7568 O   0  0  0  0  0  0  0  0  0  0  0  0
   -2.4575   -0.6775   -5.9375 C   0  0  0  0  0  0  0  0  0  0  0  0
   -0.7639   -0.0419    1.3109 C   0  0  0  0  0  0  0  0  0  0  0  0
   -0.9955    1.3495    1.8072 C   0  0  0  0  0  0  0  0  0  0  0  0
   -2.2958    1.8093    2.0430 C   0  0  0  0  0  0  0  0  0  0  0  0
   -2.5103    3.0948    2.5175 C   0  0  0  0  0  0  0  0  0  0  0  0
   -1.4013    3.9193    2.7649 C   0  0  0  0  0  0  0  0  0  0  0  0
   -0.0982    3.4809    2.5305 C   0  0  0  0  0  0  0  0  0  0  0  0
    0.0935    2.1879    2.0509 C   0  0  0  0  0  0  0  0  0  0  0  0
   -1.7527    5.1428    3.2431 O   0  0  0  0  0  0  0  0  0  0  0  0
   -0.7011    6.0456    3.5544 C   0  0  0  0  0  0  0  0  0  0  0  0
   -2.4882    1.0518   -0.4756 H   0  0  0  0  0  0  0  0  0  0  0  0
   -3.7321    0.9753   -2.6379 H   0  0  0  0  0  0  0  0  0  0  0  0
   -0.3948   -1.0723   -4.4692 H   0  0  0  0  0  0  0  0  0  0  0  0
    0.8358   -0.9799   -2.3176 H   0  0  0  0  0  0  0  0  0  0  0  0
   -3.3119   -0.5718   -6.6209 H   0  0  0  0  0  0  0  0  0  0  0  0
   -2.2370   -1.7349   -5.7623 H   0  0  0  0  0  0  0  0  0  0  0  0
   -1.5855   -0.1426   -6.3266 H   0  0  0  0  0  0  0  0  0  0  0  0
   -0.1717   -0.6144    2.0620 H   0  0  0  0  0  0  0  0  0  0  0  0
   -1.7089   -0.6079    1.1954 H   0  0  0  0  0  0  0  0  0  0  0  0
   -3.1493    1.1568    1.8612 H   0  0  0  0  0  0  0  0  0  0  0  0
   -3.5124    3.4716    2.7015 H   0  0  0  0  0  0  0  0  0  0  0  0
    0.7572    4.1220    2.7126 H   0  0  0  0  0  0  0  0  0  0  0  0
    1.1071    1.8250    1.8586 H   0  0  0  0  0  0  0  0  0  0  0  0
   -1.2504    6.9165    3.9375 H   0  0  0  0  0  0  0  0  0  0  0  0
   -0.1393    6.3131    2.6545 H   0  0  0  0  0  0  0  0  0  0  0  0
   -0.0476    5.6361    4.3306 H   0  0  0  0  0  0  0  0  0  0  0  0
  1 11  1  0  0  0  0
  2  1  2  0  0  0  0
  3  1  1  0  0  0  0
  4  3  1  0  0  0  0
  4 20  1  0  0  0  0
  5  4  2  0  0  0  0
  6  7  2  0  0  0  0
  6  5  1  0  0  0  0
  7  8  1  0  0  0  0
  8 23  1  0  0  0  0
  8  3  2  0  0  0  0
  9  6  1  0  0  0  0
 10 25  1  0  0  0  0
 10  9  1  0  0  0  0
 11 12  1  0  0  0  0
 11 27  1  0  0  0  0
 12 13  2  0  0  0  0
 12 17  1  0  0  0  0
 13 14  1  0  0  0  0
 14 30  1  0  0  0  0
 14 15  2  0  0  0  0
 15 18  1  0  0  0  0
 16 31  1  0  0  0  0
 16 15  1  0  0  0  0
 17 16  2  0  0  0  0
 18 19  1  0  0  0  0
 19 33  1  0  0  0  0
 19 35  1  0  0  0  0
 21  5  1  0  0  0  0
 22  7  1  0  0  0  0
 24 10  1  0  0  0  0
 26 10  1  0  0  0  0
 28 11  1  0  0  0  0
 29 13  1  0  0  0  0
 32 17  1  0  0  0  0
 34 19  1  0  0  0  0
M  END
$$$$
