rmsd156.gzmat
 OpenBabel08211713383D

 35 36  0  0  0  0  0  0  0  0999 V2000
    0.0000    0.0000    0.0000 C   0  0  0  0  0  0  0  0  0  0  0  0
    1.2093    0.0000    0.0000 O   0  0  0  0  0  0  0  0  0  0  0  0
   -0.7608    0.0000   -1.2647 C   0  0  0  0  0  0  0  0  0  0  0  0
   -2.0873    0.4415   -1.3390 C   0  0  0  0  0  0  0  0  0  0  0  0
   -2.7614    0.4362   -2.5482 C   0  0  0  0  0  0  0  0  0  0  0  0
   -2.0893   -0.0210   -3.6966 C   0  0  0  0  0  0  0  0  0  0  0  0
   -0.7632   -0.4543   -3.6467 C   0  0  0  0  0  0  0  0  0  0  0  0
   -0.1052   -0.4334   -2.4205 C   0  0  0  0  0  0  0  0  0  0  0  0
   -2.8663    0.0137   -4.8060 O   0  0  0  0  0  0  0  0  0  0  0  0
   -2.2834   -0.4113   -6.0308 C   0  0  0  0  0  0  0  0  0  0  0  0
   -0.7512   -0.0348    1.3181 C   0  0  0  0  0  0  0  0  0  0  0  0
   -1.2216    1.3334    1.6953 C   0  0  0  0  0  0  0  0  0  0  0  0
   -2.5585    1.5424    2.0542 C   0  0  0  0  0  0  0  0  0  0  0  0
   -2.9993    2.8062    2.4162 C   0  0  0  0  0  0  0  0  0  0  0  0
   -2.0804    3.8679    2.4227 C   0  0  0  0  0  0  0  0  0  0  0  0
   -0.7445    3.6786    2.0719 C   0  0  0  0  0  0  0  0  0  0  0  0
   -0.3238    2.4011    1.7105 C   0  0  0  0  0  0  0  0  0  0  0  0
   -2.6421    5.0475    2.8003 O   0  0  0  0  0  0  0  0  0  0  0  0
   -1.7936    6.1857    2.8450 C   0  0  0  0  0  0  0  0  0  0  0  0
   -2.5940    0.8076   -0.4421 H   0  0  0  0  0  0  0  0  0  0  0  0
   -3.7893    0.7798   -2.6278 H   0  0  0  0  0  0  0  0  0  0  0  0
   -0.2439   -0.7958   -4.5345 H   0  0  0  0  0  0  0  0  0  0  0  0
    0.9389   -0.7566   -2.3558 H   0  0  0  0  0  0  0  0  0  0  0  0
   -3.1206   -0.3022   -6.7346 H   0  0  0  0  0  0  0  0  0  0  0  0
   -1.9663   -1.4572   -5.9740 H   0  0  0  0  0  0  0  0  0  0  0  0
   -1.4554    0.2453   -6.3154 H   0  0  0  0  0  0  0  0  0  0  0  0
   -0.0714   -0.4247    2.1124 H   0  0  0  0  0  0  0  0  0  0  0  0
   -1.5841   -0.7636    1.2639 H   0  0  0  0  0  0  0  0  0  0  0  0
   -3.2603    0.7086    2.0556 H   0  0  0  0  0  0  0  0  0  0  0  0
   -4.0334    2.9889    2.6951 H   0  0  0  0  0  0  0  0  0  0  0  0
   -0.0360    4.4991    2.0763 H   0  0  0  0  0  0  0  0  0  0  0  0
    0.7201    2.2342    1.4336 H   0  0  0  0  0  0  0  0  0  0  0  0
   -2.4845    6.9769    3.1681 H   0  0  0  0  0  0  0  0  0  0  0  0
   -1.3897    6.4115    1.8532 H   0  0  0  0  0  0  0  0  0  0  0  0
   -0.9963    6.0505    3.5825 H   0  0  0  0  0  0  0  0  0  0  0  0
  1 11  1  0  0  0  0
  2  1  2  0  0  0  0
  3  1  1  0  0  0  0
  4  3  1  0  0  0  0
  4 20  1  0  0  0  0
  5  4  2  0  0  0  0
  6  7  2  0  0  0  0
  6  5  1  0  0  0  0
  7  8  1  0  0  0  0
  8 23  1  0  0  0  0
  8  3  2  0  0  0  0
  9  6  1  0  0  0  0
 10 25  1  0  0  0  0
 10  9  1  0  0  0  0
 11 12  1  0  0  0  0
 11 27  1  0  0  0  0
 12 17  2  0  0  0  0
 12 13  1  0  0  0  0
 13 29  1  0  0  0  0
 13 14  2  0  0  0  0
 14 15  1  0  0  0  0
 14 30  1  0  0  0  0
 15 18  1  0  0  0  0
 16 31  1  0  0  0  0
 16 15  2  0  0  0  0
 17 16  1  0  0  0  0
 18 19  1  0  0  0  0
 19 33  1  0  0  0  0
 19 35  1  0  0  0  0
 21  5  1  0  0  0  0
 22  7  1  0  0  0  0
 24 10  1  0  0  0  0
 26 10  1  0  0  0  0
 28 11  1  0  0  0  0
 32 17  1  0  0  0  0
 34 19  1  0  0  0  0
M  END
$$$$
