
     RDKit          3D

 35 36  0  0  0  0  0  0  0  0999 V2000
   -0.0969   -0.4869    0.2717 C   0  0  0  0  0  0  0  0  0  0  0  0
    1.0942   -0.7466    0.2635 O   0  0  0  0  0  0  0  0  0  0  0  0
   -0.8513   -0.2892   -0.9989 C   0  0  0  0  0  0  0  0  0  0  0  0
   -2.2149    0.0597   -1.0483 C   0  0  0  0  0  0  0  0  0  0  0  0
   -2.8624    0.2306   -2.2636 C   0  0  0  0  0  0  0  0  0  0  0  0
   -2.1617    0.0546   -3.4707 C   0  0  0  0  0  0  0  0  0  0  0  0
   -0.7993   -0.2922   -3.4378 C   0  0  0  0  0  0  0  0  0  0  0  0
   -0.1635   -0.4567   -2.2103 C   0  0  0  0  0  0  0  0  0  0  0  0
   -2.8733    0.2397   -4.6038 O   0  0  0  0  0  0  0  0  0  0  0  0
   -2.2354    0.0840   -5.8528 C   0  0  0  0  0  0  0  0  0  0  0  0
   -0.8281   -0.3160    1.6017 C   0  0  0  0  0  0  0  0  0  0  0  0
   -1.0507    1.1475    1.9312 C   0  0  0  0  0  0  0  0  0  0  0  0
   -2.3151    1.6347    2.2988 C   0  0  0  0  0  0  0  0  0  0  0  0
   -2.5132    2.9782    2.6000 C   0  0  0  0  0  0  0  0  0  0  0  0
   -1.4400    3.8815    2.5374 C   0  0  0  0  0  0  0  0  0  0  0  0
   -0.1698    3.4116    2.1722 C   0  0  0  0  0  0  0  0  0  0  0  0
    0.0105    2.0579    1.8739 C   0  0  0  0  0  0  0  0  0  0  0  0
   -1.7232    5.1730    2.8436 O   0  0  0  0  0  0  0  0  0  0  0  0
   -0.6883    6.1267    2.7962 C   0  0  0  0  0  0  0  0  0  0  0  0
   -2.7778    0.2166   -0.1285 H   0  0  0  0  0  0  0  0  0  0  0  0
   -3.9171    0.5059   -2.3138 H   0  0  0  0  0  0  0  0  0  0  0  0
   -0.2338   -0.4331   -4.3584 H   0  0  0  0  0  0  0  0  0  0  0  0
    0.8939   -0.7232   -2.1626 H   0  0  0  0  0  0  0  0  0  0  0  0
   -2.9967    0.2811   -6.6187 H   0  0  0  0  0  0  0  0  0  0  0  0
   -1.8461   -0.9406   -5.9875 H   0  0  0  0  0  0  0  0  0  0  0  0
   -1.4043    0.8003   -5.9787 H   0  0  0  0  0  0  0  0  0  0  0  0
   -0.1884   -0.7899    2.3615 H   0  0  0  0  0  0  0  0  0  0  0  0
   -1.7908   -0.8479    1.5899 H   0  0  0  0  0  0  0  0  0  0  0  0
   -3.1629    0.9459    2.3556 H   0  0  0  0  0  0  0  0  0  0  0  0
   -3.4950    3.3584    2.8878 H   0  0  0  0  0  0  0  0  0  0  0  0
    0.6839    4.0863    2.1151 H   0  0  0  0  0  0  0  0  0  0  0  0
    1.0040    1.7029    1.5888 H   0  0  0  0  0  0  0  0  0  0  0  0
   -1.1353    7.0902    3.0749 H   0  0  0  0  0  0  0  0  0  0  0  0
   -0.2544    6.2126    1.7834 H   0  0  0  0  0  0  0  0  0  0  0  0
    0.1229    5.8890    3.5081 H   0  0  0  0  0  0  0  0  0  0  0  0
  1  2  2  0
  1  3  1  0
  1 11  1  0
  3  4  2  0
  3  8  1  0
  4  5  1  0
  4 20  1  0
  5  6  2  0
  5 21  1  0
  6  7  1  0
  6  9  1  0
  7  8  2  0
  7 22  1  0
  8 23  1  0
  9 10  1  0
 10 24  1  0
 10 25  1  0
 10 26  1  0
 11 12  1  0
 11 27  1  0
 11 28  1  0
 12 13  2  0
 12 17  1  0
 13 14  1  0
 13 29  1  0
 14 15  2  0
 14 30  1  0
 15 16  1  0
 15 18  1  0
 16 17  2  0
 16 31  1  0
 17 32  1  0
 18 19  1  0
 19 33  1  0
 19 34  1  0
 19 35  1  0
M  END

