50

C         -0.01820        0.11120        0.19270
N          1.33740        0.15730        0.17370
C          2.00850        0.14880        1.31510
O          3.33300        0.19450        1.32250
C          4.03220        0.22760        0.07130
C          5.52260        0.22260        0.36340
C          6.32490        0.37130       -0.93790
C          7.83500        0.35980       -0.67790
C          8.26420       -0.89180        0.09510
C          7.46700       -1.04270        1.39490
C          5.95840       -1.03340        1.13250
C          1.30410        0.09060        2.54110
N          1.67630        0.06340        3.87000
C          0.54870        0.00640        4.52730
N         -0.56420       -0.00690        3.69940
H         -1.53780       -0.04610        3.97590
C         -0.09740        0.04660        2.41040
N         -0.79640        0.05450        1.27250
N         -0.57020        0.12890       -1.07150
C         -1.88600        0.10030       -1.51510
C         -2.09000        0.14370       -2.91410
C         -3.36790        0.11970       -3.45080
C         -4.46830        0.04610       -2.58980
C         -4.28990        0.01240       -1.20710
C         -3.00690        0.03760       -0.66370
S         -6.10960        0.01790       -3.27260
O         -7.05230        0.25190       -2.17430
O         -6.12610        0.82760       -4.49350
N         -6.26700       -1.58200       -3.81220
H          3.72950        1.12750       -0.48820
H          3.73630       -0.64710       -0.53200
H          5.73490        1.10230        0.99950
H          6.03370        1.29870       -1.45990
H          6.06600       -0.46400       -1.61540
H          8.38390        0.43170       -1.63140
H          8.10590        1.25750       -0.09290
H          8.09690       -1.78290       -0.53780
H          9.34580       -0.85840        0.30690
H          7.75530       -1.96910        1.91840
H          7.72050       -0.20930        2.07520
H          5.68500       -1.92390        0.53500
H          5.39590       -1.10150        2.07580
H          0.44790       -0.02880        5.61240
H          0.14330        0.17650       -1.78960
H         -1.22460        0.20410       -3.57980
H         -3.52280        0.16820       -4.52960
H         -5.16600       -0.02220       -0.55780
H         -2.85280        0.01490        0.41080
H         -6.76310       -1.56500       -4.70450
H         -6.77100       -2.14030       -3.12250
