50
rmsd41.gzmat
C          0.00000        0.00000        0.00000
N          1.38630        0.00000        0.00000
C          2.03910        0.00000        1.17760
O          3.36520       -0.00120        1.21560
C          4.04990        0.00840       -0.06240
C          5.52500       -0.06490        0.34320
C          5.97120        1.25170        0.99740
C          7.46080        1.18760        1.35660
C          8.30340        0.89920        0.10720
C          7.85580       -0.41300       -0.55010
C          6.36550       -0.36000       -0.91070
C          1.32070       -0.00620        2.39710
N          1.65890       -0.01720        3.74560
C          0.51570       -0.02870        4.42140
N         -0.61550       -0.02360        3.55630
H         -1.57990       -0.03950        3.80660
C         -0.11450       -0.00960        2.26790
N         -0.80150       -0.00250        1.09750
N         -0.53090       -0.01490       -1.27730
C         -1.89690       -0.08160       -1.61310
C         -2.91810        0.41500       -0.79220
C         -4.24010        0.32160       -1.21160
C         -4.55380       -0.26030       -2.44000
C         -3.53410       -0.72580       -3.27140
C         -2.20790       -0.63770       -2.87100
S         -6.22120       -0.40800       -2.93690
O         -6.96760        0.73180       -2.45570
O         -6.25970       -0.82340       -4.32120
N         -6.82040       -1.76180       -2.02150
H          3.78570        0.93480       -0.59920
H          3.72220       -0.86600       -0.65080
H          5.65720       -0.89480        1.08160
H          5.36600        1.44250        1.90580
H          5.78240        2.10370        0.31920
H          7.78090        2.13850        1.81990
H          7.63370        0.40410        2.11820
H          8.20900        1.73410       -0.61150
H          9.37450        0.84520        0.37330
H          8.45790       -0.60850       -1.45600
H          8.04890       -1.26130        0.13300
H          6.19240        0.41740       -1.67810
H          6.05530       -1.31870       -1.36480
H          0.40710       -0.03950        5.49420
H          0.15070       -0.11030       -2.03660
H         -2.68690        0.87040        0.17270
H         -5.02680        0.72170       -0.56070
H         -3.76650       -1.16580       -4.25010
H         -1.41930       -1.01080       -3.51870
H         -7.02590       -2.60040       -2.53830
H         -7.55460       -1.56700       -1.36120
