rmsd41.gzmat
 OpenBabel08211713423D

 50 53  0  0  0  0  0  0  0  0999 V2000
    0.0000    0.0000    0.0000 C   0  0  0  0  0  0  0  0  0  0  0  0
    1.3863    0.0000    0.0000 N   0  0  0  0  0  0  0  0  0  0  0  0
    2.0391    0.0000    1.1776 C   0  0  0  0  0  0  0  0  0  0  0  0
    3.3652   -0.0012    1.2156 O   0  0  0  0  0  0  0  0  0  0  0  0
    4.0499    0.0084   -0.0624 C   0  0  0  0  0  0  0  0  0  0  0  0
    5.5250   -0.0649    0.3432 C   0  0  0  0  0  0  0  0  0  0  0  0
    5.9712    1.2517    0.9974 C   0  0  0  0  0  0  0  0  0  0  0  0
    7.4608    1.1876    1.3566 C   0  0  0  0  0  0  0  0  0  0  0  0
    8.3034    0.8992    0.1072 C   0  0  0  0  0  0  0  0  0  0  0  0
    7.8558   -0.4130   -0.5501 C   0  0  0  0  0  0  0  0  0  0  0  0
    6.3655   -0.3600   -0.9107 C   0  0  0  0  0  0  0  0  0  0  0  0
    1.3207   -0.0062    2.3971 C   0  0  0  0  0  0  0  0  0  0  0  0
    1.6589   -0.0172    3.7456 N   0  0  0  0  0  0  0  0  0  0  0  0
    0.5157   -0.0287    4.4214 C   0  0  0  0  0  0  0  0  0  0  0  0
   -0.6155   -0.0236    3.5563 N   0  0  0  0  0  0  0  0  0  0  0  0
   -1.5799   -0.0395    3.8066 H   0  0  0  0  0  0  0  0  0  0  0  0
   -0.1145   -0.0096    2.2679 C   0  0  0  0  0  0  0  0  0  0  0  0
   -0.8015   -0.0025    1.0975 N   0  0  0  0  0  0  0  0  0  0  0  0
   -0.5309   -0.0149   -1.2773 N   0  0  0  0  0  0  0  0  0  0  0  0
   -1.8969   -0.0816   -1.6131 C   0  0  0  0  0  0  0  0  0  0  0  0
   -2.9181    0.4150   -0.7922 C   0  0  0  0  0  0  0  0  0  0  0  0
   -4.2401    0.3216   -1.2116 C   0  0  0  0  0  0  0  0  0  0  0  0
   -4.5538   -0.2603   -2.4400 C   0  0  0  0  0  0  0  0  0  0  0  0
   -3.5341   -0.7258   -3.2714 C   0  0  0  0  0  0  0  0  0  0  0  0
   -2.2079   -0.6377   -2.8710 C   0  0  0  0  0  0  0  0  0  0  0  0
   -6.2212   -0.4080   -2.9369 S   0  0  0  0  0  0  0  0  0  0  0  0
   -6.9676    0.7318   -2.4557 O   0  0  0  0  0  0  0  0  0  0  0  0
   -6.2597   -0.8234   -4.3212 O   0  0  0  0  0  0  0  0  0  0  0  0
   -6.8204   -1.7618   -2.0215 N   0  0  0  0  0  0  0  0  0  0  0  0
    3.7857    0.9348   -0.5992 H   0  0  0  0  0  0  0  0  0  0  0  0
    3.7222   -0.8660   -0.6508 H   0  0  0  0  0  0  0  0  0  0  0  0
    5.6572   -0.8948    1.0816 H   0  0  0  0  0  0  0  0  0  0  0  0
    5.3660    1.4425    1.9058 H   0  0  0  0  0  0  0  0  0  0  0  0
    5.7824    2.1037    0.3192 H   0  0  0  0  0  0  0  0  0  0  0  0
    7.7809    2.1385    1.8199 H   0  0  0  0  0  0  0  0  0  0  0  0
    7.6337    0.4041    2.1182 H   0  0  0  0  0  0  0  0  0  0  0  0
    8.2090    1.7341   -0.6115 H   0  0  0  0  0  0  0  0  0  0  0  0
    9.3745    0.8452    0.3733 H   0  0  0  0  0  0  0  0  0  0  0  0
    8.4579   -0.6085   -1.4560 H   0  0  0  0  0  0  0  0  0  0  0  0
    8.0489   -1.2613    0.1330 H   0  0  0  0  0  0  0  0  0  0  0  0
    6.1924    0.4174   -1.6781 H   0  0  0  0  0  0  0  0  0  0  0  0
    6.0553   -1.3187   -1.3648 H   0  0  0  0  0  0  0  0  0  0  0  0
    0.4071   -0.0395    5.4942 H   0  0  0  0  0  0  0  0  0  0  0  0
    0.1507   -0.1103   -2.0366 H   0  0  0  0  0  0  0  0  0  0  0  0
   -2.6869    0.8704    0.1727 H   0  0  0  0  0  0  0  0  0  0  0  0
   -5.0268    0.7217   -0.5607 H   0  0  0  0  0  0  0  0  0  0  0  0
   -3.7665   -1.1658   -4.2501 H   0  0  0  0  0  0  0  0  0  0  0  0
   -1.4193   -1.0108   -3.5187 H   0  0  0  0  0  0  0  0  0  0  0  0
   -7.0259   -2.6004   -2.5383 H   0  0  0  0  0  0  0  0  0  0  0  0
   -7.5546   -1.5670   -1.3612 H   0  0  0  0  0  0  0  0  0  0  0  0
  1  2  2  0  0  0  0
  1 18  2  0  0  0  0
  2  3  2  0  0  0  0
  3  4  1  0  0  0  0
  3 12  1  0  0  0  0
  5  6  1  0  0  0  0
  5  4  1  0  0  0  0
  6  7  1  0  0  0  0
  6 32  1  0  0  0  0
  7  8  1  0  0  0  0
  7 33  1  0  0  0  0
  8 35  1  0  0  0  0
  8 36  1  0  0  0  0
  9 38  1  0  0  0  0
  9  8  1  0  0  0  0
 10  9  1  0  0  0  0
 10 40  1  0  0  0  0
 11 10  1  0  0  0  0
 11  6  1  0  0  0  0
 12 13  2  0  0  0  0
 13 14  2  0  0  0  0
 14 43  1  0  0  0  0
 15 16  1  0  0  0  0
 15 14  1  0  0  0  0
 17 12  1  0  0  0  0
 17 15  1  0  0  0  0
 18 17  2  0  0  0  0
 19  1  1  0  0  0  0
 20 19  1  0  0  0  0
 20 21  2  0  0  0  0
 21 45  1  0  0  0  0
 22 21  1  0  0  0  0
 22 46  1  0  0  0  0
 23 22  2  0  0  0  0
 24 25  2  0  0  0  0
 24 23  1  0  0  0  0
 25 20  1  0  0  0  0
 26 27  2  0  0  0  0
 26 23  1  0  0  0  0
 26 29  1  0  0  0  0
 28 26  2  0  0  0  0
 29 50  1  0  0  0  0
 30  5  1  0  0  0  0
 31  5  1  0  0  0  0
 34  7  1  0  0  0  0
 37  9  1  0  0  0  0
 39 10  1  0  0  0  0
 41 11  1  0  0  0  0
 42 11  1  0  0  0  0
 44 19  1  0  0  0  0
 47 24  1  0  0  0  0
 48 25  1  0  0  0  0
 49 29  1  0  0  0  0
M  END
$$$$
