
     RDKit          3D

 50 53  0  0  0  0  0  0  0  0999 V2000
   -0.0273   -0.0876    0.2752 C   0  0  0  0  0  0  0  0  0  0  0  0
    1.3278   -0.1340    0.2331 N   0  0  0  0  0  0  0  0  0  0  0  0
    2.0219   -0.0143    1.3544 C   0  0  0  0  0  0  0  0  0  0  0  0
    3.3466   -0.0574    1.3386 O   0  0  0  0  0  0  0  0  0  0  0  0
    4.0195   -0.2122    0.0822 C   0  0  0  0  0  0  0  0  0  0  0  0
    5.5158   -0.1699    0.3398 C   0  0  0  0  0  0  0  0  0  0  0  0
    5.9591    1.1619    0.9630 C   0  0  0  0  0  0  0  0  0  0  0  0
    7.4729    1.2059    1.1898 C   0  0  0  0  0  0  0  0  0  0  0  0
    8.2432    0.9228   -0.1041 C   0  0  0  0  0  0  0  0  0  0  0  0
    7.8063   -0.4052   -0.7316 C   0  0  0  0  0  0  0  0  0  0  0  0
    6.2911   -0.4509   -0.9560 C   0  0  0  0  0  0  0  0  0  0  0  0
    1.3425    0.1614    2.5832 C   0  0  0  0  0  0  0  0  0  0  0  0
    1.7414    0.3186    3.8952 N   0  0  0  0  0  0  0  0  0  0  0  0
    0.6272    0.4389    4.5666 C   0  0  0  0  0  0  0  0  0  0  0  0
   -0.5023    0.3695    3.7645 N   0  0  0  0  0  0  0  0  0  0  0  0
   -1.4700    0.4387    4.0551 H   0  0  0  0  0  0  0  0  0  0  0  0
   -0.0616    0.1907    2.4775 C   0  0  0  0  0  0  0  0  0  0  0  0
   -0.7835    0.0711    1.3605 N   0  0  0  0  0  0  0  0  0  0  0  0
   -0.6043   -0.2258   -0.9702 N   0  0  0  0  0  0  0  0  0  0  0  0
   -1.9283   -0.2359   -1.3900 C   0  0  0  0  0  0  0  0  0  0  0  0
   -3.0330   -0.0939   -0.5233 C   0  0  0  0  0  0  0  0  0  0  0  0
   -4.3249   -0.1166   -1.0381 C   0  0  0  0  0  0  0  0  0  0  0  0
   -4.5333   -0.2846   -2.4091 C   0  0  0  0  0  0  0  0  0  0  0  0
   -3.4524   -0.4164   -3.2840 C   0  0  0  0  0  0  0  0  0  0  0  0
   -2.1607   -0.3933   -2.7739 C   0  0  0  0  0  0  0  0  0  0  0  0
   -6.1920   -0.3099   -3.0491 S   0  0  0  0  0  0  0  0  0  0  0  0
   -7.0265    0.5723   -2.2294 O   0  0  0  0  0  0  0  0  0  0  0  0
   -6.1061   -0.1656   -4.5058 O   0  0  0  0  0  0  0  0  0  0  0  0
   -6.7212   -1.8776   -2.6796 N   0  0  0  0  0  0  0  0  0  0  0  0
    3.7044    0.5954   -0.5994 H   0  0  0  0  0  0  0  0  0  0  0  0
    3.7120   -1.1657   -0.3772 H   0  0  0  0  0  0  0  0  0  0  0  0
    5.7476   -0.9770    1.0597 H   0  0  0  0  0  0  0  0  0  0  0  0
    5.4162    1.3262    1.9061 H   0  0  0  0  0  0  0  0  0  0  0  0
    5.6669    1.9833    0.2814 H   0  0  0  0  0  0  0  0  0  0  0  0
    7.7658    2.1836    1.6065 H   0  0  0  0  0  0  0  0  0  0  0  0
    7.7467    0.4499    1.9483 H   0  0  0  0  0  0  0  0  0  0  0  0
    8.0560    1.7414   -0.8234 H   0  0  0  0  0  0  0  0  0  0  0  0
    9.3292    0.9169    0.0861 H   0  0  0  0  0  0  0  0  0  0  0  0
    8.3354   -0.5747   -1.6839 H   0  0  0  0  0  0  0  0  0  0  0  0
    8.0954   -1.2351   -0.0614 H   0  0  0  0  0  0  0  0  0  0  0  0
    6.0123    0.3075   -1.7116 H   0  0  0  0  0  0  0  0  0  0  0  0
    5.9951   -1.4293   -1.3713 H   0  0  0  0  0  0  0  0  0  0  0  0
    0.5485    0.5806    5.6449 H   0  0  0  0  0  0  0  0  0  0  0  0
    0.0953   -0.3352   -1.6952 H   0  0  0  0  0  0  0  0  0  0  0  0
   -2.8548    0.0381    0.5396 H   0  0  0  0  0  0  0  0  0  0  0  0
   -5.1827    0.0075   -0.3750 H   0  0  0  0  0  0  0  0  0  0  0  0
   -3.6346   -0.5227   -4.3541 H   0  0  0  0  0  0  0  0  0  0  0  0
   -1.3095   -0.4918   -3.4531 H   0  0  0  0  0  0  0  0  0  0  0  0
   -6.6470   -2.4786   -3.5007 H   0  0  0  0  0  0  0  0  0  0  0  0
   -7.6868   -1.8160   -2.3539 H   0  0  0  0  0  0  0  0  0  0  0  0
  1  2  2  0
  1 18  1  0
  1 19  1  0
  2  3  1  0
  3  4  1  0
  3 12  2  0
  4  5  1  0
  5  6  1  0
  5 30  1  0
  5 31  1  0
  6  7  1  0
  6 11  1  0
  6 32  1  0
  7  8  1  0
  7 33  1  0
  7 34  1  0
  8  9  1  0
  8 35  1  0
  8 36  1  0
  9 10  1  0
  9 37  1  0
  9 38  1  0
 10 11  1  0
 10 39  1  0
 10 40  1  0
 11 41  1  0
 11 42  1  0
 12 13  1  0
 12 17  1  0
 13 14  2  0
 14 15  1  0
 14 43  1  0
 15 16  1  0
 15 17  1  0
 17 18  2  0
 19 20  1  0
 19 44  1  0
 20 21  2  0
 20 25  1  0
 21 22  1  0
 21 45  1  0
 22 23  2  0
 22 46  1  0
 23 24  1  0
 23 26  1  0
 24 25  2  0
 24 47  1  0
 25 48  1  0
 26 27  2  0
 26 28  2  0
 26 29  1  0
 29 49  1  0
 29 50  1  0
M  END

