rmsd108.gzmat
 OpenBabel08211713423D

 50 53  0  0  0  0  0  0  0  0999 V2000
    0.0000    0.0000    0.0000 C   0  0  0  0  0  0  0  0  0  0  0  0
    1.3872    0.0000    0.0000 N   0  0  0  0  0  0  0  0  0  0  0  0
    2.0386    0.0000    1.1780 C   0  0  0  0  0  0  0  0  0  0  0  0
    3.3638    0.0165    1.2250 O   0  0  0  0  0  0  0  0  0  0  0  0
    4.0648    0.0791   -0.0413 C   0  0  0  0  0  0  0  0  0  0  0  0
    5.5205    0.2847    0.3927 C   0  0  0  0  0  0  0  0  0  0  0  0
    5.6886    1.6602    1.0582 C   0  0  0  0  0  0  0  0  0  0  0  0
    7.1555    1.9005    1.4352 C   0  0  0  0  0  0  0  0  0  0  0  0
    8.0624    1.7737    0.2042 C   0  0  0  0  0  0  0  0  0  0  0  0
    7.8918    0.3946   -0.4461 C   0  0  0  0  0  0  0  0  0  0  0  0
    6.4275    0.1648   -0.8429 C   0  0  0  0  0  0  0  0  0  0  0  0
    1.3195   -0.0119    2.3974 C   0  0  0  0  0  0  0  0  0  0  0  0
    1.6587   -0.0226    3.7456 N   0  0  0  0  0  0  0  0  0  0  0  0
    0.5153   -0.0302    4.4218 C   0  0  0  0  0  0  0  0  0  0  0  0
   -0.6160   -0.0212    3.5570 N   0  0  0  0  0  0  0  0  0  0  0  0
   -1.5806   -0.0352    3.8083 H   0  0  0  0  0  0  0  0  0  0  0  0
   -0.1154   -0.0117    2.2683 C   0  0  0  0  0  0  0  0  0  0  0  0
   -0.8012   -0.0008    1.0968 N   0  0  0  0  0  0  0  0  0  0  0  0
   -0.5280   -0.0165   -1.2791 N   0  0  0  0  0  0  0  0  0  0  0  0
   -1.8884    0.0014   -1.6374 C   0  0  0  0  0  0  0  0  0  0  0  0
   -2.9126    0.4670   -0.8022 C   0  0  0  0  0  0  0  0  0  0  0  0
   -4.2228    0.4843   -1.2671 C   0  0  0  0  0  0  0  0  0  0  0  0
   -4.5244    0.0504   -2.5581 C   0  0  0  0  0  0  0  0  0  0  0  0
   -3.5057   -0.4204   -3.3881 C   0  0  0  0  0  0  0  0  0  0  0  0
   -2.1921   -0.4452   -2.9413 C   0  0  0  0  0  0  0  0  0  0  0  0
   -6.1745    0.0785   -3.1282 S   0  0  0  0  0  0  0  0  0  0  0  0
   -6.3101   -0.8629   -4.2167 O   0  0  0  0  0  0  0  0  0  0  0  0
   -7.0686    0.0774   -1.9924 O   0  0  0  0  0  0  0  0  0  0  0  0
   -6.3601    1.6508   -3.8523 N   0  0  0  0  0  0  0  0  0  0  0  0
    3.6690    0.9140   -0.6440 H   0  0  0  0  0  0  0  0  0  0  0  0
    3.8978   -0.8724   -0.5733 H   0  0  0  0  0  0  0  0  0  0  0  0
    5.7965   -0.5076    1.1319 H   0  0  0  0  0  0  0  0  0  0  0  0
    5.0503    1.7177    1.9632 H   0  0  0  0  0  0  0  0  0  0  0  0
    5.3363    2.4601    0.3821 H   0  0  0  0  0  0  0  0  0  0  0  0
    7.2697    2.9020    1.8886 H   0  0  0  0  0  0  0  0  0  0  0  0
    7.4698    1.1775    2.2111 H   0  0  0  0  0  0  0  0  0  0  0  0
    7.8235    2.5693   -0.5255 H   0  0  0  0  0  0  0  0  0  0  0  0
    9.1180    1.9315    0.4901 H   0  0  0  0  0  0  0  0  0  0  0  0
    8.5426    0.3088   -1.3347 H   0  0  0  0  0  0  0  0  0  0  0  0
    8.2244   -0.3955    0.2530 H   0  0  0  0  0  0  0  0  0  0  0  0
    6.1285    0.9036   -1.6098 H   0  0  0  0  0  0  0  0  0  0  0  0
    6.3149   -0.8294   -1.3121 H   0  0  0  0  0  0  0  0  0  0  0  0
    0.4075   -0.0410    5.4947 H   0  0  0  0  0  0  0  0  0  0  0  0
    0.1588   -0.1170   -2.0342 H   0  0  0  0  0  0  0  0  0  0  0  0
   -2.6965    0.8120    0.2110 H   0  0  0  0  0  0  0  0  0  0  0  0
   -5.0149    0.8383   -0.5946 H   0  0  0  0  0  0  0  0  0  0  0  0
   -3.7304   -0.7877   -4.3974 H   0  0  0  0  0  0  0  0  0  0  0  0
   -1.4068   -0.8213   -3.5911 H   0  0  0  0  0  0  0  0  0  0  0  0
   -7.0105    2.2745   -3.4043 H   0  0  0  0  0  0  0  0  0  0  0  0
   -6.4820    1.6751   -4.8509 H   0  0  0  0  0  0  0  0  0  0  0  0
  1 18  2  0  0  0  0
  2  1  2  0  0  0  0
  2  3  2  0  0  0  0
  3  4  1  0  0  0  0
  3 12  1  0  0  0  0
  5  6  1  0  0  0  0
  5  4  1  0  0  0  0
  6  7  1  0  0  0  0
  6 32  1  0  0  0  0
  7  8  1  0  0  0  0
  7 33  1  0  0  0  0
  8 35  1  0  0  0  0
  8 36  1  0  0  0  0
  9 38  1  0  0  0  0
  9  8  1  0  0  0  0
 10  9  1  0  0  0  0
 10 40  1  0  0  0  0
 11 10  1  0  0  0  0
 11  6  1  0  0  0  0
 12 13  2  0  0  0  0
 13 14  2  0  0  0  0
 14 43  1  0  0  0  0
 15 16  1  0  0  0  0
 15 14  1  0  0  0  0
 17 12  1  0  0  0  0
 17 15  1  0  0  0  0
 18 17  2  0  0  0  0
 19  1  1  0  0  0  0
 20 19  1  0  0  0  0
 20 21  2  0  0  0  0
 21 45  1  0  0  0  0
 22 21  1  0  0  0  0
 22 46  1  0  0  0  0
 23 22  2  0  0  0  0
 24 25  2  0  0  0  0
 24 23  1  0  0  0  0
 25 20  1  0  0  0  0
 26 23  1  0  0  0  0
 26 28  2  0  0  0  0
 27 26  2  0  0  0  0
 29 49  1  0  0  0  0
 29 26  1  0  0  0  0
 30  5  1  0  0  0  0
 31  5  1  0  0  0  0
 34  7  1  0  0  0  0
 37  9  1  0  0  0  0
 39 10  1  0  0  0  0
 41 11  1  0  0  0  0
 42 11  1  0  0  0  0
 44 19  1  0  0  0  0
 47 24  1  0  0  0  0
 48 25  1  0  0  0  0
 50 29  1  0  0  0  0
M  END
$$$$
