50

C          0.02300       -0.04530        0.03950
N          1.36710        0.00680        0.07270
C          1.99530        0.01360        1.24380
O          3.31880        0.06340        1.29310
C          4.05780        0.07380        0.06420
C          5.53910        0.06350        0.39910
C          6.37640        0.18230       -0.88320
C          7.87910        0.16140       -0.58370
C          8.27570       -1.08020        0.22240
C          7.44390       -1.20000        1.50350
C          5.94270       -1.18230        1.20150
C          1.24790       -0.03320        2.43920
N          1.56870       -0.04530        3.78290
C          0.41760       -0.10200        4.39620
N         -0.66460       -0.12890        3.52800
H         -1.64730       -0.17390        3.76830
C         -0.15130       -0.08580        2.25520
N         -0.80220       -0.09360        1.09490
N         -0.62280       -0.05290       -1.18050
C         -0.15980       -0.01380       -2.48930
C         -1.13670       -0.04900       -3.51210
C         -0.77400       -0.01410       -4.84970
C          0.58120        0.06240       -5.18820
C          1.56150        0.08830       -4.19650
C          1.20080        0.05210       -2.85120
S          1.05250        0.10520       -6.90160
O          2.49770       -0.13190       -6.97110
O          0.09810       -0.69490       -7.67330
N          0.72820        1.71000       -7.34340
H          3.78100        0.96910       -0.51620
H          3.77800       -0.80970       -0.53380
H          5.74110        0.95280        1.02500
H          6.10790        1.10300       -1.42870
H          6.12720       -0.66200       -1.55300
H          8.45260        0.21060       -1.52380
H          8.14360        1.06690       -0.00790
H          8.11600       -1.98080       -0.39870
H          9.35170       -1.05300        0.46160
H          7.70950       -2.11930        2.05080
H          7.68740       -0.35660        2.17520
H          5.67700       -2.08090        0.61280
H          5.35520       -1.22870        2.13090
H          0.27630       -0.12760        5.47720
H         -1.62920       -0.09860       -1.06670
H         -2.19390       -0.11190       -3.24030
H         -1.52990       -0.05620       -5.63530
H          2.61250        0.12560       -4.48680
H          1.95410        0.06920       -2.07070
H          0.33050        1.70240       -8.28380
H          1.58330        2.26590       -7.31100
