rmsd67.gzmat
 OpenBabel08211713423D

 50 53  0  0  0  0  0  0  0  0999 V2000
    0.0000    0.0000    0.0000 C   0  0  0  0  0  0  0  0  0  0  0  0
    1.3881    0.0000    0.0000 N   0  0  0  0  0  0  0  0  0  0  0  0
    2.0398    0.0000    1.1777 C   0  0  0  0  0  0  0  0  0  0  0  0
    3.3646    0.0147    1.2282 O   0  0  0  0  0  0  0  0  0  0  0  0
    4.0752    0.0510   -0.0342 C   0  0  0  0  0  0  0  0  0  0  0  0
    5.5361    0.1407    0.4199 C   0  0  0  0  0  0  0  0  0  0  0  0
    6.4090    0.5859   -0.7643 C   0  0  0  0  0  0  0  0  0  0  0  0
    7.8775    0.6730   -0.3278 C   0  0  0  0  0  0  0  0  0  0  0  0
    8.3622   -0.6789    0.2125 C   0  0  0  0  0  0  0  0  0  0  0  0
    7.4853   -1.1334    1.3867 C   0  0  0  0  0  0  0  0  0  0  0  0
    6.0139   -1.2157    0.9615 C   0  0  0  0  0  0  0  0  0  0  0  0
    1.3215   -0.0098    2.3982 C   0  0  0  0  0  0  0  0  0  0  0  0
    1.6607   -0.0135    3.7464 N   0  0  0  0  0  0  0  0  0  0  0  0
    0.5172   -0.0163    4.4226 C   0  0  0  0  0  0  0  0  0  0  0  0
   -0.6138   -0.0140    3.5576 N   0  0  0  0  0  0  0  0  0  0  0  0
   -1.5785   -0.0207    3.8076 H   0  0  0  0  0  0  0  0  0  0  0  0
   -0.1126   -0.0106    2.2693 C   0  0  0  0  0  0  0  0  0  0  0  0
   -0.7984   -0.0049    1.0980 N   0  0  0  0  0  0  0  0  0  0  0  0
   -0.5256   -0.0043   -1.2809 N   0  0  0  0  0  0  0  0  0  0  0  0
   -1.8776    0.0323   -1.6622 C   0  0  0  0  0  0  0  0  0  0  0  0
   -2.1265   -0.1378   -3.0428 C   0  0  0  0  0  0  0  0  0  0  0  0
   -3.4287   -0.0996   -3.5192 C   0  0  0  0  0  0  0  0  0  0  0  0
   -4.4947    0.1051   -2.6415 C   0  0  0  0  0  0  0  0  0  0  0  0
   -4.2472    0.2806   -1.2802 C   0  0  0  0  0  0  0  0  0  0  0  0
   -2.9489    0.2457   -0.7845 C   0  0  0  0  0  0  0  0  0  0  0  0
   -6.1300    0.1599   -3.2481 S   0  0  0  0  0  0  0  0  0  0  0  0
   -6.9509    0.9160   -2.3294 O   0  0  0  0  0  0  0  0  0  0  0  0
   -6.0956    0.4457   -4.6648 O   0  0  0  0  0  0  0  0  0  0  0  0
   -6.6994   -1.4804   -3.1226 N   0  0  0  0  0  0  0  0  0  0  0  0
    3.7435    0.9336   -0.6072 H   0  0  0  0  0  0  0  0  0  0  0  0
    3.8427   -0.8655   -0.6002 H   0  0  0  0  0  0  0  0  0  0  0  0
    5.6111    0.9007    1.2389 H   0  0  0  0  0  0  0  0  0  0  0  0
    6.0714    1.5654   -1.1494 H   0  0  0  0  0  0  0  0  0  0  0  0
    6.3080   -0.1281   -1.6028 H   0  0  0  0  0  0  0  0  0  0  0  0
    8.5072    0.9917   -1.1777 H   0  0  0  0  0  0  0  0  0  0  0  0
    7.9971    1.4518    0.4494 H   0  0  0  0  0  0  0  0  0  0  0  0
    8.3396   -1.4387   -0.5899 H   0  0  0  0  0  0  0  0  0  0  0  0
    9.4178   -0.6036    0.5301 H   0  0  0  0  0  0  0  0  0  0  0  0
    7.8277   -2.1164    1.7579 H   0  0  0  0  0  0  0  0  0  0  0  0
    7.5966   -0.4325    2.2353 H   0  0  0  0  0  0  0  0  0  0  0  0
    5.8852   -2.0026    0.1963 H   0  0  0  0  0  0  0  0  0  0  0  0
    5.3844   -1.5168    1.8221 H   0  0  0  0  0  0  0  0  0  0  0  0
    0.4090   -0.0178    5.4956 H   0  0  0  0  0  0  0  0  0  0  0  0
    0.1726   -0.0463   -2.0333 H   0  0  0  0  0  0  0  0  0  0  0  0
   -1.3043   -0.3004   -3.7338 H   0  0  0  0  0  0  0  0  0  0  0  0
   -3.6058   -0.2239   -4.5952 H   0  0  0  0  0  0  0  0  0  0  0  0
   -5.0722    0.4607   -0.5788 H   0  0  0  0  0  0  0  0  0  0  0  0
   -2.7838    0.3898    0.2857 H   0  0  0  0  0  0  0  0  0  0  0  0
   -6.8800   -1.9598   -3.9884 H   0  0  0  0  0  0  0  0  0  0  0  0
   -7.4461   -1.6451   -2.4684 H   0  0  0  0  0  0  0  0  0  0  0  0
  1 18  2  0  0  0  0
  2  1  2  0  0  0  0
  2  3  2  0  0  0  0
  3  4  1  0  0  0  0
  3 12  1  0  0  0  0
  5  6  1  0  0  0  0
  5  4  1  0  0  0  0
  6 11  1  0  0  0  0
  6 32  1  0  0  0  0
  7  8  1  0  0  0  0
  7  6  1  0  0  0  0
  8  9  1  0  0  0  0
  8 36  1  0  0  0  0
  9 38  1  0  0  0  0
  9 10  1  0  0  0  0
 10 39  1  0  0  0  0
 10 40  1  0  0  0  0
 11 10  1  0  0  0  0
 11 42  1  0  0  0  0
 12 13  2  0  0  0  0
 13 14  2  0  0  0  0
 14 43  1  0  0  0  0
 15 16  1  0  0  0  0
 15 14  1  0  0  0  0
 17 12  1  0  0  0  0
 17 15  1  0  0  0  0
 18 17  2  0  0  0  0
 19  1  1  0  0  0  0
 20 19  1  0  0  0  0
 20 25  2  0  0  0  0
 21 20  1  0  0  0  0
 22 21  2  0  0  0  0
 22 23  1  0  0  0  0
 23 24  2  0  0  0  0
 24 25  1  0  0  0  0
 24 47  1  0  0  0  0
 25 48  1  0  0  0  0
 26 29  1  0  0  0  0
 26 23  1  0  0  0  0
 26 27  2  0  0  0  0
 28 26  2  0  0  0  0
 29 50  1  0  0  0  0
 30  5  1  0  0  0  0
 31  5  1  0  0  0  0
 33  7  1  0  0  0  0
 34  7  1  0  0  0  0
 35  8  1  0  0  0  0
 37  9  1  0  0  0  0
 41 11  1  0  0  0  0
 44 19  1  0  0  0  0
 45 21  1  0  0  0  0
 46 22  1  0  0  0  0
 49 29  1  0  0  0  0
M  END
$$$$
