50
rmsd109.gzmat
C          0.00000        0.00000        0.00000
N          1.38760        0.00000        0.00000
C          2.04120        0.00000        1.17570
O          3.36660        0.03690        1.23390
C          4.10880       -0.01690        0.00090
C          4.20510       -1.46780       -0.47490
C          4.84440       -2.34480        0.61290
C          4.95840       -3.79330        0.12380
C          5.77980       -3.85980       -1.17060
C          5.15290       -2.97300       -2.25500
C          5.03770       -1.52270       -1.76690
C          1.32210       -0.01470        2.39620
N          1.66200       -0.03150        3.74410
C          0.51910       -0.04110        4.42140
N         -0.61280       -0.02930        3.55740
H         -1.57740       -0.03850        3.80880
C         -0.11270       -0.01460        2.26860
N         -0.79940       -0.00400        1.09760
N         -0.52340       -0.01520       -1.28180
C         -1.87140        0.08890       -1.66360
C         -2.13820       -0.12710       -3.03390
C         -3.43560       -0.00670       -3.51040
C         -4.47690        0.33110       -2.64440
C         -4.21480        0.52550       -1.28840
C         -2.92150        0.40840       -0.79280
S         -6.10250        0.50500       -3.25400
O         -6.24590       -0.29060       -4.45230
O         -7.03370        0.41170       -2.15210
N         -6.18730        2.15980       -3.78850
H          5.07880        0.39270        0.34270
H          3.66090        0.65070       -0.75470
H          3.17540       -1.84880       -0.68880
H          4.24160       -2.29920        1.54100
H          5.84250       -1.95560        0.88340
H          5.42450       -4.42210        0.90380
H          3.95030       -4.21640       -0.04450
H          6.81860       -3.53540       -0.97570
H          5.84720       -4.90380       -1.52510
H          5.75940       -3.01600       -3.17740
H          4.15330       -3.35990       -2.52790
H          6.04610       -1.10550       -1.59090
H          4.57330       -0.89650       -2.55020
H          0.41220       -0.05450        5.49440
H          0.17370       -0.09170       -2.03210
H         -1.33610       -0.39400       -3.71580
H         -3.62950       -0.18950       -4.57450
H         -5.02480        0.76950       -0.58840
H         -2.74400        0.56680        0.27340
H         -6.80250        2.76700       -3.27310
H         -6.29830        2.30700       -4.77740
