rmsd113.gzmat
 OpenBabel08211713423D

 50 53  0  0  0  0  0  0  0  0999 V2000
    0.0000    0.0000    0.0000 C   0  0  0  0  0  0  0  0  0  0  0  0
    1.3881    0.0000    0.0000 N   0  0  0  0  0  0  0  0  0  0  0  0
    2.0417    0.0000    1.1753 C   0  0  0  0  0  0  0  0  0  0  0  0
    3.3675    0.0160    1.2348 O   0  0  0  0  0  0  0  0  0  0  0  0
    4.1128   -0.0999    0.0085 C   0  0  0  0  0  0  0  0  0  0  0  0
    4.1177   -1.5555   -0.4636 C   0  0  0  0  0  0  0  0  0  0  0  0
    4.5375   -2.4917    0.6796 C   0  0  0  0  0  0  0  0  0  0  0  0
    4.5611   -3.9452    0.1917 C   0  0  0  0  0  0  0  0  0  0  0  0
    5.5085   -4.0983   -1.0054 C   0  0  0  0  0  0  0  0  0  0  0  0
    5.0934   -3.1542   -2.1418 C   0  0  0  0  0  0  0  0  0  0  0  0
    5.0802   -1.6993   -1.6538 C   0  0  0  0  0  0  0  0  0  0  0  0
    1.3231    0.0013    2.3963 C   0  0  0  0  0  0  0  0  0  0  0  0
    1.6634   -0.0043    3.7442 N   0  0  0  0  0  0  0  0  0  0  0  0
    0.5206   -0.0048    4.4216 C   0  0  0  0  0  0  0  0  0  0  0  0
   -0.6111    0.0007    3.5575 N   0  0  0  0  0  0  0  0  0  0  0  0
   -1.5753   -0.0019    3.8092 H   0  0  0  0  0  0  0  0  0  0  0  0
   -0.1112    0.0033    2.2687 C   0  0  0  0  0  0  0  0  0  0  0  0
   -0.7984    0.0021    1.0977 N   0  0  0  0  0  0  0  0  0  0  0  0
   -0.5185   -0.0123   -1.2839 N   0  0  0  0  0  0  0  0  0  0  0  0
   -1.8648    0.0508   -1.6790 C   0  0  0  0  0  0  0  0  0  0  0  0
   -2.9569    0.0707   -0.8018 C   0  0  0  0  0  0  0  0  0  0  0  0
   -4.2483    0.1408   -1.3120 C   0  0  0  0  0  0  0  0  0  0  0  0
   -4.4684    0.1914   -2.6882 C   0  0  0  0  0  0  0  0  0  0  0  0
   -3.3826    0.1557   -3.5650 C   0  0  0  0  0  0  0  0  0  0  0  0
   -2.0872    0.0871   -3.0742 C   0  0  0  0  0  0  0  0  0  0  0  0
   -6.0957    0.2813   -3.3112 S   0  0  0  0  0  0  0  0  0  0  0  0
   -6.1211   -0.2698   -4.6471 O   0  0  0  0  0  0  0  0  0  0  0  0
   -7.0169   -0.1474   -2.2828 O   0  0  0  0  0  0  0  0  0  0  0  0
   -6.3941    1.9838   -3.5178 N   0  0  0  0  0  0  0  0  0  0  0  0
    5.1044    0.2465    0.3580 H   0  0  0  0  0  0  0  0  0  0  0  0
    3.7146    0.5917   -0.7533 H   0  0  0  0  0  0  0  0  0  0  0  0
    3.0860   -1.8319   -0.7958 H   0  0  0  0  0  0  0  0  0  0  0  0
    3.8392   -2.3875    1.5327 H   0  0  0  0  0  0  0  0  0  0  0  0
    5.5307   -2.2043    1.0687 H   0  0  0  0  0  0  0  0  0  0  0  0
    4.8742   -4.6151    1.0127 H   0  0  0  0  0  0  0  0  0  0  0  0
    3.5408   -4.2654   -0.0915 H   0  0  0  0  0  0  0  0  0  0  0  0
    6.5473   -3.8814   -0.6952 H   0  0  0  0  0  0  0  0  0  0  0  0
    5.5078   -5.1447   -1.3599 H   0  0  0  0  0  0  0  0  0  0  0  0
    5.7832   -3.2617   -2.9976 H   0  0  0  0  0  0  0  0  0  0  0  0
    4.0918   -3.4356   -2.5180 H   0  0  0  0  0  0  0  0  0  0  0  0
    6.1014   -1.3949   -1.3609 H   0  0  0  0  0  0  0  0  0  0  0  0
    4.7785   -1.0272   -2.4764 H   0  0  0  0  0  0  0  0  0  0  0  0
    0.4135   -0.0086    5.4946 H   0  0  0  0  0  0  0  0  0  0  0  0
    0.1882   -0.0268   -2.0303 H   0  0  0  0  0  0  0  0  0  0  0  0
   -2.8145    0.0291    0.2807 H   0  0  0  0  0  0  0  0  0  0  0  0
   -5.0913    0.1466   -0.6082 H   0  0  0  0  0  0  0  0  0  0  0  0
   -3.5390    0.1727   -4.6508 H   0  0  0  0  0  0  0  0  0  0  0  0
   -1.2499    0.0607   -3.7658 H   0  0  0  0  0  0  0  0  0  0  0  0
   -7.0952    2.3925   -2.9232 H   0  0  0  0  0  0  0  0  0  0  0  0
   -6.5067    2.3062   -4.4642 H   0  0  0  0  0  0  0  0  0  0  0  0
  1  2  2  0  0  0  0
  1 18  2  0  0  0  0
  2  3  2  0  0  0  0
  3  4  1  0  0  0  0
  3 12  1  0  0  0  0
  5 30  1  0  0  0  0
  5  4  1  0  0  0  0
  6  5  1  0  0  0  0
  6  7  1  0  0  0  0
  7 34  1  0  0  0  0
  7 33  1  0  0  0  0
  8  7  1  0  0  0  0
  8 35  1  0  0  0  0
  9 37  1  0  0  0  0
  9  8  1  0  0  0  0
 10 11  1  0  0  0  0
 10  9  1  0  0  0  0
 11 41  1  0  0  0  0
 11  6  1  0  0  0  0
 12 13  2  0  0  0  0
 13 14  2  0  0  0  0
 14 43  1  0  0  0  0
 15 16  1  0  0  0  0
 15 14  1  0  0  0  0
 17 12  1  0  0  0  0
 17 15  1  0  0  0  0
 18 17  2  0  0  0  0
 19  1  1  0  0  0  0
 20 19  1  0  0  0  0
 20 21  2  0  0  0  0
 21 45  1  0  0  0  0
 22 21  1  0  0  0  0
 22 46  1  0  0  0  0
 23 22  2  0  0  0  0
 24 25  2  0  0  0  0
 24 23  1  0  0  0  0
 25 20  1  0  0  0  0
 26 23  1  0  0  0  0
 26 28  2  0  0  0  0
 27 26  2  0  0  0  0
 29 26  1  0  0  0  0
 29 49  1  0  0  0  0
 31  5  1  0  0  0  0
 32  6  1  0  0  0  0
 36  8  1  0  0  0  0
 38  9  1  0  0  0  0
 39 10  1  0  0  0  0
 40 10  1  0  0  0  0
 42 11  1  0  0  0  0
 44 19  1  0  0  0  0
 47 24  1  0  0  0  0
 48 25  1  0  0  0  0
 50 29  1  0  0  0  0
M  END
$$$$
