
     RDKit          3D

 50 53  0  0  0  0  0  0  0  0999 V2000
   -0.0113    0.0209    0.1271 C   0  0  0  0  0  0  0  0  0  0  0  0
    1.3440   -0.0059    0.1038 N   0  0  0  0  0  0  0  0  0  0  0  0
    2.0225    0.0371    1.2408 C   0  0  0  0  0  0  0  0  0  0  0  0
    3.3494    0.0220    1.2490 O   0  0  0  0  0  0  0  0  0  0  0  0
    4.0570   -0.1141    0.0072 C   0  0  0  0  0  0  0  0  0  0  0  0
    4.1379   -1.5644   -0.4561 C   0  0  0  0  0  0  0  0  0  0  0  0
    4.7772   -2.4775    0.5994 C   0  0  0  0  0  0  0  0  0  0  0  0
    4.8736   -3.9251    0.1092 C   0  0  0  0  0  0  0  0  0  0  0  0
    5.6274   -4.0166   -1.2218 C   0  0  0  0  0  0  0  0  0  0  0  0
    4.9995   -3.1043   -2.2810 C   0  0  0  0  0  0  0  0  0  0  0  0
    4.8960   -1.6568   -1.7884 C   0  0  0  0  0  0  0  0  0  0  0  0
    1.3214    0.1064    2.4678 C   0  0  0  0  0  0  0  0  0  0  0  0
    1.6983    0.1573    3.7948 N   0  0  0  0  0  0  0  0  0  0  0  0
    0.5730    0.2062    4.4561 C   0  0  0  0  0  0  0  0  0  0  0  0
   -0.5437    0.1894    3.6331 N   0  0  0  0  0  0  0  0  0  0  0  0
   -1.5165    0.2210    3.9130 H   0  0  0  0  0  0  0  0  0  0  0  0
   -0.0816    0.1244    2.3431 C   0  0  0  0  0  0  0  0  0  0  0  0
   -0.7858    0.0836    1.2093 N   0  0  0  0  0  0  0  0  0  0  0  0
   -0.5687   -0.0283   -1.1340 N   0  0  0  0  0  0  0  0  0  0  0  0
   -1.8870   -0.0266   -1.5717 C   0  0  0  0  0  0  0  0  0  0  0  0
   -2.0961   -0.0789   -2.9696 C   0  0  0  0  0  0  0  0  0  0  0  0
   -3.3767   -0.0824   -3.5006 C   0  0  0  0  0  0  0  0  0  0  0  0
   -4.4746   -0.0385   -2.6347 C   0  0  0  0  0  0  0  0  0  0  0  0
   -4.2905    0.0239   -1.2537 C   0  0  0  0  0  0  0  0  0  0  0  0
   -3.0048    0.0287   -0.7160 C   0  0  0  0  0  0  0  0  0  0  0  0
   -6.1191   -0.0406   -3.3104 S   0  0  0  0  0  0  0  0  0  0  0  0
   -7.0432    0.3258   -2.2328 O   0  0  0  0  0  0  0  0  0  0  0  0
   -6.1024    0.6691   -4.5921 O   0  0  0  0  0  0  0  0  0  0  0  0
   -6.3578   -1.6688   -3.7201 N   0  0  0  0  0  0  0  0  0  0  0  0
    5.0614    0.2804    0.2209 H   0  0  0  0  0  0  0  0  0  0  0  0
    3.5761    0.5122   -0.7576 H   0  0  0  0  0  0  0  0  0  0  0  0
    3.1039   -1.9099   -0.6338 H   0  0  0  0  0  0  0  0  0  0  0  0
    4.2071   -2.4191    1.5394 H   0  0  0  0  0  0  0  0  0  0  0  0
    5.7919   -2.0996    0.8272 H   0  0  0  0  0  0  0  0  0  0  0  0
    5.3621   -4.5531    0.8722 H   0  0  0  0  0  0  0  0  0  0  0  0
    3.8539   -4.3312   -0.0224 H   0  0  0  0  0  0  0  0  0  0  0  0
    6.6792   -3.7154   -1.0628 H   0  0  0  0  0  0  0  0  0  0  0  0
    5.6523   -5.0588   -1.5809 H   0  0  0  0  0  0  0  0  0  0  0  0
    5.5789   -3.1457   -3.2181 H   0  0  0  0  0  0  0  0  0  0  0  0
    3.9866   -3.4745   -2.5230 H   0  0  0  0  0  0  0  0  0  0  0  0
    5.9137   -1.2444   -1.6528 H   0  0  0  0  0  0  0  0  0  0  0  0
    4.4031   -1.0282   -2.5497 H   0  0  0  0  0  0  0  0  0  0  0  0
    0.4763    0.2554    5.5411 H   0  0  0  0  0  0  0  0  0  0  0  0
    0.1417   -0.0690   -1.8555 H   0  0  0  0  0  0  0  0  0  0  0  0
   -1.2325   -0.1100   -3.6396 H   0  0  0  0  0  0  0  0  0  0  0  0
   -3.5349   -0.1079   -4.5797 H   0  0  0  0  0  0  0  0  0  0  0  0
   -5.1637    0.0804   -0.6020 H   0  0  0  0  0  0  0  0  0  0  0  0
   -2.8462    0.0799    0.3569 H   0  0  0  0  0  0  0  0  0  0  0  0
   -6.8534   -1.6988   -4.6123 H   0  0  0  0  0  0  0  0  0  0  0  0
   -6.8884   -2.1436   -2.9891 H   0  0  0  0  0  0  0  0  0  0  0  0
  1  2  2  0
  1 18  1  0
  1 19  1  0
  2  3  1  0
  3  4  1  0
  3 12  2  0
  4  5  1  0
  5  6  1  0
  5 30  1  0
  5 31  1  0
  6  7  1  0
  6 11  1  0
  6 32  1  0
  7  8  1  0
  7 33  1  0
  7 34  1  0
  8  9  1  0
  8 35  1  0
  8 36  1  0
  9 10  1  0
  9 37  1  0
  9 38  1  0
 10 11  1  0
 10 39  1  0
 10 40  1  0
 11 41  1  0
 11 42  1  0
 12 13  1  0
 12 17  1  0
 13 14  2  0
 14 15  1  0
 14 43  1  0
 15 16  1  0
 15 17  1  0
 17 18  2  0
 19 20  1  0
 19 44  1  0
 20 21  2  0
 20 25  1  0
 21 22  1  0
 21 45  1  0
 22 23  2  0
 22 46  1  0
 23 24  1  0
 23 26  1  0
 24 25  2  0
 24 47  1  0
 25 48  1  0
 26 27  2  0
 26 28  2  0
 26 29  1  0
 29 49  1  0
 29 50  1  0
M  END

