rmsd84.gzmat
 OpenBabel08211713363D

 65 69  0  0  1  0  0  0  0  0999 V2000
    0.0000    0.0000    0.0000 N   0  0  0  0  0  0  0  0  0  0  0  0
    1.0186    0.0000    0.0000 H   0  0  0  0  0  0  0  0  0  0  0  0
   -0.7273    0.0000   -1.1897 C   0  0  0  0  0  0  0  0  0  0  0  0
   -0.0573    0.1319   -2.3875 N   0  0  0  0  0  0  0  0  0  0  0  0
    1.2963   -0.4401   -2.5507 C   0  0  0  0  0  0  0  0  0  0  0  0
    1.2187   -1.9144   -3.0269 C   0  0  0  0  0  0  0  0  0  0  0  0
    0.4292   -2.0055   -4.2639 N   0  0  0  0  0  0  0  0  0  0  0  0
   -0.9218   -1.4605   -4.0953 C   0  0  0  0  0  0  0  0  0  0  0  0
   -0.8554    0.0143   -3.6330 C   0  0  0  0  0  0  0  0  0  0  0  0
    1.1429   -1.8686   -5.4568 C   0  0  0  0  0  0  0  0  0  0  0  0
    2.3472   -2.0045   -5.4528 O   0  0  0  0  0  0  0  0  0  0  0  0
    0.3829   -1.6819   -6.7666 C   0  0  1  0  0  0  0  0  0  0  0  0
   -0.3134   -2.5301   -6.9668 H   0  0  0  0  0  0  0  0  0  0  0  0
   -0.4019   -0.5043   -6.5699 O   0  0  0  0  0  0  0  0  0  0  0  0
   -0.8530    0.0541   -7.7404 C   0  0  0  0  0  0  0  0  0  0  0  0
   -1.8687    0.9986   -7.6270 C   0  0  0  0  0  0  0  0  0  0  0  0
   -2.3428    1.5988   -8.7927 C   0  0  0  0  0  0  0  0  0  0  0  0
   -1.8148    1.2573  -10.0394 C   0  0  0  0  0  0  0  0  0  0  0  0
   -0.7928    0.3170  -10.1493 C   0  0  0  0  0  0  0  0  0  0  0  0
   -0.3120   -0.2815   -8.9864 C   0  0  0  0  0  0  0  0  0  0  0  0
    0.6593   -1.2312   -9.1258 O   0  0  0  0  0  0  0  0  0  0  0  0
    1.3714   -1.4750   -7.9185 C   0  0  0  0  0  0  0  0  0  0  0  0
   -2.0702   -0.0470   -1.1827 N   0  0  0  0  0  0  0  0  0  0  0  0
   -2.7823    0.0234   -0.0062 C   0  0  0  0  0  0  0  0  0  0  0  0
   -4.0979   -0.1964   -0.1496 N   0  0  0  0  0  0  0  0  0  0  0  0
   -5.0091   -0.4688    0.9603 C   0  0  0  0  0  0  0  0  0  0  0  0
   -4.6808   -0.3343   -1.4926 C   0  0  0  0  0  0  0  0  0  0  0  0
   -2.0785    0.3044    1.2370 C   0  0  0  0  0  0  0  0  0  0  0  0
   -2.6873    0.7127    2.4407 C   0  0  0  0  0  0  0  0  0  0  0  0
   -1.9502    0.8741    3.5987 C   0  0  0  0  0  0  0  0  0  0  0  0
   -2.7027    1.1793    4.6813 O   0  0  0  0  0  0  0  0  0  0  0  0
   -2.0528    1.7820    5.7969 C   0  0  0  0  0  0  0  0  0  0  0  0
   -0.5341    0.6620    3.5765 C   0  0  0  0  0  0  0  0  0  0  0  0
    0.0696    0.7962    4.7675 O   0  0  0  0  0  0  0  0  0  0  0  0
    1.4843    0.6123    4.8239 C   0  0  0  0  0  0  0  0  0  0  0  0
    0.0985    0.3649    2.3807 C   0  0  0  0  0  0  0  0  0  0  0  0
   -0.6721    0.2187    1.2121 C   0  0  0  0  0  0  0  0  0  0  0  0
    1.9098   -0.3501   -1.6359 H   0  0  0  0  0  0  0  0  0  0  0  0
    1.8194    0.1812   -3.3256 H   0  0  0  0  0  0  0  0  0  0  0  0
    2.2500   -2.3168   -3.1991 H   0  0  0  0  0  0  0  0  0  0  0  0
    0.7502   -2.5638   -2.2557 H   0  0  0  0  0  0  0  0  0  0  0  0
   -1.5164   -1.5483   -5.0335 H   0  0  0  0  0  0  0  0  0  0  0  0
   -1.4596   -2.0813   -3.3400 H   0  0  0  0  0  0  0  0  0  0  0  0
   -0.3574    0.6533   -4.4040 H   0  0  0  0  0  0  0  0  0  0  0  0
   -1.8772    0.4321   -3.4915 H   0  0  0  0  0  0  0  0  0  0  0  0
   -2.2768    1.2567   -6.6552 H   0  0  0  0  0  0  0  0  0  0  0  0
   -3.1364    2.3424   -8.7290 H   0  0  0  0  0  0  0  0  0  0  0  0
   -2.2050    1.7351  -10.9395 H   0  0  0  0  0  0  0  0  0  0  0  0
   -0.3680    0.0482  -11.1161 H   0  0  0  0  0  0  0  0  0  0  0  0
    1.9597   -2.3858   -8.1487 H   0  0  0  0  0  0  0  0  0  0  0  0
    2.0617   -0.6313   -7.7278 H   0  0  0  0  0  0  0  0  0  0  0  0
   -5.8164   -1.1582    0.6387 H   0  0  0  0  0  0  0  0  0  0  0  0
   -5.4878    0.4652    1.3173 H   0  0  0  0  0  0  0  0  0  0  0  0
   -4.4985   -0.9656    1.8089 H   0  0  0  0  0  0  0  0  0  0  0  0
   -4.2418    0.4034   -2.1965 H   0  0  0  0  0  0  0  0  0  0  0  0
   -5.7706   -0.1603   -1.4632 H   0  0  0  0  0  0  0  0  0  0  0  0
   -4.4825   -1.3416   -1.9070 H   0  0  0  0  0  0  0  0  0  0  0  0
   -3.7540    0.9460    2.4800 H   0  0  0  0  0  0  0  0  0  0  0  0
   -2.9110    2.1550    6.3781 H   0  0  0  0  0  0  0  0  0  0  0  0
   -1.4034    2.6094    5.4981 H   0  0  0  0  0  0  0  0  0  0  0  0
   -1.5055    1.0222    6.3675 H   0  0  0  0  0  0  0  0  0  0  0  0
    1.6817    0.7421    5.9006 H   0  0  0  0  0  0  0  0  0  0  0  0
    2.0008    1.3839    4.2446 H   0  0  0  0  0  0  0  0  0  0  0  0
    1.7650   -0.3968    4.5061 H   0  0  0  0  0  0  0  0  0  0  0  0
    1.1794    0.2469    2.3359 H   0  0  0  0  0  0  0  0  0  0  0  0
  1  2  1  0  0  0  0
  1 37  1  0  0  0  0
  3 23  2  0  0  0  0
  3  1  1  0  0  0  0
  4  3  1  0  0  0  0
  5  4  1  0  0  0  0
  5 38  1  0  0  0  0
  6  5  1  0  0  0  0
  6 41  1  0  0  0  0
  7  8  1  0  0  0  0
  7  6  1  0  0  0  0
  8  9  1  0  0  0  0
  8 43  1  0  0  0  0
  9 45  1  0  0  0  0
  9  4  1  0  0  0  0
 10 11  2  0  0  0  0
 10  7  1  0  0  0  0
 12 13  1  6  0  0  0
 12 14  1  0  0  0  0
 12 10  1  0  0  0  0
 15 16  1  0  0  0  0
 15 14  1  0  0  0  0
 16 46  1  0  0  0  0
 17 47  1  0  0  0  0
 17 16  2  0  0  0  0
 18 17  1  0  0  0  0
 19 18  2  0  0  0  0
 19 20  1  0  0  0  0
 20 15  2  0  0  0  0
 21 20  1  0  0  0  0
 21 22  1  0  0  0  0
 22 51  1  0  0  0  0
 22 12  1  0  0  0  0
 23 24  2  0  0  0  0
 24 28  1  0  0  0  0
 25 24  1  0  0  0  0
 25 26  1  0  0  0  0
 26 53  1  0  0  0  0
 26 54  1  0  0  0  0
 27 56  1  0  0  0  0
 27 25  1  0  0  0  0
 28 29  1  0  0  0  0
 29 58  1  0  0  0  0
 29 30  2  0  0  0  0
 30 31  1  0  0  0  0
 31 32  1  0  0  0  0
 32 61  1  0  0  0  0
 32 59  1  0  0  0  0
 33 30  1  0  0  0  0
 33 34  1  0  0  0  0
 34 35  1  0  0  0  0
 35 62  1  0  0  0  0
 36 33  2  0  0  0  0
 37 28  2  0  0  0  0
 37 36  1  0  0  0  0
 39  5  1  0  0  0  0
 40  6  1  0  0  0  0
 42  8  1  0  0  0  0
 44  9  1  0  0  0  0
 48 18  1  0  0  0  0
 49 19  1  0  0  0  0
 50 22  1  0  0  0  0
 52 26  1  0  0  0  0
 55 27  1  0  0  0  0
 57 27  1  0  0  0  0
 60 32  1  0  0  0  0
 63 35  1  0  0  0  0
 64 35  1  0  0  0  0
 65 36  1  0  0  0  0
M  END
$$$$
