rmsd72.gzmat
 OpenBabel08211713363D

 65 69  0  0  1  0  0  0  0  0999 V2000
    0.0000    0.0000    0.0000 N   0  0  0  0  0  0  0  0  0  0  0  0
    1.0183    0.0000    0.0000 H   0  0  0  0  0  0  0  0  0  0  0  0
   -0.7225    0.0000   -1.1916 C   0  0  0  0  0  0  0  0  0  0  0  0
    0.0015    0.0431   -2.3760 N   0  0  0  0  0  0  0  0  0  0  0  0
   -0.7700   -0.1067   -3.6349 C   0  0  0  0  0  0  0  0  0  0  0  0
   -1.3419    1.2470   -4.1145 C   0  0  0  0  0  0  0  0  0  0  0  0
   -0.2651    2.2443   -4.2340 N   0  0  0  0  0  0  0  0  0  0  0  0
    0.4636    2.4204   -2.9771 C   0  0  0  0  0  0  0  0  0  0  0  0
    1.0624    1.0690   -2.5044 C   0  0  0  0  0  0  0  0  0  0  0  0
    0.3695    2.3278   -5.4744 C   0  0  0  0  0  0  0  0  0  0  0  0
   -0.1619    1.8558   -6.4557 O   0  0  0  0  0  0  0  0  0  0  0  0
    1.6583    3.1370   -5.5968 C   0  0  1  0  0  0  0  0  0  0  0  0
    1.5157    4.1951   -5.2727 H   0  0  0  0  0  0  0  0  0  0  0  0
    2.5704    2.5168   -4.6872 O   0  0  0  0  0  0  0  0  0  0  0  0
    3.8820    2.8510   -4.9200 C   0  0  0  0  0  0  0  0  0  0  0  0
    4.7892    2.5522   -3.9081 C   0  0  0  0  0  0  0  0  0  0  0  0
    6.1323    2.8664   -4.1122 C   0  0  0  0  0  0  0  0  0  0  0  0
    6.5536    3.4708   -5.2983 C   0  0  0  0  0  0  0  0  0  0  0  0
    5.6446    3.7616   -6.3133 C   0  0  0  0  0  0  0  0  0  0  0  0
    4.3029    3.4407   -6.1171 C   0  0  0  0  0  0  0  0  0  0  0  0
    3.4285    3.7661   -7.1140 O   0  0  0  0  0  0  0  0  0  0  0  0
    2.1996    3.0536   -7.0254 C   0  0  0  0  0  0  0  0  0  0  0  0
   -2.0455   -0.2010   -1.2064 N   0  0  0  0  0  0  0  0  0  0  0  0
   -2.7422   -0.4373   -0.0373 C   0  0  0  0  0  0  0  0  0  0  0  0
   -3.9850   -0.9017   -0.2163 N   0  0  0  0  0  0  0  0  0  0  0  0
   -4.8200   -1.4359    0.8580 C   0  0  0  0  0  0  0  0  0  0  0  0
   -4.5522   -1.0089   -1.5688 C   0  0  0  0  0  0  0  0  0  0  0  0
   -2.0916   -0.1587    1.2351 C   0  0  0  0  0  0  0  0  0  0  0  0
   -2.7576    0.0343    2.4615 C   0  0  0  0  0  0  0  0  0  0  0  0
   -2.0570    0.2242    3.6392 C   0  0  0  0  0  0  0  0  0  0  0  0
   -2.8632    0.3591    4.7160 O   0  0  0  0  0  0  0  0  0  0  0  0
   -2.2731    0.6133    5.9864 C   0  0  0  0  0  0  0  0  0  0  0  0
   -0.6251    0.2590    3.6140 C   0  0  0  0  0  0  0  0  0  0  0  0
   -0.0446    0.4121    4.8152 O   0  0  0  0  0  0  0  0  0  0  0  0
    1.3814    0.4604    4.8660 C   0  0  0  0  0  0  0  0  0  0  0  0
    0.0460    0.1611    2.4070 C   0  0  0  0  0  0  0  0  0  0  0  0
   -0.6898   -0.0106    1.2192 C   0  0  0  0  0  0  0  0  0  0  0  0
   -1.5844   -0.8540   -3.5063 H   0  0  0  0  0  0  0  0  0  0  0  0
   -0.0653   -0.5311   -4.3922 H   0  0  0  0  0  0  0  0  0  0  0  0
   -1.8591    1.1212   -5.0980 H   0  0  0  0  0  0  0  0  0  0  0  0
   -2.1060    1.6295   -3.4009 H   0  0  0  0  0  0  0  0  0  0  0  0
    1.2682    3.1863   -3.0754 H   0  0  0  0  0  0  0  0  0  0  0  0
   -0.2449    2.8233   -2.2152 H   0  0  0  0  0  0  0  0  0  0  0  0
    1.7962    0.6877   -3.2632 H   0  0  0  0  0  0  0  0  0  0  0  0
    1.6316    1.2021   -1.5662 H   0  0  0  0  0  0  0  0  0  0  0  0
    4.4545    2.0878   -2.9872 H   0  0  0  0  0  0  0  0  0  0  0  0
    6.8600    2.6378   -3.3345 H   0  0  0  0  0  0  0  0  0  0  0  0
    7.6084    3.7147   -5.4357 H   0  0  0  0  0  0  0  0  0  0  0  0
    5.9628    4.2250   -7.2469 H   0  0  0  0  0  0  0  0  0  0  0  0
    1.5524    3.5708   -7.7616 H   0  0  0  0  0  0  0  0  0  0  0  0
    2.3617    2.0078   -7.3490 H   0  0  0  0  0  0  0  0  0  0  0  0
   -5.4811   -2.2379    0.4693 H   0  0  0  0  0  0  0  0  0  0  0  0
   -5.4675   -0.6476    1.2917 H   0  0  0  0  0  0  0  0  0  0  0  0
   -4.2155   -1.8966    1.6647 H   0  0  0  0  0  0  0  0  0  0  0  0
   -4.2439   -0.1530   -2.2052 H   0  0  0  0  0  0  0  0  0  0  0  0
   -5.6556   -1.0127   -1.5295 H   0  0  0  0  0  0  0  0  0  0  0  0
   -4.2006   -1.9326   -2.0683 H   0  0  0  0  0  0  0  0  0  0  0  0
   -3.8486    0.0772    2.5061 H   0  0  0  0  0  0  0  0  0  0  0  0
   -3.1651    0.6921    6.6283 H   0  0  0  0  0  0  0  0  0  0  0  0
   -1.7189    1.5575    5.9850 H   0  0  0  0  0  0  0  0  0  0  0  0
   -1.6478   -0.2278    6.3049 H   0  0  0  0  0  0  0  0  0  0  0  0
    1.5597    0.5891    5.9459 H   0  0  0  0  0  0  0  0  0  0  0  0
    1.7660    1.3218    4.3113 H   0  0  0  0  0  0  0  0  0  0  0  0
    1.8172   -0.4813    4.5174 H   0  0  0  0  0  0  0  0  0  0  0  0
    1.1317    0.2240    2.3653 H   0  0  0  0  0  0  0  0  0  0  0  0
  1  2  1  0  0  0  0
  1 37  1  0  0  0  0
  3  1  1  0  0  0  0
  4  3  1  0  0  0  0
  5 38  1  0  0  0  0
  5  4  1  0  0  0  0
  6  5  1  0  0  0  0
  6 41  1  0  0  0  0
  7  6  1  0  0  0  0
  7  8  1  0  0  0  0
  8  9  1  0  0  0  0
  8 43  1  0  0  0  0
  9  4  1  0  0  0  0
  9 45  1  0  0  0  0
 10  7  1  0  0  0  0
 11 10  2  0  0  0  0
 12 10  1  0  0  0  0
 12 13  1  1  0  0  0
 12 14  1  0  0  0  0
 15 14  1  0  0  0  0
 15 16  2  0  0  0  0
 16 46  1  0  0  0  0
 17 16  1  0  0  0  0
 17 47  1  0  0  0  0
 18 17  2  0  0  0  0
 19 20  2  0  0  0  0
 19 18  1  0  0  0  0
 20 15  1  0  0  0  0
 21 22  1  0  0  0  0
 21 20  1  0  0  0  0
 22 12  1  0  0  0  0
 23  3  2  0  0  0  0
 23 24  2  0  0  0  0
 24 28  1  0  0  0  0
 25 24  1  0  0  0  0
 25 26  1  0  0  0  0
 26 53  1  0  0  0  0
 26 54  1  0  0  0  0
 27 56  1  0  0  0  0
 27 25  1  0  0  0  0
 28 29  1  0  0  0  0
 29 58  1  0  0  0  0
 29 30  2  0  0  0  0
 30 31  1  0  0  0  0
 31 32  1  0  0  0  0
 32 61  1  0  0  0  0
 32 59  1  0  0  0  0
 33 30  1  0  0  0  0
 33 34  1  0  0  0  0
 34 35  1  0  0  0  0
 35 62  1  0  0  0  0
 36 33  2  0  0  0  0
 37 28  2  0  0  0  0
 37 36  1  0  0  0  0
 39  5  1  0  0  0  0
 40  6  1  0  0  0  0
 42  8  1  0  0  0  0
 44  9  1  0  0  0  0
 48 18  1  0  0  0  0
 49 19  1  0  0  0  0
 50 22  1  0  0  0  0
 51 22  1  0  0  0  0
 52 26  1  0  0  0  0
 55 27  1  0  0  0  0
 57 27  1  0  0  0  0
 60 32  1  0  0  0  0
 63 35  1  0  0  0  0
 64 35  1  0  0  0  0
 65 36  1  0  0  0  0
M  END
$$$$
