65
rmsd129.gzmat
N          0.00000        0.00000        0.00000
H          1.01770        0.00000        0.00000
C         -0.72510        0.00000       -1.19220
N         -0.02700        0.04500       -2.38590
C         -0.83060        0.07280       -3.63400
C         -1.23190        1.52010       -4.00170
N         -0.03750        2.37690       -4.08920
C          0.74640        2.36480       -2.85330
C          1.16490        0.91490       -2.49270
C          0.56360        2.47640       -5.34540
O         -0.06060        2.16810       -6.33660
C          1.95340        3.09970       -5.45760
H          1.99070        4.12280       -5.01480
O          2.79340        2.25400       -4.66890
C          4.12770        2.36140       -4.97420
C          5.01730        1.77390       -4.07970
C          6.38180        1.85650       -4.35520
C          6.84260        2.51570       -5.49650
C          5.95000        3.09430       -6.39590
C          4.58550        3.00590       -6.12910
O          3.73320        3.60820       -7.01000
C          2.40660        3.10180       -6.92010
N         -2.05000       -0.20470       -1.20270
C         -2.73750       -0.45880       -0.03350
N         -3.97230       -0.94520       -0.21220
C         -4.79660       -1.49630        0.86140
C         -4.53380       -1.05340       -1.56660
C         -2.08910       -0.17480        1.23820
C         -2.75960        0.01990        2.46200
C         -2.06050        0.22340        3.63660
O         -2.85340        0.30510        4.73020
C         -2.32380        0.92980        5.89550
C         -0.62900        0.27150        3.61340
O         -0.05850        0.43480        4.81710
C          1.36650        0.49500        4.87910
C          0.04560        0.17430        2.40720
C         -0.68860       -0.01340        1.22090
H         -1.73140       -0.57400       -3.53710
H         -0.19880       -0.38140       -4.43610
H         -1.78490        1.53220       -4.97400
H         -1.92390        1.94580       -3.24120
H          1.64730        3.01660       -2.93530
H          0.12420        2.80700       -2.03980
H          1.80910        0.48870       -3.30820
H          1.78580        0.89800       -1.57930
H          4.65370        1.26600       -3.19350
H          7.09580        1.40150       -3.66970
H          7.91480        2.57390       -5.69100
H          6.29740        3.60450       -7.29400
H          1.82260        3.80320       -7.54880
H          2.37160        2.09080       -7.36980
H         -5.44910       -2.30470        0.47090
H         -5.45220       -0.71880        1.30200
H         -4.18280       -1.95350        1.66280
H         -4.30070       -0.14990       -2.16830
H         -5.63190       -1.15730       -1.52910
H         -4.10340       -1.92300       -2.10120
H         -3.85100        0.05110        2.50510
H         -3.23210        1.07520        6.50130
H         -1.85630        1.89170        5.66930
H         -1.63100        0.25030        6.40590
H          1.53710        0.59820        5.96330
H          1.74400        1.37370        4.34730
H          1.81640       -0.43240        4.51040
H          1.13040        0.24870        2.36590
