rmsd173.gzmat
 OpenBabel08211713363D

 65 69  0  0  1  0  0  0  0  0999 V2000
    0.0000    0.0000    0.0000 N   0  0  0  0  0  0  0  0  0  0  0  0
    1.0181    0.0000    0.0000 H   0  0  0  0  0  0  0  0  0  0  0  0
   -0.7230    0.0000   -1.1933 C   0  0  0  0  0  0  0  0  0  0  0  0
   -0.0440   -0.1364   -2.3864 N   0  0  0  0  0  0  0  0  0  0  0  0
   -0.8364   -0.0410   -3.6377 C   0  0  0  0  0  0  0  0  0  0  0  0
   -0.9299    1.4245   -4.1220 C   0  0  0  0  0  0  0  0  0  0  0  0
    0.4176    2.0015   -4.2687 N   0  0  0  0  0  0  0  0  0  0  0  0
    1.1845    1.9309   -3.0243 C   0  0  0  0  0  0  0  0  0  0  0  0
    1.2994    0.4591   -2.5471 C   0  0  0  0  0  0  0  0  0  0  0  0
    1.0192    1.8513   -5.5202 C   0  0  0  0  0  0  0  0  0  0  0  0
    0.3340    1.5983   -6.4867 O   0  0  0  0  0  0  0  0  0  0  0  0
    2.5099    2.1402   -5.6769 C   0  0  1  0  0  0  0  0  0  0  0  0
    2.7614    3.1892   -5.3922 H   0  0  0  0  0  0  0  0  0  0  0  0
    3.1565    1.2653   -4.7498 O   0  0  0  0  0  0  0  0  0  0  0  0
    4.4964    1.0991   -5.0021 C   0  0  0  0  0  0  0  0  0  0  0  0
    5.2557    0.5338   -3.9821 C   0  0  0  0  0  0  0  0  0  0  0  0
    6.6189    0.3424   -4.2027 C   0  0  0  0  0  0  0  0  0  0  0  0
    7.2058    0.7115   -5.4148 C   0  0  0  0  0  0  0  0  0  0  0  0
    6.4417    1.2672   -6.4385 C   0  0  0  0  0  0  0  0  0  0  0  0
    5.0774    1.4544   -6.2246 C   0  0  0  0  0  0  0  0  0  0  0  0
    4.3593    2.0356   -7.2299 O   0  0  0  0  0  0  0  0  0  0  0  0
    2.9582    1.8194   -7.1055 C   0  0  0  0  0  0  0  0  0  0  0  0
   -2.0650    0.0530   -1.1920 N   0  0  0  0  0  0  0  0  0  0  0  0
   -2.7795   -0.0127   -0.0160 C   0  0  0  0  0  0  0  0  0  0  0  0
   -4.0889    0.2399   -0.1544 N   0  0  0  0  0  0  0  0  0  0  0  0
   -4.6712    0.3994   -1.4949 C   0  0  0  0  0  0  0  0  0  0  0  0
   -4.9874    0.5253    0.9621 C   0  0  0  0  0  0  0  0  0  0  0  0
   -2.0826   -0.3226    1.2247 C   0  0  0  0  0  0  0  0  0  0  0  0
   -2.6987   -0.7601    2.4139 C   0  0  0  0  0  0  0  0  0  0  0  0
   -1.9666   -0.9623    3.5694 C   0  0  0  0  0  0  0  0  0  0  0  0
   -2.7274   -1.3118    4.6325 O   0  0  0  0  0  0  0  0  0  0  0  0
   -2.0794   -1.8806    5.7661 C   0  0  0  0  0  0  0  0  0  0  0  0
   -0.5500   -0.7536    3.5582 C   0  0  0  0  0  0  0  0  0  0  0  0
    0.0516   -0.9330    4.7449 O   0  0  0  0  0  0  0  0  0  0  0  0
    1.4649   -0.7441    4.8140 C   0  0  0  0  0  0  0  0  0  0  0  0
    0.0881   -0.4192    2.3751 C   0  0  0  0  0  0  0  0  0  0  0  0
   -0.6757   -0.2419    1.2061 C   0  0  0  0  0  0  0  0  0  0  0  0
   -1.8512   -0.4770   -3.4981 H   0  0  0  0  0  0  0  0  0  0  0  0
   -0.3216   -0.6792   -4.3973 H   0  0  0  0  0  0  0  0  0  0  0  0
   -1.4771    1.4748   -5.0963 H   0  0  0  0  0  0  0  0  0  0  0  0
   -1.5091    2.0450   -3.4031 H   0  0  0  0  0  0  0  0  0  0  0  0
    2.1985    2.3798   -3.1438 H   0  0  0  0  0  0  0  0  0  0  0  0
    0.6665    2.5543   -2.2579 H   0  0  0  0  0  0  0  0  0  0  0  0
    1.8389   -0.1522   -3.3205 H   0  0  0  0  0  0  0  0  0  0  0  0
    1.9116    0.3846   -1.6305 H   0  0  0  0  0  0  0  0  0  0  0  0
    4.7944    0.2533   -3.0420 H   0  0  0  0  0  0  0  0  0  0  0  0
    7.2331   -0.0976   -3.4180 H   0  0  0  0  0  0  0  0  0  0  0  0
    8.2759    0.5587   -5.5649 H   0  0  0  0  0  0  0  0  0  0  0  0
    6.8883    1.5515   -7.3911 H   0  0  0  0  0  0  0  0  0  0  0  0
    2.5260    2.5099   -7.8572 H   0  0  0  0  0  0  0  0  0  0  0  0
    2.7260    0.7753   -7.3899 H   0  0  0  0  0  0  0  0  0  0  0  0
   -4.4209    1.3909   -1.9187 H   0  0  0  0  0  0  0  0  0  0  0  0
   -5.7684    0.2846   -1.4610 H   0  0  0  0  0  0  0  0  0  0  0  0
   -4.2734   -0.3667   -2.1927 H   0  0  0  0  0  0  0  0  0  0  0  0
   -5.4967   -0.3972    1.3062 H   0  0  0  0  0  0  0  0  0  0  0  0
   -5.7712    1.2472    0.6536 H   0  0  0  0  0  0  0  0  0  0  0  0
   -4.4564    0.9903    1.8161 H   0  0  0  0  0  0  0  0  0  0  0  0
   -3.7677   -0.9860    2.4424 H   0  0  0  0  0  0  0  0  0  0  0  0
   -2.9375   -2.2569    6.3453 H   0  0  0  0  0  0  0  0  0  0  0  0
   -1.5509   -1.1035    6.3299 H   0  0  0  0  0  0  0  0  0  0  0  0
   -1.4154   -2.7037    5.4879 H   0  0  0  0  0  0  0  0  0  0  0  0
    1.6642   -0.9559    5.8773 H   0  0  0  0  0  0  0  0  0  0  0  0
    1.7333    0.2899    4.5755 H   0  0  0  0  0  0  0  0  0  0  0  0
    1.9909   -1.4621    4.1772 H   0  0  0  0  0  0  0  0  0  0  0  0
    1.1688   -0.2995    2.3390 H   0  0  0  0  0  0  0  0  0  0  0  0
  1  2  1  0  0  0  0
  1 37  1  0  0  0  0
  3 23  2  0  0  0  0
  3  1  1  0  0  0  0
  4  3  1  0  0  0  0
  5 38  1  0  0  0  0
  5  4  1  0  0  0  0
  6  5  1  0  0  0  0
  6 41  1  0  0  0  0
  7  6  1  0  0  0  0
  7  8  1  0  0  0  0
  8  9  1  0  0  0  0
  8 43  1  0  0  0  0
  9  4  1  0  0  0  0
  9 45  1  0  0  0  0
 10  7  1  0  0  0  0
 11 10  2  0  0  0  0
 12 10  1  0  0  0  0
 12 13  1  1  0  0  0
 12 14  1  0  0  0  0
 15 14  1  0  0  0  0
 15 16  2  0  0  0  0
 16 46  1  0  0  0  0
 17 16  1  0  0  0  0
 17 47  1  0  0  0  0
 18 17  2  0  0  0  0
 19 20  2  0  0  0  0
 19 18  1  0  0  0  0
 20 15  1  0  0  0  0
 21 22  1  0  0  0  0
 21 20  1  0  0  0  0
 22 12  1  0  0  0  0
 23 24  2  0  0  0  0
 24 28  1  0  0  0  0
 25 24  1  0  0  0  0
 25 27  1  0  0  0  0
 26 53  1  0  0  0  0
 26 25  1  0  0  0  0
 27 55  1  0  0  0  0
 27 57  1  0  0  0  0
 28 29  1  0  0  0  0
 29 58  1  0  0  0  0
 29 30  2  0  0  0  0
 30 31  1  0  0  0  0
 31 32  1  0  0  0  0
 32 60  1  0  0  0  0
 32 59  1  0  0  0  0
 33 30  1  0  0  0  0
 33 34  1  0  0  0  0
 34 35  1  0  0  0  0
 35 62  1  0  0  0  0
 36 33  2  0  0  0  0
 37 28  2  0  0  0  0
 37 36  1  0  0  0  0
 39  5  1  0  0  0  0
 40  6  1  0  0  0  0
 42  8  1  0  0  0  0
 44  9  1  0  0  0  0
 48 18  1  0  0  0  0
 49 19  1  0  0  0  0
 50 22  1  0  0  0  0
 51 22  1  0  0  0  0
 52 26  1  0  0  0  0
 54 26  1  0  0  0  0
 56 27  1  0  0  0  0
 61 32  1  0  0  0  0
 63 35  1  0  0  0  0
 64 35  1  0  0  0  0
 65 36  1  0  0  0  0
M  END
$$$$
