65
rmsd72.gzmat
N          0.00000        0.00000        0.00000
H          1.01830        0.00000        0.00000
C         -0.72250        0.00000       -1.19160
N          0.00150        0.04310       -2.37600
C         -0.77000       -0.10670       -3.63490
C         -1.34190        1.24700       -4.11450
N         -0.26510        2.24430       -4.23400
C          0.46360        2.42040       -2.97710
C          1.06240        1.06900       -2.50440
C          0.36950        2.32780       -5.47440
O         -0.16190        1.85580       -6.45570
C          1.65830        3.13700       -5.59680
H          1.51570        4.19510       -5.27270
O          2.57040        2.51680       -4.68720
C          3.88200        2.85100       -4.92000
C          4.78920        2.55220       -3.90810
C          6.13230        2.86640       -4.11220
C          6.55360        3.47080       -5.29830
C          5.64460        3.76160       -6.31330
C          4.30290        3.44070       -6.11710
O          3.42850        3.76610       -7.11400
C          2.19960        3.05360       -7.02540
N         -2.04550       -0.20100       -1.20640
C         -2.74220       -0.43730       -0.03730
N         -3.98500       -0.90170       -0.21630
C         -4.82000       -1.43590        0.85800
C         -4.55220       -1.00890       -1.56880
C         -2.09160       -0.15870        1.23510
C         -2.75760        0.03430        2.46150
C         -2.05700        0.22420        3.63920
O         -2.86320        0.35910        4.71600
C         -2.27310        0.61330        5.98640
C         -0.62510        0.25900        3.61400
O         -0.04460        0.41210        4.81520
C          1.38140        0.46040        4.86600
C          0.04600        0.16110        2.40700
C         -0.68980       -0.01060        1.21920
H         -1.58440       -0.85400       -3.50630
H         -0.06530       -0.53110       -4.39220
H         -1.85910        1.12120       -5.09800
H         -2.10600        1.62950       -3.40090
H          1.26820        3.18630       -3.07540
H         -0.24490        2.82330       -2.21520
H          1.79620        0.68770       -3.26320
H          1.63160        1.20210       -1.56620
H          4.45450        2.08780       -2.98720
H          6.86000        2.63780       -3.33450
H          7.60840        3.71470       -5.43570
H          5.96280        4.22500       -7.24690
H          1.55240        3.57080       -7.76160
H          2.36170        2.00780       -7.34900
H         -5.48110       -2.23790        0.46930
H         -5.46750       -0.64760        1.29170
H         -4.21550       -1.89660        1.66470
H         -4.24390       -0.15300       -2.20520
H         -5.65560       -1.01270       -1.52950
H         -4.20060       -1.93260       -2.06830
H         -3.84860        0.07720        2.50610
H         -3.16510        0.69210        6.62830
H         -1.71890        1.55750        5.98500
H         -1.64780       -0.22780        6.30490
H          1.55970        0.58910        5.94590
H          1.76600        1.32180        4.31130
H          1.81720       -0.48130        4.51740
H          1.13170        0.22400        2.36530
