rmsd9.gzmat
 OpenBabel08211713363D

 56 58  0  0  1  0  0  0  0  0999 V2000
    0.0000    0.0000    0.0000 C   0  0  0  0  0  0  0  0  0  0  0  0
    1.4320    0.0000    0.0000 C   0  0  0  0  0  0  0  0  0  0  0  0
    2.1619    0.0000    1.1986 C   0  0  0  0  0  0  0  0  0  0  0  0
    1.4470    0.0021    2.3800 C   0  0  0  0  0  0  0  0  0  0  0  0
    0.0344    0.0103    2.3913 C   0  0  0  0  0  0  0  0  0  0  0  0
   -0.6920    0.0125    1.2169 C   0  0  0  0  0  0  0  0  0  0  0  0
    1.8654    0.0028   -1.3284 N   0  0  0  0  0  0  0  0  0  0  0  0
    0.7405   -0.0191   -2.1561 C   0  0  0  0  0  0  0  0  0  0  0  0
   -0.4154   -0.0120   -1.3706 C   0  0  0  0  0  0  0  0  0  0  0  0
   -1.7781   -0.0197   -1.8588 C   0  0  0  0  0  0  0  0  0  0  0  0
   -2.2204    0.9928   -2.7197 C   0  0  0  0  0  0  0  0  0  0  0  0
   -3.5124    0.9655   -3.2353 C   0  0  0  0  0  0  0  0  0  0  0  0
   -4.3423   -0.0910   -2.8629 C   0  0  0  0  0  0  0  0  0  0  0  0
   -3.9392   -1.1037   -1.9940 C   0  0  0  0  0  0  0  0  0  0  0  0
   -2.6442   -1.0547   -1.4871 C   0  0  0  0  0  0  0  0  0  0  0  0
   -5.5699   -0.1346   -3.3608 F   0  0  0  0  0  0  0  0  0  0  0  0
    0.7874   -0.0421   -3.6067 C   0  0  0  0  0  0  0  0  0  0  0  0
    0.0330   -0.9032   -4.2989 C   0  0  0  0  0  0  0  0  0  0  0  0
   -0.0758   -0.8665   -5.7896 C   0  0  2  0  0  0  0  0  0  0  0  0
    0.8491   -0.4888   -6.2885 H   0  0  0  0  0  0  0  0  0  0  0  0
   -1.3234   -0.0562   -6.1839 C   0  0  0  0  0  0  0  0  0  0  0  0
   -1.3607    0.1626   -7.7001 C   0  0  1  0  0  0  0  0  0  0  0  0
   -0.4024    0.5957   -8.0725 H   0  0  0  0  0  0  0  0  0  0  0  0
   -1.5370   -1.0809   -8.3603 O   0  0  0  0  0  0  0  0  0  0  0  0
   -2.5622    1.0117   -8.1284 C   0  0  0  0  0  0  0  0  0  0  0  0
   -2.4680    1.4328   -9.5759 C   0  0  0  0  0  0  0  0  0  0  0  0
   -2.7069    2.5378   -9.9840 O   0  0  0  0  0  0  0  0  0  0  0  0
   -2.1045    0.4788  -10.4634 O   0  0  0  0  0  0  0  0  0  0  0  0
   -0.1668   -2.1759   -6.3250 O   0  0  0  0  0  0  0  0  0  0  0  0
    3.2712   -0.0884   -1.7358 C   0  0  0  0  0  0  0  0  0  0  0  0
    3.5128   -1.3436   -2.5836 C   0  0  0  0  0  0  0  0  0  0  0  0
    3.7001    1.1829   -2.4819 C   0  0  0  0  0  0  0  0  0  0  0  0
    3.2461   -0.0016    1.1958 H   0  0  0  0  0  0  0  0  0  0  0  0
    1.9767   -0.0019    3.3319 H   0  0  0  0  0  0  0  0  0  0  0  0
   -0.4788    0.0158    3.3506 H   0  0  0  0  0  0  0  0  0  0  0  0
   -1.7801    0.0252    1.2177 H   0  0  0  0  0  0  0  0  0  0  0  0
   -1.5454    1.8087   -2.9778 H   0  0  0  0  0  0  0  0  0  0  0  0
   -3.8642    1.7513   -3.8998 H   0  0  0  0  0  0  0  0  0  0  0  0
   -4.6144   -1.9106   -1.7162 H   0  0  0  0  0  0  0  0  0  0  0  0
   -2.2943   -1.8273   -0.8013 H   0  0  0  0  0  0  0  0  0  0  0  0
    1.4281    0.7015   -4.0835 H   0  0  0  0  0  0  0  0  0  0  0  0
   -0.5753   -1.6618   -3.8021 H   0  0  0  0  0  0  0  0  0  0  0  0
   -1.3353    0.9112   -5.6456 H   0  0  0  0  0  0  0  0  0  0  0  0
   -2.2399   -0.5869   -5.8556 H   0  0  0  0  0  0  0  0  0  0  0  0
   -0.9760   -1.7740   -7.9341 H   0  0  0  0  0  0  0  0  0  0  0  0
   -2.6576    1.9122   -7.4871 H   0  0  0  0  0  0  0  0  0  0  0  0
   -3.5045    0.4359   -7.9834 H   0  0  0  0  0  0  0  0  0  0  0  0
   -1.8705   -0.3893  -10.0309 H   0  0  0  0  0  0  0  0  0  0  0  0
   -0.8353   -2.7161   -5.8537 H   0  0  0  0  0  0  0  0  0  0  0  0
    3.8848   -0.1708   -0.7925 H   0  0  0  0  0  0  0  0  0  0  0  0
    2.9905   -1.3038   -3.5472 H   0  0  0  0  0  0  0  0  0  0  0  0
    3.1625   -2.2473   -2.0673 H   0  0  0  0  0  0  0  0  0  0  0  0
    4.5804   -1.4739   -2.7938 H   0  0  0  0  0  0  0  0  0  0  0  0
    3.2498    1.2545   -3.4773 H   0  0  0  0  0  0  0  0  0  0  0  0
    4.7885    1.2054   -2.6132 H   0  0  0  0  0  0  0  0  0  0  0  0
    3.4149    2.0865   -1.9270 H   0  0  0  0  0  0  0  0  0  0  0  0
  1  6  1  0  0  0  0
  2  1  2  0  0  0  0
  2  3  1  0  0  0  0
  3  4  2  0  0  0  0
  4  5  1  0  0  0  0
  4 34  1  0  0  0  0
  5 35  1  0  0  0  0
  6 36  1  0  0  0  0
  6  5  2  0  0  0  0
  7  2  1  0  0  0  0
  8  9  2  0  0  0  0
  8  7  1  0  0  0  0
  9  1  1  0  0  0  0
 10 15  1  0  0  0  0
 10  9  1  0  0  0  0
 11 10  2  0  0  0  0
 12 13  2  0  0  0  0
 12 11  1  0  0  0  0
 13 14  1  0  0  0  0
 14 39  1  0  0  0  0
 14 15  2  0  0  0  0
 15 40  1  0  0  0  0
 16 13  1  0  0  0  0
 17  8  1  0  0  0  0
 18 42  1  0  0  0  0
 18 17  2  0  0  0  0
 19 20  1  6  0  0  0
 19 18  1  0  0  0  0
 21 44  1  0  0  0  0
 21 19  1  0  0  0  0
 21 43  1  0  0  0  0
 22 23  1  6  0  0  0
 22 21  1  0  0  0  0
 24 45  1  0  0  0  0
 24 22  1  0  0  0  0
 25 47  1  0  0  0  0
 25 22  1  0  0  0  0
 25 46  1  0  0  0  0
 26 25  1  0  0  0  0
 27 26  2  0  0  0  0
 28 48  1  0  0  0  0
 28 26  1  0  0  0  0
 29 49  1  0  0  0  0
 29 19  1  0  0  0  0
 30  7  1  0  0  0  0
 30 50  1  0  0  0  0
 31 52  1  0  0  0  0
 31 30  1  0  0  0  0
 32 56  1  0  0  0  0
 32 30  1  0  0  0  0
 33  3  1  0  0  0  0
 37 11  1  0  0  0  0
 38 12  1  0  0  0  0
 41 17  1  0  0  0  0
 51 31  1  0  0  0  0
 53 31  1  0  0  0  0
 54 32  1  0  0  0  0
 55 32  1  0  0  0  0
M  END
$$$$
