56
rmsd179.gzmat
C          0.00000        0.00000        0.00000
C          1.43130        0.00000        0.00000
C          2.16040        0.00000        1.19960
C          1.44490       -0.00390        2.38050
C          0.03230       -0.01350        2.39130
C         -0.69280       -0.01380        1.21630
N          1.86380       -0.00950       -1.32780
C          0.73670       -0.00150       -2.15740
C         -0.41700        0.00150       -1.37140
C         -1.78840       -0.00310       -1.83350
C         -2.67040        0.99230       -1.39570
C         -3.99150        1.00400       -1.83270
C         -4.40080       -0.00110       -2.70740
C         -3.55050       -1.01000       -3.15650
C         -2.23290       -1.00130       -2.70950
F         -5.65700        0.00100       -3.13060
C          0.81060       -0.00120       -3.60640
C          0.05240        0.82010       -4.34090
C          0.04880        0.84390       -5.83630
H         -0.57260        0.00900       -6.25040
C          1.46640        0.85530       -6.42710
C          1.43370        0.74760       -7.95770
H          0.80670       -0.11090       -8.29480
O          0.85490        1.91610       -8.52110
C          2.83950        0.65820       -8.56410
C          3.76230        1.74480       -8.06780
O          4.88730        1.57130       -7.68290
O          3.25710        2.99990       -8.07890
O         -0.65540        1.98460       -6.30740
C          3.27120        0.07580       -1.73280
C          3.71220       -1.22140       -2.42560
C          3.51500        1.29990       -2.62390
H          3.24450        0.00050        1.19830
H          1.97340       -0.00220        3.33310
H         -0.48180       -0.02370        3.34990
H         -1.78110       -0.02880        1.21640
H         -2.31280        1.76300       -0.71230
H         -4.68070        1.77650       -1.49890
H         -3.90360       -1.78400       -3.83360
H         -1.54080       -1.77720       -3.03450
H          1.50460       -0.72070       -4.04640
H         -0.64780        1.52000       -3.87220
H          2.06640        0.02670       -6.00560
H          1.99060        1.78510       -6.12100
H          0.07100        2.18530       -7.97210
H          2.76620        0.73410       -9.67380
H          3.28680       -0.33650       -8.36330
H          2.28680        3.01290       -8.33870
H         -0.40730        2.79330       -5.81150
H          3.87840        0.19830       -0.78970
H          3.28190       -1.32910       -3.42580
H          3.41500       -2.10410       -1.84470
H          4.80310       -1.24920       -2.53390
H          2.99390        1.23000       -3.58490
H          4.58400        1.41730       -2.84110
H          3.17260        2.22230       -2.13640
