56
rmsd248.gzmat
C          0.00000        0.00000        0.00000
C          1.43160        0.00000        0.00000
C          2.16150        0.00000        1.19950
C          1.44660        0.00060        2.38050
C          0.03350        0.00270        2.39150
C         -0.69240        0.00470        1.21720
N          1.86400        0.00460       -1.32690
C          0.73810       -0.00450       -2.15800
C         -0.41570        0.00390       -1.37050
C         -1.78370        0.04640       -1.84230
C         -2.20800        1.11280       -2.64530
C         -3.51450        1.15890       -3.12080
C         -4.37580        0.12080       -2.76810
C         -3.98790       -0.94750       -1.96120
C         -2.67640       -0.97430       -1.49610
F         -5.62150        0.15290       -3.21930
C          0.80550       -0.01790       -3.60730
C         -0.02250       -0.77600       -4.33470
C         -0.08070       -0.80710       -5.83090
H         -0.05600       -1.86140       -6.20820
C          0.98560        0.05150       -6.52410
C          0.93030       -0.12170       -8.04850
H          0.92580       -1.19770       -8.34100
O         -0.27010        0.44120       -8.55920
C          2.06680        0.62450       -8.75850
C          2.17650        2.06770       -8.32940
O          3.19840        2.62090       -8.02320
O          1.01900        2.76740       -8.30730
O         -1.36990       -0.37570       -6.25390
C          3.27330       -0.02150       -1.73050
C          3.56330       -1.23660       -2.62070
C          3.66160        1.29400       -2.41920
H          3.24560        0.00150        1.19650
H          1.97520        0.00130        3.33300
H         -0.48040        0.00470        3.35030
H         -1.78060        0.01180        1.21750
H         -1.50820        1.91350       -2.88530
H         -3.85420        1.98710       -3.73910
H         -4.68680       -1.73920       -1.69970
H         -2.33630       -1.79310       -0.86160
H          1.55450        0.64310       -4.05190
H         -0.76000       -1.43080       -3.85750
H          1.99170       -0.21920       -6.15090
H          0.83930        1.12110       -6.26280
H         -1.01970        0.20790       -7.94790
H          1.89660        0.59230       -9.85950
H          3.03390        0.10790       -8.59180
H          0.22210        2.18160       -8.48650
H         -1.69900        0.36680       -5.70130
H          3.88570       -0.12150       -0.78780
H          3.02200       -1.19740       -3.57220
H          3.27110       -2.17080       -2.12340
H          4.63270       -1.30300       -2.85100
H          3.23280        1.38920       -3.42240
H          4.75040        1.37210       -2.52280
H          3.32220        2.16250       -1.83730
