rmsd95.gzmat
 OpenBabel08211713363D

 56 58  0  0  1  0  0  0  0  0999 V2000
    0.0000    0.0000    0.0000 C   0  0  0  0  0  0  0  0  0  0  0  0
    1.4334    0.0000    0.0000 C   0  0  0  0  0  0  0  0  0  0  0  0
    2.1555    0.0000    1.2042 C   0  0  0  0  0  0  0  0  0  0  0  0
    1.4376   -0.0098    2.3836 C   0  0  0  0  0  0  0  0  0  0  0  0
    0.0253   -0.0206    2.3915 C   0  0  0  0  0  0  0  0  0  0  0  0
   -0.6959   -0.0166    1.2141 C   0  0  0  0  0  0  0  0  0  0  0  0
    1.8614   -0.0162   -1.3280 N   0  0  0  0  0  0  0  0  0  0  0  0
    0.7342   -0.0132   -2.1574 C   0  0  0  0  0  0  0  0  0  0  0  0
   -0.4190   -0.0040   -1.3694 C   0  0  0  0  0  0  0  0  0  0  0  0
   -1.7866   -0.0083   -1.8438 C   0  0  0  0  0  0  0  0  0  0  0  0
   -2.6449    1.0435   -1.5018 C   0  0  0  0  0  0  0  0  0  0  0  0
   -3.9490    1.0724   -1.9870 C   0  0  0  0  0  0  0  0  0  0  0  0
   -4.3662    0.0268   -2.8086 C   0  0  0  0  0  0  0  0  0  0  0  0
   -3.5430   -1.0446   -3.1526 C   0  0  0  0  0  0  0  0  0  0  0  0
   -2.2437   -1.0542   -2.6553 C   0  0  0  0  0  0  0  0  0  0  0  0
   -5.6021    0.0522   -3.2864 F   0  0  0  0  0  0  0  0  0  0  0  0
    0.8055   -0.0571   -3.6051 C   0  0  0  0  0  0  0  0  0  0  0  0
   -0.0514    0.6385   -4.3615 C   0  0  0  0  0  0  0  0  0  0  0  0
   -0.1211    0.5108   -5.8503 C   0  0  2  0  0  0  0  0  0  0  0  0
    0.3719    1.3769   -6.3619 H   0  0  0  0  0  0  0  0  0  0  0  0
   -1.5886    0.3527   -6.2879 C   0  0  0  0  0  0  0  0  0  0  0  0
   -1.7437   -0.1646   -7.7272 C   0  0  1  0  0  0  0  0  0  0  0  0
   -2.5954    0.3436   -8.2433 H   0  0  0  0  0  0  0  0  0  0  0  0
   -0.6467    0.2054   -8.5365 O   0  0  0  0  0  0  0  0  0  0  0  0
   -1.9074   -1.6930   -7.7672 C   0  0  0  0  0  0  0  0  0  0  0  0
   -2.2869   -2.2013   -9.1397 C   0  0  0  0  0  0  0  0  0  0  0  0
   -3.0793   -3.0810   -9.3423 O   0  0  0  0  0  0  0  0  0  0  0  0
   -1.6552   -1.6368  -10.1929 O   0  0  0  0  0  0  0  0  0  0  0  0
    0.6593   -0.5757   -6.3160 O   0  0  0  0  0  0  0  0  0  0  0  0
    3.2483    0.0392   -1.8011 C   0  0  0  0  0  0  0  0  0  0  0  0
    3.9238    1.3356   -1.3348 C   0  0  0  0  0  0  0  0  0  0  0  0
    4.0155   -1.2007   -1.3232 C   0  0  0  0  0  0  0  0  0  0  0  0
    3.2399    0.0034    1.2068 H   0  0  0  0  0  0  0  0  0  0  0  0
    1.9648   -0.0124    3.3371 H   0  0  0  0  0  0  0  0  0  0  0  0
   -0.4919   -0.0348    3.3486 H   0  0  0  0  0  0  0  0  0  0  0  0
   -1.7840   -0.0322    1.2108 H   0  0  0  0  0  0  0  0  0  0  0  0
   -2.2806    1.8443   -0.8571 H   0  0  0  0  0  0  0  0  0  0  0  0
   -4.6198    1.8895   -1.7295 H   0  0  0  0  0  0  0  0  0  0  0  0
   -3.9065   -1.8567   -3.7782 H   0  0  0  0  0  0  0  0  0  0  0  0
   -1.5736   -1.8809   -2.8886 H   0  0  0  0  0  0  0  0  0  0  0  0
    1.5681   -0.7106   -4.0374 H   0  0  0  0  0  0  0  0  0  0  0  0
   -0.7729    1.3317   -3.9219 H   0  0  0  0  0  0  0  0  0  0  0  0
   -2.0873    1.3400   -6.1975 H   0  0  0  0  0  0  0  0  0  0  0  0
   -2.1341   -0.3057   -5.5819 H   0  0  0  0  0  0  0  0  0  0  0  0
    0.2011   -0.1045   -8.1320 H   0  0  0  0  0  0  0  0  0  0  0  0
   -2.6795   -2.0220   -7.0390 H   0  0  0  0  0  0  0  0  0  0  0  0
   -0.9672   -2.1923   -7.4544 H   0  0  0  0  0  0  0  0  0  0  0  0
   -1.0783   -0.8621   -9.9299 H   0  0  0  0  0  0  0  0  0  0  0  0
    0.3835   -1.4168   -5.8973 H   0  0  0  0  0  0  0  0  0  0  0  0
    3.2274    0.0375   -2.9284 H   0  0  0  0  0  0  0  0  0  0  0  0
    4.0040    1.3930   -0.2432 H   0  0  0  0  0  0  0  0  0  0  0  0
    3.3577    2.2179   -1.6605 H   0  0  0  0  0  0  0  0  0  0  0  0
    4.9362    1.4189   -1.7455 H   0  0  0  0  0  0  0  0  0  0  0  0
    4.1047   -1.2373   -0.2311 H   0  0  0  0  0  0  0  0  0  0  0  0
    5.0288   -1.2174   -1.7392 H   0  0  0  0  0  0  0  0  0  0  0  0
    3.5091   -2.1251   -1.6297 H   0  0  0  0  0  0  0  0  0  0  0  0
  1  6  1  0  0  0  0
  2  1  2  0  0  0  0
  2  3  1  0  0  0  0
  3 33  1  0  0  0  0
  3  4  2  0  0  0  0
  4  5  1  0  0  0  0
  4 34  1  0  0  0  0
  5 35  1  0  0  0  0
  6  5  2  0  0  0  0
  7  2  1  0  0  0  0
  8  9  2  0  0  0  0
  8  7  1  0  0  0  0
  9  1  1  0  0  0  0
 10 11  1  0  0  0  0
 10  9  1  0  0  0  0
 11 37  1  0  0  0  0
 12 38  1  0  0  0  0
 12 11  2  0  0  0  0
 13 12  1  0  0  0  0
 14 13  2  0  0  0  0
 14 15  1  0  0  0  0
 15 10  2  0  0  0  0
 16 13  1  0  0  0  0
 17  8  1  0  0  0  0
 18 42  1  0  0  0  0
 18 17  2  0  0  0  0
 19 20  1  6  0  0  0
 19 18  1  0  0  0  0
 21 43  1  0  0  0  0
 21 19  1  0  0  0  0
 21 44  1  0  0  0  0
 22 23  1  6  0  0  0
 22 21  1  0  0  0  0
 24 45  1  0  0  0  0
 24 22  1  0  0  0  0
 25 22  1  0  0  0  0
 25 47  1  0  0  0  0
 25 46  1  0  0  0  0
 26 25  1  0  0  0  0
 27 26  2  0  0  0  0
 28 48  1  0  0  0  0
 28 26  1  0  0  0  0
 29 49  1  0  0  0  0
 29 19  1  0  0  0  0
 30 31  1  0  0  0  0
 30  7  1  0  0  0  0
 30 32  1  0  0  0  0
 31 51  1  0  0  0  0
 32 54  1  0  0  0  0
 36  6  1  0  0  0  0
 39 14  1  0  0  0  0
 40 15  1  0  0  0  0
 41 17  1  0  0  0  0
 50 30  1  0  0  0  0
 52 31  1  0  0  0  0
 53 31  1  0  0  0  0
 55 32  1  0  0  0  0
 56 32  1  0  0  0  0
M  END
$$$$
