56

C          0.03850        0.04860       -0.03100
C          1.46180        0.00290        0.04120
C          2.13090        0.06840        1.27320
C          1.36090        0.18240        2.42710
C         -0.04890        0.24000        2.36920
C         -0.71460        0.17860        1.15130
N          1.95640       -0.09690       -1.24880
C          0.88230       -0.12410       -2.13620
C         -0.31170       -0.02440       -1.42310
C         -1.66760        0.06860       -1.99650
C         -1.97080        1.02650       -2.98430
C         -3.23560        1.09010       -3.56970
C         -4.22050        0.19630       -3.14620
C         -3.96660       -0.74280       -2.15190
C         -2.69100       -0.80120       -1.58400
F         -5.43800        0.25390       -3.70270
C          1.01000       -0.23040       -3.58810
C          0.18980       -0.99930       -4.32420
C          0.03080       -0.97210       -5.81570
H          0.21400       -1.98340       -6.22220
C          0.93430        0.01920       -6.54670
C          0.71640        0.04130       -8.06340
H          0.87530       -0.98150       -8.45770
O         -0.60740        0.46810       -8.39100
C          1.68440        0.98310       -8.78360
C          1.61480        2.43610       -8.31090
O          2.58910        3.11850       -8.12980
O          0.37210        2.90600       -8.12220
O         -1.36130       -0.71640       -6.11100
C          3.38280       -0.20620       -1.57340
C          3.70190       -1.47670       -2.36580
C          3.91740        1.06920       -2.23190
H          3.21970        0.04010        1.33890
H          1.86020        0.23520        3.39730
H         -0.61890        0.33800        3.29580
H         -1.80440        0.23210        1.10470
H         -1.19850        1.73410       -3.29160
H         -3.48190        1.83850       -4.32600
H         -4.76290       -1.42130       -1.84080
H         -2.47680       -1.55120       -0.81980
H          1.75470        0.40060       -4.08090
H         -0.52750       -1.64930       -3.81390
H          1.98620       -0.23960       -6.34380
H          0.76270        1.03200       -6.14560
H         -1.20370        0.05400       -7.73200
H          1.44040        0.96380       -9.85950
H          2.72270        0.64510       -8.66980
H         -0.26640        2.16860       -8.27790
H         -1.71310       -0.11830       -5.43120
H          3.88170       -0.30270       -0.59930
H          3.27590       -1.44870       -3.37860
H          3.30190       -2.36400       -1.85270
H          4.79250       -1.59210       -2.46050
H          3.50030        1.22030       -3.23870
H          5.01220        1.01340       -2.33250
H          3.67010        1.95180       -1.62370
