56

C          0.02020        0.08520        0.06880
C          1.44580        0.03280        0.04720
C          2.18770        0.06350        1.24000
C          1.49110        0.13860        2.44290
C          0.08070        0.17540        2.47660
C         -0.65840        0.14500        1.30060
N          1.84750       -0.05590       -1.27610
C          0.71310       -0.04970       -2.09000
C         -0.42850        0.02640       -1.29650
C         -1.83350       -0.01250       -1.74500
C         -2.74460        0.97950       -1.34160
C         -4.07500        0.95960       -1.76770
C         -4.49770       -0.06440       -2.60970
C         -3.62690       -1.07250       -3.02110
C         -2.30470       -1.04300       -2.58000
F         -5.77110       -0.08740       -3.03020
C          0.79620       -0.11490       -3.54590
C         -0.02920        0.55300       -4.36830
C         -0.07600        0.38240       -5.85860
H          0.37630        1.26450       -6.34400
C         -1.53070        0.27430       -6.35160
C         -1.65430       -0.13320       -7.83880
H         -2.46650        0.45120       -8.29800
O         -0.48420        0.21570       -8.58920
C         -1.97420       -1.62330       -8.01910
C         -2.21710       -2.07410       -9.46330
O         -2.98660       -2.95630       -9.73950
O         -1.49590       -1.44120      -10.39720
O          0.72370       -0.70900       -6.31910
C          3.22760       -0.00620       -1.77030
C          3.91530        1.31230       -1.40260
C          4.02360       -1.24610       -1.35310
H          3.27610        0.02450        1.24180
H          2.05130        0.16350        3.38040
H         -0.43180        0.22510        3.44000
H         -1.75000        0.16470        1.32410
H         -2.39900        1.78930       -0.69590
H         -4.78560        1.72950       -1.46180
H         -4.00020       -1.87170       -3.66440
H         -1.61720       -1.83450       -2.88340
H          1.55430       -0.76980       -3.98890
H         -0.76320        1.24700       -3.94910
H         -2.00890        1.25180       -6.18260
H         -2.08050       -0.44550       -5.72320
H          0.26230       -0.22490       -8.13880
H         -2.86760       -1.90550       -7.44490
H         -1.13550       -2.22200       -7.62060
H         -0.94580       -0.74510       -9.96720
H          0.43290       -1.51230       -5.86150
H          3.14180       -0.02450       -2.86500
H          4.05470        1.41680       -0.31750
H          3.31780        2.16740       -1.75190
H          4.90640        1.36470       -1.87870
H          4.16990       -1.29580       -0.26480
H          5.01710       -1.23340       -1.82710
H          3.50230       -2.16350       -1.66520
