56
rmsd75.gzmat
C          0.00000        0.00000        0.00000
C          1.43320        0.00000        0.00000
C          2.15610        0.00000        1.20360
C          1.43840        0.00450        2.38320
C          0.02640        0.01210        2.39150
C         -0.69530        0.01310        1.21430
N          1.86140        0.01710       -1.32800
C          0.73170        0.00600       -2.15750
C         -0.42040        0.00090       -1.37040
C         -1.79040        0.00650       -1.83830
C         -2.23200        1.01330       -2.70650
C         -3.54080        1.01420       -3.17670
C         -4.39070       -0.00450       -2.74740
C         -3.98530       -1.01490       -1.87700
C         -2.66920       -1.00090       -1.42450
F         -5.64090       -0.01350       -3.18610
C          0.81260        0.03380       -3.60460
C         -0.01840       -0.69190       -4.36200
C         -0.03020       -0.61100       -5.85500
H          0.97630       -0.81650       -6.29560
C         -0.60830        0.73400       -6.32340
C         -0.39640        0.92720       -7.83000
H          0.68150        0.84350       -8.10430
O         -1.06880       -0.08560       -8.56570
C         -0.97430        2.25520       -8.33460
C         -2.42160        2.45680       -7.95250
O         -2.87920        3.47180       -7.50100
O         -3.24190        1.40260       -8.16360
O         -0.80050       -1.66480       -6.41110
C          3.24420       -0.11030       -1.79840
C          4.06800        1.10540       -1.35260
C          3.86130       -1.42410       -1.29860
H          3.24030       -0.00060        1.20610
H          1.96600        0.00480        3.33630
H         -0.48980        0.01970        3.34910
H         -1.78400        0.02850        1.21170
H         -1.54250        1.80230       -3.00620
H         -3.89010        1.79370       -3.85340
H         -4.67520       -1.79220       -1.55540
H         -2.31420       -1.77850       -0.74780
H          1.56050        0.70420       -4.03260
H         -0.74380       -1.38250       -3.92300
H         -0.14810        1.57060       -5.76240
H         -1.69040        0.78130       -6.07480
H         -1.03510       -0.94190       -8.06420
H         -0.89440        2.29140       -9.44560
H         -0.36770        3.10700       -7.96470
H         -2.73740        0.58830       -8.46620
H         -1.68250       -1.73460       -5.98560
H          3.22380       -0.13650       -2.92470
H          4.13840        1.17980       -0.26100
H          3.61860        2.04230       -1.70500
H          5.08890        1.05260       -1.74590
H          3.88060       -1.48320       -0.20380
H          4.89120       -1.53520       -1.65410
H          3.28780       -2.29090       -1.65220
