rmsd248.gzmat
 OpenBabel08211713363D

 56 58  0  0  1  0  0  0  0  0999 V2000
    0.0000    0.0000    0.0000 C   0  0  0  0  0  0  0  0  0  0  0  0
    1.4316    0.0000    0.0000 C   0  0  0  0  0  0  0  0  0  0  0  0
    2.1615    0.0000    1.1995 C   0  0  0  0  0  0  0  0  0  0  0  0
    1.4466    0.0006    2.3805 C   0  0  0  0  0  0  0  0  0  0  0  0
    0.0335    0.0027    2.3915 C   0  0  0  0  0  0  0  0  0  0  0  0
   -0.6924    0.0047    1.2172 C   0  0  0  0  0  0  0  0  0  0  0  0
    1.8640    0.0046   -1.3269 N   0  0  0  0  0  0  0  0  0  0  0  0
    0.7381   -0.0045   -2.1580 C   0  0  0  0  0  0  0  0  0  0  0  0
   -0.4157    0.0039   -1.3705 C   0  0  0  0  0  0  0  0  0  0  0  0
   -1.7837    0.0464   -1.8423 C   0  0  0  0  0  0  0  0  0  0  0  0
   -2.2080    1.1128   -2.6453 C   0  0  0  0  0  0  0  0  0  0  0  0
   -3.5145    1.1589   -3.1208 C   0  0  0  0  0  0  0  0  0  0  0  0
   -4.3758    0.1208   -2.7681 C   0  0  0  0  0  0  0  0  0  0  0  0
   -3.9879   -0.9475   -1.9612 C   0  0  0  0  0  0  0  0  0  0  0  0
   -2.6764   -0.9743   -1.4961 C   0  0  0  0  0  0  0  0  0  0  0  0
   -5.6215    0.1529   -3.2193 F   0  0  0  0  0  0  0  0  0  0  0  0
    0.8055   -0.0179   -3.6073 C   0  0  0  0  0  0  0  0  0  0  0  0
   -0.0225   -0.7760   -4.3347 C   0  0  0  0  0  0  0  0  0  0  0  0
   -0.0807   -0.8071   -5.8309 C   0  0  2  0  0  0  0  0  0  0  0  0
   -0.0560   -1.8614   -6.2082 H   0  0  0  0  0  0  0  0  0  0  0  0
    0.9856    0.0515   -6.5241 C   0  0  0  0  0  0  0  0  0  0  0  0
    0.9303   -0.1217   -8.0485 C   0  0  1  0  0  0  0  0  0  0  0  0
    0.9258   -1.1977   -8.3410 H   0  0  0  0  0  0  0  0  0  0  0  0
   -0.2701    0.4412   -8.5592 O   0  0  0  0  0  0  0  0  0  0  0  0
    2.0668    0.6245   -8.7585 C   0  0  0  0  0  0  0  0  0  0  0  0
    2.1765    2.0677   -8.3294 C   0  0  0  0  0  0  0  0  0  0  0  0
    3.1984    2.6209   -8.0232 O   0  0  0  0  0  0  0  0  0  0  0  0
    1.0190    2.7674   -8.3073 O   0  0  0  0  0  0  0  0  0  0  0  0
   -1.3699   -0.3757   -6.2539 O   0  0  0  0  0  0  0  0  0  0  0  0
    3.2733   -0.0215   -1.7305 C   0  0  0  0  0  0  0  0  0  0  0  0
    3.5633   -1.2366   -2.6207 C   0  0  0  0  0  0  0  0  0  0  0  0
    3.6616    1.2940   -2.4192 C   0  0  0  0  0  0  0  0  0  0  0  0
    3.2456    0.0015    1.1965 H   0  0  0  0  0  0  0  0  0  0  0  0
    1.9752    0.0013    3.3330 H   0  0  0  0  0  0  0  0  0  0  0  0
   -0.4804    0.0047    3.3503 H   0  0  0  0  0  0  0  0  0  0  0  0
   -1.7806    0.0118    1.2175 H   0  0  0  0  0  0  0  0  0  0  0  0
   -1.5082    1.9135   -2.8853 H   0  0  0  0  0  0  0  0  0  0  0  0
   -3.8542    1.9871   -3.7391 H   0  0  0  0  0  0  0  0  0  0  0  0
   -4.6868   -1.7392   -1.6997 H   0  0  0  0  0  0  0  0  0  0  0  0
   -2.3363   -1.7931   -0.8616 H   0  0  0  0  0  0  0  0  0  0  0  0
    1.5545    0.6431   -4.0519 H   0  0  0  0  0  0  0  0  0  0  0  0
   -0.7600   -1.4308   -3.8575 H   0  0  0  0  0  0  0  0  0  0  0  0
    1.9917   -0.2192   -6.1509 H   0  0  0  0  0  0  0  0  0  0  0  0
    0.8393    1.1211   -6.2628 H   0  0  0  0  0  0  0  0  0  0  0  0
   -1.0197    0.2079   -7.9479 H   0  0  0  0  0  0  0  0  0  0  0  0
    1.8966    0.5923   -9.8595 H   0  0  0  0  0  0  0  0  0  0  0  0
    3.0339    0.1079   -8.5918 H   0  0  0  0  0  0  0  0  0  0  0  0
    0.2221    2.1816   -8.4865 H   0  0  0  0  0  0  0  0  0  0  0  0
   -1.6990    0.3668   -5.7013 H   0  0  0  0  0  0  0  0  0  0  0  0
    3.8857   -0.1215   -0.7878 H   0  0  0  0  0  0  0  0  0  0  0  0
    3.0220   -1.1974   -3.5722 H   0  0  0  0  0  0  0  0  0  0  0  0
    3.2711   -2.1708   -2.1234 H   0  0  0  0  0  0  0  0  0  0  0  0
    4.6327   -1.3030   -2.8510 H   0  0  0  0  0  0  0  0  0  0  0  0
    3.2328    1.3892   -3.4224 H   0  0  0  0  0  0  0  0  0  0  0  0
    4.7504    1.3721   -2.5228 H   0  0  0  0  0  0  0  0  0  0  0  0
    3.3222    2.1625   -1.8373 H   0  0  0  0  0  0  0  0  0  0  0  0
  1  6  1  0  0  0  0
  2  1  2  0  0  0  0
  2  3  1  0  0  0  0
  3  4  2  0  0  0  0
  4  5  1  0  0  0  0
  4 34  1  0  0  0  0
  5 35  1  0  0  0  0
  6 36  1  0  0  0  0
  6  5  2  0  0  0  0
  7  2  1  0  0  0  0
  8  9  2  0  0  0  0
  8  7  1  0  0  0  0
  9  1  1  0  0  0  0
 10 15  1  0  0  0  0
 10  9  1  0  0  0  0
 11 10  2  0  0  0  0
 12 13  2  0  0  0  0
 12 11  1  0  0  0  0
 13 14  1  0  0  0  0
 14 39  1  0  0  0  0
 14 15  2  0  0  0  0
 15 40  1  0  0  0  0
 16 13  1  0  0  0  0
 17  8  1  0  0  0  0
 18 42  1  0  0  0  0
 18 17  2  0  0  0  0
 19 20  1  6  0  0  0
 19 18  1  0  0  0  0
 21 44  1  0  0  0  0
 21 43  1  0  0  0  0
 21 19  1  0  0  0  0
 22 23  1  6  0  0  0
 22 21  1  0  0  0  0
 24 22  1  0  0  0  0
 24 45  1  0  0  0  0
 25 47  1  0  0  0  0
 25 26  1  0  0  0  0
 25 22  1  0  0  0  0
 26 28  1  0  0  0  0
 26 27  2  0  0  0  0
 29 19  1  0  0  0  0
 29 49  1  0  0  0  0
 30  7  1  0  0  0  0
 30 50  1  0  0  0  0
 31 52  1  0  0  0  0
 31 30  1  0  0  0  0
 32 56  1  0  0  0  0
 32 30  1  0  0  0  0
 33  3  1  0  0  0  0
 37 11  1  0  0  0  0
 38 12  1  0  0  0  0
 41 17  1  0  0  0  0
 46 25  1  0  0  0  0
 48 28  1  0  0  0  0
 51 31  1  0  0  0  0
 53 31  1  0  0  0  0
 54 32  1  0  0  0  0
 55 32  1  0  0  0  0
M  END
$$$$
