56
rmsd170.gzmat
C          0.00000        0.00000        0.00000
C          1.43340        0.00000        0.00000
C          2.15800        0.00000        1.20120
C          1.44200       -0.00040        2.38250
C          0.03060       -0.00080        2.39190
C         -0.69300        0.00180        1.21530
N          1.86020        0.00510       -1.33100
C          0.73520        0.00430       -2.15260
C         -0.42070        0.00660       -1.37150
C         -1.78540        0.01030       -1.84890
C         -2.20400        0.98290       -2.76560
C         -3.51650        1.00120       -3.22660
C         -4.39520        0.03340       -2.74220
C         -4.01100       -0.94890       -1.83080
C         -2.69240       -0.95200       -1.38680
F         -5.64730        0.04600       -3.17370
C          0.77430       -0.06150       -3.60470
C          0.99540       -1.21770       -4.23690
C          0.80330       -1.39040       -5.71460
H          1.45520       -0.70420       -6.30830
C         -0.68230       -1.20410       -6.08990
C         -1.57620       -2.30370       -5.50210
H         -1.40040       -3.28390       -6.01040
O         -1.21620       -2.60610       -4.16840
C         -3.05220       -1.89870       -5.55430
C         -3.98880       -3.01730       -5.15880
O         -5.03530       -3.25100       -5.69830
O         -3.62120       -3.77190       -4.09780
O          1.25730       -2.65770       -6.12570
C          3.24170       -0.05640       -1.81970
C          4.03670        1.16020       -1.32860
C          3.90070       -1.37180       -1.38410
H          3.24210        0.00060        1.20140
H          1.97030        0.00060        3.33520
H         -0.48520       -0.00250        3.34980
H         -1.78100        0.00910        1.21600
H         -1.49820        1.74290       -3.09890
H         -3.84980        1.76460       -3.92630
H         -4.72170       -1.69580       -1.47490
H         -2.35830       -1.70410       -0.66950
H          0.52780        0.86670       -4.12170
H          1.27920       -2.12880       -3.70200
H         -0.77570       -1.21670       -7.19510
H         -1.01860       -0.20150       -5.76670
H         -1.24460       -1.81280       -3.57860
H         -3.32370       -1.54630       -6.57290
H         -3.24530       -1.02770       -4.88770
H         -2.69470       -3.57710       -3.78190
H          0.79200       -3.36760       -5.62940
H          3.20150       -0.02690       -2.94690
H          4.18170        1.15120       -0.24240
H          3.52190        2.09770       -1.57510
H          5.02850        1.19150       -1.79320
H          3.92120       -1.48130       -0.29300
H          4.93460       -1.43000       -1.74230
H          3.36040       -2.24020       -1.78170
