
     RDKit          3D

 56 58  0  0  0  0  0  0  0  0999 V2000
    0.0385    0.0486   -0.0310 C   0  0  0  0  0  0  0  0  0  0  0  0
    1.4618    0.0029    0.0412 C   0  0  0  0  0  0  0  0  0  0  0  0
    2.1309    0.0684    1.2732 C   0  0  0  0  0  0  0  0  0  0  0  0
    1.3609    0.1824    2.4271 C   0  0  0  0  0  0  0  0  0  0  0  0
   -0.0489    0.2400    2.3692 C   0  0  0  0  0  0  0  0  0  0  0  0
   -0.7146    0.1786    1.1513 C   0  0  0  0  0  0  0  0  0  0  0  0
    1.9564   -0.0969   -1.2488 N   0  0  0  0  0  0  0  0  0  0  0  0
    0.8823   -0.1241   -2.1362 C   0  0  0  0  0  0  0  0  0  0  0  0
   -0.3117   -0.0244   -1.4231 C   0  0  0  0  0  0  0  0  0  0  0  0
   -1.6676    0.0686   -1.9965 C   0  0  0  0  0  0  0  0  0  0  0  0
   -1.9708    1.0265   -2.9843 C   0  0  0  0  0  0  0  0  0  0  0  0
   -3.2356    1.0901   -3.5697 C   0  0  0  0  0  0  0  0  0  0  0  0
   -4.2205    0.1963   -3.1462 C   0  0  0  0  0  0  0  0  0  0  0  0
   -3.9666   -0.7428   -2.1519 C   0  0  0  0  0  0  0  0  0  0  0  0
   -2.6910   -0.8012   -1.5840 C   0  0  0  0  0  0  0  0  0  0  0  0
   -5.4380    0.2539   -3.7027 F   0  0  0  0  0  0  0  0  0  0  0  0
    1.0100   -0.2304   -3.5881 C   0  0  0  0  0  0  0  0  0  0  0  0
    0.1898   -0.9993   -4.3242 C   0  0  0  0  0  0  0  0  0  0  0  0
    0.0308   -0.9721   -5.8157 C   0  0  2  0  0  0  0  0  0  0  0  0
    0.2140   -1.9834   -6.2222 H   0  0  0  0  0  0  0  0  0  0  0  0
    0.9343    0.0192   -6.5467 C   0  0  0  0  0  0  0  0  0  0  0  0
    0.7164    0.0413   -8.0634 C   0  0  1  0  0  0  0  0  0  0  0  0
    0.8753   -0.9815   -8.4577 H   0  0  0  0  0  0  0  0  0  0  0  0
   -0.6074    0.4681   -8.3910 O   0  0  0  0  0  0  0  0  0  0  0  0
    1.6844    0.9831   -8.7836 C   0  0  0  0  0  0  0  0  0  0  0  0
    1.6148    2.4361   -8.3109 C   0  0  0  0  0  0  0  0  0  0  0  0
    2.5891    3.1185   -8.1298 O   0  0  0  0  0  0  0  0  0  0  0  0
    0.3721    2.9060   -8.1222 O   0  0  0  0  0  0  0  0  0  0  0  0
   -1.3613   -0.7164   -6.1110 O   0  0  0  0  0  0  0  0  0  0  0  0
    3.3828   -0.2062   -1.5734 C   0  0  0  0  0  0  0  0  0  0  0  0
    3.7019   -1.4767   -2.3658 C   0  0  0  0  0  0  0  0  0  0  0  0
    3.9174    1.0692   -2.2319 C   0  0  0  0  0  0  0  0  0  0  0  0
    3.2197    0.0401    1.3389 H   0  0  0  0  0  0  0  0  0  0  0  0
    1.8602    0.2352    3.3973 H   0  0  0  0  0  0  0  0  0  0  0  0
   -0.6189    0.3380    3.2958 H   0  0  0  0  0  0  0  0  0  0  0  0
   -1.8044    0.2321    1.1047 H   0  0  0  0  0  0  0  0  0  0  0  0
   -1.1985    1.7341   -3.2916 H   0  0  0  0  0  0  0  0  0  0  0  0
   -3.4819    1.8385   -4.3260 H   0  0  0  0  0  0  0  0  0  0  0  0
   -4.7629   -1.4213   -1.8408 H   0  0  0  0  0  0  0  0  0  0  0  0
   -2.4768   -1.5512   -0.8198 H   0  0  0  0  0  0  0  0  0  0  0  0
    1.7547    0.4006   -4.0809 H   0  0  0  0  0  0  0  0  0  0  0  0
   -0.5275   -1.6493   -3.8139 H   0  0  0  0  0  0  0  0  0  0  0  0
    1.9862   -0.2396   -6.3438 H   0  0  0  0  0  0  0  0  0  0  0  0
    0.7627    1.0320   -6.1456 H   0  0  0  0  0  0  0  0  0  0  0  0
   -1.2037    0.0540   -7.7320 H   0  0  0  0  0  0  0  0  0  0  0  0
    1.4404    0.9638   -9.8595 H   0  0  0  0  0  0  0  0  0  0  0  0
    2.7227    0.6451   -8.6698 H   0  0  0  0  0  0  0  0  0  0  0  0
   -0.2664    2.1686   -8.2779 H   0  0  0  0  0  0  0  0  0  0  0  0
   -1.7131   -0.1183   -5.4312 H   0  0  0  0  0  0  0  0  0  0  0  0
    3.8817   -0.3027   -0.5993 H   0  0  0  0  0  0  0  0  0  0  0  0
    3.2759   -1.4487   -3.3786 H   0  0  0  0  0  0  0  0  0  0  0  0
    3.3019   -2.3640   -1.8527 H   0  0  0  0  0  0  0  0  0  0  0  0
    4.7925   -1.5921   -2.4605 H   0  0  0  0  0  0  0  0  0  0  0  0
    3.5003    1.2203   -3.2387 H   0  0  0  0  0  0  0  0  0  0  0  0
    5.0122    1.0134   -2.3325 H   0  0  0  0  0  0  0  0  0  0  0  0
    3.6701    1.9518   -1.6237 H   0  0  0  0  0  0  0  0  0  0  0  0
  1  2  1  0
  1  6  2  0
  1  9  1  0
  2  3  2  0
  2  7  1  0
  3  4  1  0
  3 33  1  0
  4  5  2  0
  4 34  1  0
  5  6  1  0
  5 35  1  0
  6 36  1  0
  7  8  1  0
  7 30  1  0
  8  9  2  0
  8 17  1  0
  9 10  1  0
 10 11  2  0
 10 15  1  0
 11 12  1  0
 11 37  1  0
 12 13  2  0
 12 38  1  0
 13 14  1  0
 13 16  1  0
 14 15  2  0
 14 39  1  0
 15 40  1  0
 17 18  2  0
 17 41  1  0
 18 19  1  0
 18 42  1  0
 19 20  1  6
 19 21  1  0
 19 29  1  0
 21 22  1  0
 21 43  1  0
 21 44  1  0
 22 23  1  6
 22 24  1  0
 22 25  1  0
 24 45  1  0
 25 26  1  0
 25 46  1  0
 25 47  1  0
 26 27  2  0
 26 28  1  0
 28 48  1  0
 29 49  1  0
 30 31  1  0
 30 32  1  0
 30 50  1  0
 31 51  1  0
 31 52  1  0
 31 53  1  0
 32 54  1  0
 32 55  1  0
 32 56  1  0
M  END

