56

C          0.03650       -0.07390       -0.04240
C          1.44210        0.14140        0.06230
C          2.06280        0.25400        1.31810
C          1.26560        0.15720        2.45460
C         -0.12890       -0.03900        2.36230
C         -0.74850       -0.14890        1.12420
N          1.96620        0.22430       -1.21920
C          0.91830        0.07190       -2.13460
C         -0.27870       -0.12320       -1.44430
C         -1.61470       -0.29180       -2.03570
C         -2.07280        0.53900       -3.07680
C         -3.33640        0.36370       -3.64240
C         -4.16000       -0.64650       -3.15330
C         -3.74790       -1.48060       -2.11620
C         -2.48010       -1.29950       -1.56530
F         -5.37730       -0.81640       -3.68700
C          1.03120        0.13060       -3.58130
C          1.88950        0.84460       -4.33740
C          1.92660        0.84880       -5.83970
H          1.85740        1.89550       -6.18600
C          0.83660        0.03460       -6.53630
C          0.86690        0.16470       -8.06370
H          0.73940        1.23370       -8.32390
O          2.10440       -0.30060       -8.60850
C         -0.25240       -0.62450       -8.74670
C         -0.23290       -2.12900       -8.46720
O         -1.22690       -2.77310       -8.25980
O          0.98690       -2.68930       -8.48850
O          3.24100        0.43590       -6.28680
C          3.39580        0.14790       -1.55140
C          4.12320        1.45190       -1.21500
C          4.06130       -1.09480       -0.95010
H          3.13310        0.42810        1.41690
H          1.73100        0.24720        3.43890
H         -0.72470       -0.09660        3.27590
H         -1.82930       -0.28400        1.05090
H         -1.43740        1.35300       -3.42960
H         -3.69880        1.00730       -4.44600
H         -4.41840       -2.26590       -1.76280
H         -2.14110       -1.96550       -0.76990
H          0.25380       -0.44940       -4.08580
H          2.64000        1.49200       -3.87560
H         -0.15010        0.36710       -6.17730
H          0.93800       -1.02870       -6.25970
H          2.80940       -0.01660       -7.99070
H         -0.15220       -0.48310       -9.83640
H         -1.23920       -0.24490       -8.45090
H          1.65340       -1.97750       -8.64110
H          3.44950       -0.39340       -5.83010
H          3.42840        0.02020       -2.63890
H          4.12940        1.65080       -0.13360
H          3.63690        2.30690       -1.70890
H          5.16880        1.40300       -1.55630
H          4.12540       -1.05340        0.14540
H          5.08490       -1.19180       -1.34390
H          3.49970       -2.00090       -1.22260
