
     RDKit          3D

 56 58  0  0  0  0  0  0  0  0999 V2000
    0.0199    0.0746   -0.0950 C   0  0  0  0  0  0  0  0  0  0  0  0
    1.4365   -0.0395    0.0320 C   0  0  0  0  0  0  0  0  0  0  0  0
    2.0479   -0.0673    1.2973 C   0  0  0  0  0  0  0  0  0  0  0  0
    1.2317    0.0268    2.4208 C   0  0  0  0  0  0  0  0  0  0  0  0
   -0.1696    0.1542    2.3063 C   0  0  0  0  0  0  0  0  0  0  0  0
   -0.7795    0.1829    1.0588 C   0  0  0  0  0  0  0  0  0  0  0  0
    1.9734   -0.0951   -1.2430 N   0  0  0  0  0  0  0  0  0  0  0  0
    0.9298   -0.0295   -2.1718 C   0  0  0  0  0  0  0  0  0  0  0  0
   -0.2858    0.0848   -1.4998 C   0  0  0  0  0  0  0  0  0  0  0  0
   -1.6339    0.2402   -2.0848 C   0  0  0  0  0  0  0  0  0  0  0  0
   -1.9270    1.2615   -3.0085 C   0  0  0  0  0  0  0  0  0  0  0  0
   -3.1920    1.3859   -3.5838 C   0  0  0  0  0  0  0  0  0  0  0  0
   -4.1866    0.4832   -3.2090 C   0  0  0  0  0  0  0  0  0  0  0  0
   -3.9434   -0.5258   -2.2807 C   0  0  0  0  0  0  0  0  0  0  0  0
   -2.6672   -0.6428   -1.7256 C   0  0  0  0  0  0  0  0  0  0  0  0
   -5.4076    0.5901   -3.7477 F   0  0  0  0  0  0  0  0  0  0  0  0
    1.1587   -0.0549   -3.6109 C   0  0  0  0  0  0  0  0  0  0  0  0
    0.3106   -0.6106   -4.4929 C   0  0  0  0  0  0  0  0  0  0  0  0
    0.3565   -0.3814   -5.9720 C   0  0  2  0  0  0  0  0  0  0  0  0
    1.3662   -0.0413   -6.2783 H   0  0  0  0  0  0  0  0  0  0  0  0
   -0.6685    0.6951   -6.3427 C   0  0  0  0  0  0  0  0  0  0  0  0
   -0.9247    0.8809   -7.8404 C   0  0  1  0  0  0  0  0  0  0  0  0
    0.0376    1.0402   -8.3648 H   0  0  0  0  0  0  0  0  0  0  0  0
   -1.5870   -0.2555   -8.3980 O   0  0  0  0  0  0  0  0  0  0  0  0
   -1.8270    2.0917   -8.1016 C   0  0  0  0  0  0  0  0  0  0  0  0
   -3.1289    2.0313   -7.3050 C   0  0  0  0  0  0  0  0  0  0  0  0
   -3.5396    2.9461   -6.6352 O   0  0  0  0  0  0  0  0  0  0  0  0
   -3.7822    0.8654   -7.3875 O   0  0  0  0  0  0  0  0  0  0  0  0
    0.0033   -1.5670   -6.6957 O   0  0  0  0  0  0  0  0  0  0  0  0
    3.3787   -0.3336   -1.5834 C   0  0  0  0  0  0  0  0  0  0  0  0
    4.2702    0.8397   -1.1661 C   0  0  0  0  0  0  0  0  0  0  0  0
    3.8692   -1.6874   -1.0599 C   0  0  0  0  0  0  0  0  0  0  0  0
    3.1275   -0.1526    1.4133 H   0  0  0  0  0  0  0  0  0  0  0  0
    1.6895    0.0075    3.4126 H   0  0  0  0  0  0  0  0  0  0  0  0
   -0.7765    0.2346    3.2110 H   0  0  0  0  0  0  0  0  0  0  0  0
   -1.8621    0.2897    0.9645 H   0  0  0  0  0  0  0  0  0  0  0  0
   -1.1411    1.9663   -3.2863 H   0  0  0  0  0  0  0  0  0  0  0  0
   -3.4232    2.1584   -4.3209 H   0  0  0  0  0  0  0  0  0  0  0  0
   -4.7497   -1.2104   -2.0114 H   0  0  0  0  0  0  0  0  0  0  0  0
   -2.4611   -1.4444   -1.0132 H   0  0  0  0  0  0  0  0  0  0  0  0
    2.0355    0.4811   -3.9967 H   0  0  0  0  0  0  0  0  0  0  0  0
   -0.5696   -1.1562   -4.1389 H   0  0  0  0  0  0  0  0  0  0  0  0
   -0.3273    1.6465   -5.9076 H   0  0  0  0  0  0  0  0  0  0  0  0
   -1.6240    0.4509   -5.8527 H   0  0  0  0  0  0  0  0  0  0  0  0
   -1.1481   -1.0423   -8.0218 H   0  0  0  0  0  0  0  0  0  0  0  0
   -2.0668    2.1172   -9.1778 H   0  0  0  0  0  0  0  0  0  0  0  0
   -1.3170    3.0276   -7.8401 H   0  0  0  0  0  0  0  0  0  0  0  0
   -3.2126    0.2212   -7.8714 H   0  0  0  0  0  0  0  0  0  0  0  0
    0.5777   -2.2930   -6.4202 H   0  0  0  0  0  0  0  0  0  0  0  0
    3.4034   -0.3909   -2.6801 H   0  0  0  0  0  0  0  0  0  0  0  0
    4.3110    0.9573   -0.0739 H   0  0  0  0  0  0  0  0  0  0  0  0
    3.8935    1.7818   -1.5920 H   0  0  0  0  0  0  0  0  0  0  0  0
    5.2981    0.6813   -1.5274 H   0  0  0  0  0  0  0  0  0  0  0  0
    3.8896   -1.7225    0.0382 H   0  0  0  0  0  0  0  0  0  0  0  0
    4.8892   -1.8851   -1.4244 H   0  0  0  0  0  0  0  0  0  0  0  0
    3.2119   -2.4963   -1.4122 H   0  0  0  0  0  0  0  0  0  0  0  0
  1  2  1  0
  1  6  2  0
  1  9  1  0
  2  3  2  0
  2  7  1  0
  3  4  1  0
  3 33  1  0
  4  5  2  0
  4 34  1  0
  5  6  1  0
  5 35  1  0
  6 36  1  0
  7  8  1  0
  7 30  1  0
  8  9  2  0
  8 17  1  0
  9 10  1  0
 10 11  2  0
 10 15  1  0
 11 12  1  0
 11 37  1  0
 12 13  2  0
 12 38  1  0
 13 14  1  0
 13 16  1  0
 14 15  2  0
 14 39  1  0
 15 40  1  0
 17 18  2  0
 17 41  1  0
 18 19  1  0
 18 42  1  0
 19 20  1  6
 19 21  1  0
 19 29  1  0
 21 22  1  0
 21 43  1  0
 21 44  1  0
 22 23  1  6
 22 24  1  0
 22 25  1  0
 24 45  1  0
 25 26  1  0
 25 46  1  0
 25 47  1  0
 26 27  2  0
 26 28  1  0
 28 48  1  0
 29 49  1  0
 30 31  1  0
 30 32  1  0
 30 50  1  0
 31 51  1  0
 31 52  1  0
 31 53  1  0
 32 54  1  0
 32 55  1  0
 32 56  1  0
M  END

