rmsd179.gzmat
 OpenBabel08211713363D

 56 58  0  0  1  0  0  0  0  0999 V2000
    0.0000    0.0000    0.0000 C   0  0  0  0  0  0  0  0  0  0  0  0
    1.4313    0.0000    0.0000 C   0  0  0  0  0  0  0  0  0  0  0  0
    2.1604    0.0000    1.1996 C   0  0  0  0  0  0  0  0  0  0  0  0
    1.4449   -0.0039    2.3805 C   0  0  0  0  0  0  0  0  0  0  0  0
    0.0323   -0.0135    2.3913 C   0  0  0  0  0  0  0  0  0  0  0  0
   -0.6928   -0.0138    1.2163 C   0  0  0  0  0  0  0  0  0  0  0  0
    1.8638   -0.0095   -1.3278 N   0  0  0  0  0  0  0  0  0  0  0  0
    0.7367   -0.0015   -2.1574 C   0  0  0  0  0  0  0  0  0  0  0  0
   -0.4170    0.0015   -1.3714 C   0  0  0  0  0  0  0  0  0  0  0  0
   -1.7884   -0.0031   -1.8335 C   0  0  0  0  0  0  0  0  0  0  0  0
   -2.6704    0.9923   -1.3957 C   0  0  0  0  0  0  0  0  0  0  0  0
   -3.9915    1.0040   -1.8327 C   0  0  0  0  0  0  0  0  0  0  0  0
   -4.4008   -0.0011   -2.7074 C   0  0  0  0  0  0  0  0  0  0  0  0
   -3.5505   -1.0100   -3.1565 C   0  0  0  0  0  0  0  0  0  0  0  0
   -2.2329   -1.0013   -2.7095 C   0  0  0  0  0  0  0  0  0  0  0  0
   -5.6570    0.0010   -3.1306 F   0  0  0  0  0  0  0  0  0  0  0  0
    0.8106   -0.0012   -3.6064 C   0  0  0  0  0  0  0  0  0  0  0  0
    0.0524    0.8201   -4.3409 C   0  0  0  0  0  0  0  0  0  0  0  0
    0.0488    0.8439   -5.8363 C   0  0  2  0  0  0  0  0  0  0  0  0
   -0.5726    0.0090   -6.2504 H   0  0  0  0  0  0  0  0  0  0  0  0
    1.4664    0.8553   -6.4271 C   0  0  0  0  0  0  0  0  0  0  0  0
    1.4337    0.7476   -7.9577 C   0  0  1  0  0  0  0  0  0  0  0  0
    0.8067   -0.1109   -8.2948 H   0  0  0  0  0  0  0  0  0  0  0  0
    0.8549    1.9161   -8.5211 O   0  0  0  0  0  0  0  0  0  0  0  0
    2.8395    0.6582   -8.5641 C   0  0  0  0  0  0  0  0  0  0  0  0
    3.7623    1.7448   -8.0678 C   0  0  0  0  0  0  0  0  0  0  0  0
    4.8873    1.5713   -7.6829 O   0  0  0  0  0  0  0  0  0  0  0  0
    3.2571    2.9999   -8.0789 O   0  0  0  0  0  0  0  0  0  0  0  0
   -0.6554    1.9846   -6.3074 O   0  0  0  0  0  0  0  0  0  0  0  0
    3.2712    0.0758   -1.7328 C   0  0  0  0  0  0  0  0  0  0  0  0
    3.7122   -1.2214   -2.4256 C   0  0  0  0  0  0  0  0  0  0  0  0
    3.5150    1.2999   -2.6239 C   0  0  0  0  0  0  0  0  0  0  0  0
    3.2445    0.0005    1.1983 H   0  0  0  0  0  0  0  0  0  0  0  0
    1.9734   -0.0022    3.3331 H   0  0  0  0  0  0  0  0  0  0  0  0
   -0.4818   -0.0237    3.3499 H   0  0  0  0  0  0  0  0  0  0  0  0
   -1.7811   -0.0288    1.2164 H   0  0  0  0  0  0  0  0  0  0  0  0
   -2.3128    1.7630   -0.7123 H   0  0  0  0  0  0  0  0  0  0  0  0
   -4.6807    1.7765   -1.4989 H   0  0  0  0  0  0  0  0  0  0  0  0
   -3.9036   -1.7840   -3.8336 H   0  0  0  0  0  0  0  0  0  0  0  0
   -1.5408   -1.7772   -3.0345 H   0  0  0  0  0  0  0  0  0  0  0  0
    1.5046   -0.7207   -4.0464 H   0  0  0  0  0  0  0  0  0  0  0  0
   -0.6478    1.5200   -3.8722 H   0  0  0  0  0  0  0  0  0  0  0  0
    2.0664    0.0267   -6.0056 H   0  0  0  0  0  0  0  0  0  0  0  0
    1.9906    1.7851   -6.1210 H   0  0  0  0  0  0  0  0  0  0  0  0
    0.0710    2.1853   -7.9721 H   0  0  0  0  0  0  0  0  0  0  0  0
    2.7662    0.7341   -9.6738 H   0  0  0  0  0  0  0  0  0  0  0  0
    3.2868   -0.3365   -8.3633 H   0  0  0  0  0  0  0  0  0  0  0  0
    2.2868    3.0129   -8.3387 H   0  0  0  0  0  0  0  0  0  0  0  0
   -0.4073    2.7933   -5.8115 H   0  0  0  0  0  0  0  0  0  0  0  0
    3.8784    0.1983   -0.7897 H   0  0  0  0  0  0  0  0  0  0  0  0
    3.2819   -1.3291   -3.4258 H   0  0  0  0  0  0  0  0  0  0  0  0
    3.4150   -2.1041   -1.8447 H   0  0  0  0  0  0  0  0  0  0  0  0
    4.8031   -1.2492   -2.5339 H   0  0  0  0  0  0  0  0  0  0  0  0
    2.9939    1.2300   -3.5849 H   0  0  0  0  0  0  0  0  0  0  0  0
    4.5840    1.4173   -2.8411 H   0  0  0  0  0  0  0  0  0  0  0  0
    3.1726    2.2223   -2.1364 H   0  0  0  0  0  0  0  0  0  0  0  0
  1  6  1  0  0  0  0
  2  1  2  0  0  0  0
  2  3  1  0  0  0  0
  3  4  2  0  0  0  0
  4  5  1  0  0  0  0
  4 34  1  0  0  0  0
  5 35  1  0  0  0  0
  6 36  1  0  0  0  0
  6  5  2  0  0  0  0
  7  2  1  0  0  0  0
  8  9  2  0  0  0  0
  8  7  1  0  0  0  0
  9  1  1  0  0  0  0
 10 11  2  0  0  0  0
 10  9  1  0  0  0  0
 11 37  1  0  0  0  0
 12 38  1  0  0  0  0
 12 11  1  0  0  0  0
 13 12  2  0  0  0  0
 14 15  2  0  0  0  0
 14 13  1  0  0  0  0
 15 10  1  0  0  0  0
 16 13  1  0  0  0  0
 17  8  1  0  0  0  0
 18 42  1  0  0  0  0
 18 17  2  0  0  0  0
 19 20  1  6  0  0  0
 19 18  1  0  0  0  0
 21 44  1  0  0  0  0
 21 43  1  0  0  0  0
 21 19  1  0  0  0  0
 22 23  1  6  0  0  0
 22 21  1  0  0  0  0
 24 45  1  0  0  0  0
 24 22  1  0  0  0  0
 25 47  1  0  0  0  0
 25 26  1  0  0  0  0
 25 22  1  0  0  0  0
 26 27  2  0  0  0  0
 28 26  1  0  0  0  0
 29 19  1  0  0  0  0
 29 49  1  0  0  0  0
 30  7  1  0  0  0  0
 30 50  1  0  0  0  0
 31 52  1  0  0  0  0
 31 30  1  0  0  0  0
 32 56  1  0  0  0  0
 32 30  1  0  0  0  0
 33  3  1  0  0  0  0
 39 14  1  0  0  0  0
 40 15  1  0  0  0  0
 41 17  1  0  0  0  0
 46 25  1  0  0  0  0
 48 28  1  0  0  0  0
 51 31  1  0  0  0  0
 53 31  1  0  0  0  0
 54 32  1  0  0  0  0
 55 32  1  0  0  0  0
M  END
$$$$
