
     RDKit          3D

 56 58  0  0  0  0  0  0  0  0999 V2000
    0.0177   -0.0363   -0.0293 C   0  0  0  0  0  0  0  0  0  0  0  0
    1.4397    0.0549   -0.0495 C   0  0  0  0  0  0  0  0  0  0  0  0
    2.1911   -0.0340    1.1336 C   0  0  0  0  0  0  0  0  0  0  0  0
    1.5041   -0.2198    2.3292 C   0  0  0  0  0  0  0  0  0  0  0  0
    0.0958   -0.3254    2.3616 C   0  0  0  0  0  0  0  0  0  0  0  0
   -0.6507   -0.2396    1.1938 C   0  0  0  0  0  0  0  0  0  0  0  0
    1.8422    0.2190   -1.3627 N   0  0  0  0  0  0  0  0  0  0  0  0
    0.7059    0.2435   -2.1794 C   0  0  0  0  0  0  0  0  0  0  0  0
   -0.4319    0.0807   -1.3885 C   0  0  0  0  0  0  0  0  0  0  0  0
   -1.8351   -0.0290   -1.8309 C   0  0  0  0  0  0  0  0  0  0  0  0
   -2.8279    0.7928   -1.2689 C   0  0  0  0  0  0  0  0  0  0  0  0
   -4.1633    0.6906   -1.6654 C   0  0  0  0  0  0  0  0  0  0  0  0
   -4.5070   -0.2442   -2.6370 C   0  0  0  0  0  0  0  0  0  0  0  0
   -3.5514   -1.0810   -3.2114 C   0  0  0  0  0  0  0  0  0  0  0  0
   -2.2242   -0.9723   -2.8000 C   0  0  0  0  0  0  0  0  0  0  0  0
   -5.7863   -0.3467   -3.0276 F   0  0  0  0  0  0  0  0  0  0  0  0
    0.7999    0.4362   -3.6195 C   0  0  0  0  0  0  0  0  0  0  0  0
   -0.1329    1.0160   -4.3970 C   0  0  0  0  0  0  0  0  0  0  0  0
   -0.0310    1.1979   -5.8841 C   0  0  2  0  0  0  0  0  0  0  0  0
   -0.8982    0.7064   -6.3611 H   0  0  0  0  0  0  0  0  0  0  0  0
    1.2493    0.6585   -6.5217 C   0  0  0  0  0  0  0  0  0  0  0  0
    1.3155    0.8523   -8.0405 C   0  0  1  0  0  0  0  0  0  0  0  0
    0.4434    0.3470   -8.4992 H   0  0  0  0  0  0  0  0  0  0  0  0
    1.2928    2.2367   -8.3942 O   0  0  0  0  0  0  0  0  0  0  0  0
    2.5874    0.2541   -8.6472 C   0  0  0  0  0  0  0  0  0  0  0  0
    3.8804    0.8191   -8.0575 C   0  0  0  0  0  0  0  0  0  0  0  0
    4.8264    0.1373   -7.7610 O   0  0  0  0  0  0  0  0  0  0  0  0
    3.8877    2.1520   -7.8978 O   0  0  0  0  0  0  0  0  0  0  0  0
   -0.2123    2.5976   -6.2021 O   0  0  0  0  0  0  0  0  0  0  0  0
    3.2427    0.4237   -1.7561 C   0  0  0  0  0  0  0  0  0  0  0  0
    3.8158   -0.7706   -2.5266 C   0  0  0  0  0  0  0  0  0  0  0  0
    3.4690    1.7674   -2.4562 C   0  0  0  0  0  0  0  0  0  0  0  0
    3.2803    0.0303    1.1306 H   0  0  0  0  0  0  0  0  0  0  0  0
    2.0687   -0.2922    3.2617 H   0  0  0  0  0  0  0  0  0  0  0  0
   -0.4075   -0.4802    3.3187 H   0  0  0  0  0  0  0  0  0  0  0  0
   -1.7387   -0.3296    1.2155 H   0  0  0  0  0  0  0  0  0  0  0  0
   -2.5448    1.5332   -0.5181 H   0  0  0  0  0  0  0  0  0  0  0  0
   -4.9386    1.3281   -1.2365 H   0  0  0  0  0  0  0  0  0  0  0  0
   -3.8617   -1.8118   -3.9604 H   0  0  0  0  0  0  0  0  0  0  0  0
   -1.4690   -1.6300   -3.2340 H   0  0  0  0  0  0  0  0  0  0  0  0
    1.7111    0.0668   -4.0905 H   0  0  0  0  0  0  0  0  0  0  0  0
   -1.0445    1.4225   -3.9512 H   0  0  0  0  0  0  0  0  0  0  0  0
    1.3344   -0.4175   -6.3033 H   0  0  0  0  0  0  0  0  0  0  0  0
    2.1212    1.1544   -6.0620 H   0  0  0  0  0  0  0  0  0  0  0  0
    0.6458    2.6651   -7.7958 H   0  0  0  0  0  0  0  0  0  0  0  0
    2.5821    0.4671   -9.7296 H   0  0  0  0  0  0  0  0  0  0  0  0
    2.6109   -0.8360   -8.5192 H   0  0  0  0  0  0  0  0  0  0  0  0
    2.9975    2.4999   -8.1455 H   0  0  0  0  0  0  0  0  0  0  0  0
    0.3084    3.1076   -5.5634 H   0  0  0  0  0  0  0  0  0  0  0  0
    3.7855    0.4735   -0.8028 H   0  0  0  0  0  0  0  0  0  0  0  0
    3.3856   -0.8689   -3.5341 H   0  0  0  0  0  0  0  0  0  0  0  0
    3.6284   -1.7072   -1.9810 H   0  0  0  0  0  0  0  0  0  0  0  0
    4.9032   -0.6511   -2.6480 H   0  0  0  0  0  0  0  0  0  0  0  0
    3.0189    1.7984   -3.4580 H   0  0  0  0  0  0  0  0  0  0  0  0
    4.5485    1.9479   -2.5722 H   0  0  0  0  0  0  0  0  0  0  0  0
    3.0415    2.5888   -1.8621 H   0  0  0  0  0  0  0  0  0  0  0  0
  1  2  1  0
  1  6  2  0
  1  9  1  0
  2  3  2  0
  2  7  1  0
  3  4  1  0
  3 33  1  0
  4  5  2  0
  4 34  1  0
  5  6  1  0
  5 35  1  0
  6 36  1  0
  7  8  1  0
  7 30  1  0
  8  9  2  0
  8 17  1  0
  9 10  1  0
 10 11  2  0
 10 15  1  0
 11 12  1  0
 11 37  1  0
 12 13  2  0
 12 38  1  0
 13 14  1  0
 13 16  1  0
 14 15  2  0
 14 39  1  0
 15 40  1  0
 17 18  2  0
 17 41  1  0
 18 19  1  0
 18 42  1  0
 19 20  1  6
 19 21  1  0
 19 29  1  0
 21 22  1  0
 21 43  1  0
 21 44  1  0
 22 23  1  6
 22 24  1  0
 22 25  1  0
 24 45  1  0
 25 26  1  0
 25 46  1  0
 25 47  1  0
 26 27  2  0
 26 28  1  0
 28 48  1  0
 29 49  1  0
 30 31  1  0
 30 32  1  0
 30 50  1  0
 31 51  1  0
 31 52  1  0
 31 53  1  0
 32 54  1  0
 32 55  1  0
 32 56  1  0
M  END

