56
rmsd182.gzmat
C          0.00000        0.00000        0.00000
C          1.43340        0.00000        0.00000
C          2.15580        0.00000        1.20420
C          1.43880        0.00640        2.38400
C          0.02670        0.01820        2.39260
C         -0.69460        0.01850        1.21550
N          1.86440        0.01880       -1.32800
C          0.73620        0.01330       -2.15510
C         -0.41910       -0.00270       -1.37040
C         -1.78100       -0.02590       -1.85640
C         -2.18370        0.85610       -2.86720
C         -3.48400        0.81750       -3.36150
C         -4.36300       -0.11770       -2.81870
C         -3.99850       -1.00320       -1.80530
C         -2.69390       -0.94770       -1.32610
F         -5.60120       -0.16810       -3.28930
C          0.75570        0.03260       -3.60600
C          1.44270        0.91760       -4.33350
C          1.39730        1.01680       -5.82750
H          0.79550        1.91110       -6.13680
C          0.91930       -0.25370       -6.53930
C          0.72740       -0.01070       -8.04330
H          0.05820        0.86140       -8.23340
O          1.96840        0.29760       -8.66350
C          0.20460       -1.25710       -8.76750
C          1.03280       -2.49040       -8.49800
O          0.59070       -3.57440       -8.22910
O          2.37500       -2.33460       -8.58440
O          2.69150        1.36200       -6.31140
C          3.24920       -0.11130       -1.79410
C          4.06850        1.11150       -1.36010
C          3.87500       -1.41640       -1.28420
H          3.24010       -0.00130        1.20740
H          1.96650        0.00580        3.33720
H         -0.49040        0.03090        3.34970
H         -1.78290        0.03970        1.21510
H         -1.47410        1.58340       -3.26080
H         -3.80280        1.50160       -4.14410
H         -4.70920       -1.72070       -1.40060
H         -2.37080       -1.63190       -0.54010
H          0.09450       -0.71990       -4.05620
H          2.07450        1.67960       -3.86900
H         -0.03620       -0.60730       -6.10060
H          1.64380       -1.07770       -6.37260
H          2.50040        0.87920       -8.06090
H          0.19640       -1.06940       -9.86620
H         -0.85330       -1.44910       -8.49050
H          2.63330       -1.37790       -8.74370
H          3.37530        0.75680       -5.95760
H          3.22760       -0.15060       -2.92010
H          4.12100        1.20840       -0.26900
H          3.63000        2.04330       -1.73820
H          5.09680        1.04710       -1.73360
H          3.93210       -1.45350       -0.19030
H          4.89340       -1.53940       -1.67040
H          3.29000       -2.29000       -1.60120
