rmsd37.gzmat
 OpenBabel08211713383D

 36 37  0  0  1  0  0  0  0  0999 V2000
    0.0000    0.0000    0.0000 C   0  0  0  0  0  0  0  0  0  0  0  0
    1.5345    0.0000    0.0000 C   0  0  0  0  0  0  0  0  0  0  0  0
    2.0579    0.0000    1.4396 C   0  0  0  0  0  0  0  0  0  0  0  0
    1.6041   -1.2488    2.2099 C   0  0  1  0  0  0  0  0  0  0  0  0
    1.6832   -1.0233    3.3046 H   0  0  0  0  0  0  0  0  0  0  0  0
    0.1813   -1.6054    1.8951 C   0  0  0  0  0  0  0  0  0  0  0  0
   -0.5439   -1.0388    0.9202 C   0  0  0  0  0  0  0  0  0  0  0  0
   -0.2993   -2.6541    2.7692 N   0  0  0  0  0  0  0  0  0  0  0  0
   -0.8856   -3.7879    2.0061 C   0  0  0  0  0  0  0  0  0  0  0  0
   -1.2586   -4.8874    3.0129 C   0  0  0  0  0  0  0  0  0  0  0  0
   -2.1748   -4.3844    3.9698 O   0  0  0  0  0  0  0  0  0  0  0  0
   -1.6434   -3.3001    4.7052 C   0  0  0  0  0  0  0  0  0  0  0  0
   -1.2757   -2.1379    3.7621 C   0  0  0  0  0  0  0  0  0  0  0  0
    2.6859   -2.6677    1.8493 S   0  0  0  0  0  0  0  0  0  0  0  0
    2.1744   -3.4000    0.7181 O   0  0  0  0  0  0  0  0  0  0  0  0
    4.0421   -2.1666    1.8697 O   0  0  0  0  0  0  0  0  0  0  0  0
    2.5459   -3.7316    3.3264 C   0  0  0  0  0  0  0  0  0  0  0  0
    2.7051   -5.1143    2.9944 C   0  0  0  0  0  0  0  0  0  0  0  0
    2.8172   -6.2407    2.7538 N   0  0  0  0  0  0  0  0  0  0  0  0
   -0.3742   -0.1673   -1.0321 H   0  0  0  0  0  0  0  0  0  0  0  0
   -0.3851    0.9981    0.2983 H   0  0  0  0  0  0  0  0  0  0  0  0
    1.9085   -0.8869   -0.5527 H   0  0  0  0  0  0  0  0  0  0  0  0
    1.9208    0.8773   -0.5491 H   0  0  0  0  0  0  0  0  0  0  0  0
    1.6852    0.9037    1.9636 H   0  0  0  0  0  0  0  0  0  0  0  0
    3.1655    0.0988    1.4457 H   0  0  0  0  0  0  0  0  0  0  0  0
   -1.5819   -1.3149    0.7457 H   0  0  0  0  0  0  0  0  0  0  0  0
   -0.1246   -4.1592    1.2777 H   0  0  0  0  0  0  0  0  0  0  0  0
   -1.7788   -3.4937    1.4178 H   0  0  0  0  0  0  0  0  0  0  0  0
   -1.8255   -5.7082    2.5380 H   0  0  0  0  0  0  0  0  0  0  0  0
   -0.3714   -5.2991    3.5244 H   0  0  0  0  0  0  0  0  0  0  0  0
   -2.4716   -3.0317    5.3846 H   0  0  0  0  0  0  0  0  0  0  0  0
   -0.7738   -3.6412    5.2923 H   0  0  0  0  0  0  0  0  0  0  0  0
   -2.1928   -1.7319    3.2855 H   0  0  0  0  0  0  0  0  0  0  0  0
   -0.8055   -1.3090    4.3296 H   0  0  0  0  0  0  0  0  0  0  0  0
    1.5447   -3.5658    3.8121 H   0  0  0  0  0  0  0  0  0  0  0  0
    3.3032   -3.4089    4.0806 H   0  0  0  0  0  0  0  0  0  0  0  0
  1 21  1  0  0  0  0
  1  7  1  0  0  0  0
  2  1  1  0  0  0  0
  2  3  1  0  0  0  0
  3 25  1  0  0  0  0
  3 24  1  0  0  0  0
  3  4  1  0  0  0  0
  4  5  1  1  0  0  0
  6  4  1  0  0  0  0
  6  8  1  0  0  0  0
  7  6  2  0  0  0  0
  8 13  1  0  0  0  0
  9  8  1  0  0  0  0
  9 10  1  0  0  0  0
 10 30  1  0  0  0  0
 10 11  1  0  0  0  0
 11 12  1  0  0  0  0
 12 32  1  0  0  0  0
 12 31  1  0  0  0  0
 13 34  1  0  0  0  0
 13 12  1  0  0  0  0
 14 16  2  0  0  0  0
 14  4  1  0  0  0  0
 14 17  1  0  0  0  0
 15 14  2  0  0  0  0
 17 35  1  0  0  0  0
 17 36  1  0  0  0  0
 18 17  1  0  0  0  0
 19 18  3  0  0  0  0
 20  1  1  0  0  0  0
 22  2  1  0  0  0  0
 23  2  1  0  0  0  0
 26  7  1  0  0  0  0
 27  9  1  0  0  0  0
 28  9  1  0  0  0  0
 29 10  1  0  0  0  0
 33 13  1  0  0  0  0
M  END
$$$$
