36
rmsd2.gzmat
C          0.00000        0.00000        0.00000
C          1.53260        0.00000        0.00000
C          2.07060        0.00000        1.43370
C          1.60360       -1.23660        2.21710
H          1.82180       -1.04910        3.30580
C          0.12760       -1.44290        2.04270
C         -0.58510       -0.86990        1.05910
N         -0.41790       -2.36040        3.00570
C         -1.70030       -2.99140        2.60650
C         -1.98890       -4.11580        3.61890
O         -2.07710       -3.58610        4.92800
C         -0.88860       -2.92980        5.32710
C         -0.56290       -1.77330        4.36290
S          2.60110       -2.69510        1.77270
O          3.11510       -2.53990        0.43370
O          3.50130       -2.88750        2.88980
C          1.58200       -4.20160        1.75710
C          0.73990       -4.28780        0.60560
N          0.03710       -4.37210       -0.31030
H         -0.37070       -0.32200       -0.99800
H         -0.37810        1.03670        0.13540
H          1.91870       -0.87830       -0.56300
H          1.91630        0.87900       -0.54990
H          1.71730        0.91210        1.95800
H          3.17690        0.07960        1.42270
H         -1.66280       -1.00180        0.97720
H         -1.60550       -3.40910        1.58060
H         -2.54800       -2.27380        2.59280
H         -2.98800       -4.56090        3.46350
H         -1.21920       -4.90600        3.58730
H         -1.13910       -2.56500        6.33860
H         -0.05990       -3.65780        5.38430
H         -1.36350       -1.00430        4.40260
H          0.38250       -1.27820        4.66490
H          0.97940       -4.24750        2.70460
H          2.27060       -5.08070        1.82540
