36

C          0.16350       -0.25810       -0.25120
C          1.64420        0.00800        0.03200
C          1.90270        0.10850        1.53520
C          1.46180       -1.16770        2.25680
H          1.56110       -1.04130        3.34430
C          0.09770       -1.65530        1.85480
C         -0.46730       -1.22950        0.70810
N         -0.46320       -2.64340        2.70350
C         -1.51940       -3.47420        2.13690
C         -1.82410       -4.63450        3.07830
O         -2.18680       -4.17960        4.36160
C         -1.16240       -3.39630        4.93510
C         -0.81490       -2.19830        4.05940
S          2.73060       -2.48570        1.89590
O          2.43620       -3.14520        0.61580
O          4.05670       -1.91450        2.16490
C          2.44580       -3.79490        3.16840
C          2.50620       -3.27850        4.51950
N          2.49890       -2.81030        5.57950
H          0.03470       -0.62410       -1.28420
H         -0.40930        0.68880       -0.20620
H          2.24950       -0.81270       -0.38220
H          1.96940        0.93180       -0.47050
H          1.32320        0.94070        1.97020
H          2.96280        0.30100        1.75130
H         -1.46560       -1.58620        0.44600
H         -1.18350       -3.85570        1.16070
H         -2.45330       -2.89540        1.97610
H         -2.66740       -5.22560        2.69150
H         -0.93700       -5.30000        3.14150
H         -1.52270       -3.05450        5.91620
H         -0.25380       -4.00940        5.10040
H         -1.68180       -1.50650        4.02070
H          0.02640       -1.65790        4.51410
H          3.24560       -4.52150        2.96160
H          1.45500       -4.21590        2.95310
