36
rmsd34.gzmat
C          0.00000        0.00000        0.00000
C          1.53430        0.00000        0.00000
C          2.05690        0.00000        1.43970
C          1.60410       -1.25150        2.20540
H          1.70920       -1.03490        3.30260
C          0.17210       -1.59010        1.91180
C         -0.55130       -1.02060        0.93660
N         -0.30790       -2.62680        2.79560
C         -1.14600       -3.63740        2.10290
C         -1.48640       -4.73990        3.12160
O         -2.16720       -4.18630        4.23160
C         -1.39270       -3.21320        4.90790
C         -1.03690       -2.05530        3.95800
S          2.66510       -2.66820        1.80940
O          2.20140       -3.32660        0.61030
O          4.03130       -2.20930        1.91630
C          2.45010       -3.90180        3.14140
C          2.35940       -3.30450        4.43650
N          2.26120       -2.82300        5.48580
H         -0.37370       -0.18210       -1.02930
H         -0.38360        1.00360        0.28270
H          1.90780       -0.88670       -0.55370
H          1.92050        0.87800       -0.54820
H          1.68100        0.90120        1.96740
H          3.16390        0.10240        1.45050
H         -1.59640       -1.27580        0.77430
H         -0.56530       -4.05240        1.24800
H         -2.08340       -3.21210        1.68760
H         -2.21880       -5.46120        2.71730
H         -0.58690       -5.27690        3.46720
H         -2.06210       -2.88670        5.72320
H         -0.48880       -3.68390        5.33480
H         -1.95690       -1.51350        3.65320
H         -0.37680       -1.32600        4.47460
H          3.29380       -4.63120        3.08130
H          1.52850       -4.50090        2.91520
