
     RDKit          3D

 36 37  0  0  0  0  0  0  0  0999 V2000
    0.1635   -0.2581   -0.2512 C   0  0  0  0  0  0  0  0  0  0  0  0
    1.6442    0.0080    0.0320 C   0  0  0  0  0  0  0  0  0  0  0  0
    1.9027    0.1085    1.5352 C   0  0  0  0  0  0  0  0  0  0  0  0
    1.4618   -1.1677    2.2568 C   0  0  1  0  0  0  0  0  0  0  0  0
    1.5611   -1.0413    3.3443 H   0  0  0  0  0  0  0  0  0  0  0  0
    0.0977   -1.6553    1.8548 C   0  0  0  0  0  0  0  0  0  0  0  0
   -0.4673   -1.2295    0.7081 C   0  0  0  0  0  0  0  0  0  0  0  0
   -0.4632   -2.6434    2.7035 N   0  0  0  0  0  0  0  0  0  0  0  0
   -1.5194   -3.4742    2.1369 C   0  0  0  0  0  0  0  0  0  0  0  0
   -1.8241   -4.6345    3.0783 C   0  0  0  0  0  0  0  0  0  0  0  0
   -2.1868   -4.1796    4.3616 O   0  0  0  0  0  0  0  0  0  0  0  0
   -1.1624   -3.3963    4.9351 C   0  0  0  0  0  0  0  0  0  0  0  0
   -0.8149   -2.1983    4.0594 C   0  0  0  0  0  0  0  0  0  0  0  0
    2.7306   -2.4857    1.8959 S   0  0  0  0  0  0  0  0  0  0  0  0
    2.4362   -3.1452    0.6158 O   0  0  0  0  0  0  0  0  0  0  0  0
    4.0567   -1.9145    2.1649 O   0  0  0  0  0  0  0  0  0  0  0  0
    2.4458   -3.7949    3.1684 C   0  0  0  0  0  0  0  0  0  0  0  0
    2.5062   -3.2785    4.5195 C   0  0  0  0  0  0  0  0  0  0  0  0
    2.4989   -2.8103    5.5795 N   0  0  0  0  0  0  0  0  0  0  0  0
    0.0347   -0.6241   -1.2842 H   0  0  0  0  0  0  0  0  0  0  0  0
   -0.4093    0.6888   -0.2062 H   0  0  0  0  0  0  0  0  0  0  0  0
    2.2495   -0.8127   -0.3822 H   0  0  0  0  0  0  0  0  0  0  0  0
    1.9694    0.9318   -0.4705 H   0  0  0  0  0  0  0  0  0  0  0  0
    1.3232    0.9407    1.9702 H   0  0  0  0  0  0  0  0  0  0  0  0
    2.9628    0.3010    1.7513 H   0  0  0  0  0  0  0  0  0  0  0  0
   -1.4656   -1.5862    0.4460 H   0  0  0  0  0  0  0  0  0  0  0  0
   -1.1835   -3.8557    1.1607 H   0  0  0  0  0  0  0  0  0  0  0  0
   -2.4533   -2.8954    1.9761 H   0  0  0  0  0  0  0  0  0  0  0  0
   -2.6674   -5.2256    2.6915 H   0  0  0  0  0  0  0  0  0  0  0  0
   -0.9370   -5.3000    3.1415 H   0  0  0  0  0  0  0  0  0  0  0  0
   -1.5227   -3.0545    5.9162 H   0  0  0  0  0  0  0  0  0  0  0  0
   -0.2538   -4.0094    5.1004 H   0  0  0  0  0  0  0  0  0  0  0  0
   -1.6818   -1.5065    4.0207 H   0  0  0  0  0  0  0  0  0  0  0  0
    0.0264   -1.6579    4.5141 H   0  0  0  0  0  0  0  0  0  0  0  0
    3.2456   -4.5215    2.9616 H   0  0  0  0  0  0  0  0  0  0  0  0
    1.4550   -4.2159    2.9531 H   0  0  0  0  0  0  0  0  0  0  0  0
  1  2  1  0
  1  7  1  0
  1 20  1  0
  1 21  1  0
  2  3  1  0
  2 22  1  0
  2 23  1  0
  3  4  1  0
  3 24  1  0
  3 25  1  0
  4  5  1  1
  4  6  1  0
  4 14  1  0
  6  7  2  0
  6  8  1  0
  7 26  1  0
  8  9  1  0
  8 13  1  0
  9 10  1  0
  9 27  1  0
  9 28  1  0
 10 11  1  0
 10 29  1  0
 10 30  1  0
 11 12  1  0
 12 13  1  0
 12 31  1  0
 12 32  1  0
 13 33  1  0
 13 34  1  0
 14 15  2  0
 14 16  2  0
 14 17  1  0
 17 18  1  0
 17 35  1  0
 17 36  1  0
 18 19  3  0
M  END

