36
rmsd15.gzmat
C          0.00000        0.00000        0.00000
C          1.53460        0.00000        0.00000
C          2.06320        0.00000        1.43760
C          1.60830       -1.24860        2.20650
H          1.74450       -1.04320        3.30260
C          0.16300       -1.55420        1.94390
C         -0.56040       -0.98530        0.96840
N         -0.33350       -2.55090        2.86280
C         -1.24730       -3.53240        2.22710
C         -1.58220       -4.60280        3.28210
O         -2.19440       -4.00070        4.40720
C         -1.35550       -3.04460        5.02970
C         -0.99130       -1.92340        4.03970
S          2.64190       -2.67610        1.77930
O          2.18630       -3.27970        0.54900
O          4.01500       -2.25090        1.92690
C          2.37480       -3.95250        3.05940
C          2.32420       -3.40420        4.37780
N          2.26280       -2.96070        5.44610
H         -0.37270       -0.21720       -1.02340
H         -0.38390        1.01350        0.24540
H          1.90740       -0.88630       -0.55620
H          1.91970        0.87810       -0.54960
H          1.69350        0.90310        1.96610
H          3.17060        0.09710        1.44440
H         -1.61580       -1.21230        0.83170
H         -0.73230       -3.98480        1.35120
H         -2.18640       -3.07180        1.85490
H         -2.35670       -5.30480        2.92460
H         -0.68750       -5.16500        3.59990
H         -1.97820       -2.67320        5.86270
H         -0.45520       -3.54310        5.43230
H         -1.89980       -1.35110        3.75670
H         -0.28340       -1.20980        4.51320
H          3.18160       -4.71920        2.96370
H          1.42550       -4.49840        2.81730
