36
rmsd44.gzmat
C          0.00000        0.00000        0.00000
C          1.53430        0.00000        0.00000
C          2.05490        0.00000        1.44050
C          1.59960       -1.24880        2.20900
H          1.67050       -1.01580        3.30590
C          0.18080       -1.61540        1.88650
C         -0.54360       -1.04690        0.91180
N         -0.28710       -2.67730        2.74840
C         -1.01230       -3.73730        2.00360
C         -1.36990       -4.85280        3.00100
O         -2.15930       -4.33320        4.05480
C         -1.48810       -3.32070        4.78150
C         -1.12460       -2.14640        3.85500
S          2.68630       -2.65840        1.86120
O          2.22710       -3.37150        0.69170
O          4.04480       -2.17260        1.94270
C          2.50070       -3.84530        3.24000
C          2.36650       -3.20480        4.50990
N          2.23280       -2.69250        5.54010
H         -0.37550       -0.15580       -1.03240
H         -0.38410        0.99560        0.30880
H          1.90840       -0.88690       -0.55220
H          1.92060        0.87810       -0.54780
H          1.68030        0.90300        1.96570
H          3.16210        0.10140        1.45190
H         -1.57970       -1.32440        0.73080
H         -0.34230       -4.12240        1.19960
H         -1.93480       -3.36670        1.51010
H         -2.03210       -5.61190        2.54750
H         -0.47260       -5.34270        3.41600
H         -2.23240       -3.02900        5.54370
H         -0.59500       -3.74300        5.27600
H         -2.04660       -1.65000        3.48620
H         -0.53770       -1.38590        4.41380
H          3.37240       -4.54330        3.22040
H          1.60670       -4.48870        3.02570
