rmsd51.gzmat
 OpenBabel08211713383D

 36 37  0  0  1  0  0  0  0  0999 V2000
    0.0000    0.0000    0.0000 C   0  0  0  0  0  0  0  0  0  0  0  0
    1.5341    0.0000    0.0000 C   0  0  0  0  0  0  0  0  0  0  0  0
    2.0602    0.0000    1.4383 C   0  0  0  0  0  0  0  0  0  0  0  0
    1.6079   -1.2516    2.2043 C   0  0  1  0  0  0  0  0  0  0  0  0
    1.7644   -1.0566    3.2989 H   0  0  0  0  0  0  0  0  0  0  0  0
    0.1574   -1.5458    1.9553 C   0  0  0  0  0  0  0  0  0  0  0  0
   -0.5630   -0.9758    0.9774 C   0  0  0  0  0  0  0  0  0  0  0  0
   -0.3402   -2.5458    2.8674 N   0  0  0  0  0  0  0  0  0  0  0  0
   -1.3658   -3.4372    2.2720 C   0  0  0  0  0  0  0  0  0  0  0  0
   -1.6767   -4.5393    3.3014 C   0  0  0  0  0  0  0  0  0  0  0  0
   -2.1507   -3.9617    4.5028 O   0  0  0  0  0  0  0  0  0  0  0  0
   -1.2050   -3.0882    5.0909 C   0  0  0  0  0  0  0  0  0  0  0  0
   -0.8534   -1.9416    4.1250 C   0  0  0  0  0  0  0  0  0  0  0  0
    2.6307   -2.6802    1.7500 S   0  0  0  0  0  0  0  0  0  0  0  0
    2.1772   -3.2568    0.5067 O   0  0  0  0  0  0  0  0  0  0  0  0
    4.0056   -2.2664    1.9108 O   0  0  0  0  0  0  0  0  0  0  0  0
    2.3433   -3.9707    3.0088 C   0  0  0  0  0  0  0  0  0  0  0  0
    2.4287   -3.4573    4.3391 C   0  0  0  0  0  0  0  0  0  0  0  0
    2.4737   -3.0405    5.4181 N   0  0  0  0  0  0  0  0  0  0  0  0
   -0.3709   -0.2271   -1.0220 H   0  0  0  0  0  0  0  0  0  0  0  0
   -0.3829    1.0160    0.2357 H   0  0  0  0  0  0  0  0  0  0  0  0
    1.9067   -0.8855   -0.5574 H   0  0  0  0  0  0  0  0  0  0  0  0
    1.9193    0.8782   -0.5490 H   0  0  0  0  0  0  0  0  0  0  0  0
    1.6847    0.9011    1.9664 H   0  0  0  0  0  0  0  0  0  0  0  0
    3.1669    0.1007    1.4481 H   0  0  0  0  0  0  0  0  0  0  0  0
   -1.6203   -1.1935    0.8417 H   0  0  0  0  0  0  0  0  0  0  0  0
   -0.9575   -3.8758    1.3349 H   0  0  0  0  0  0  0  0  0  0  0  0
   -2.3030   -2.9031    2.0081 H   0  0  0  0  0  0  0  0  0  0  0  0
   -2.5222   -5.1740    2.9812 H   0  0  0  0  0  0  0  0  0  0  0  0
   -0.7966   -5.1703    3.5118 H   0  0  0  0  0  0  0  0  0  0  0  0
   -1.7331   -2.7219    5.9892 H   0  0  0  0  0  0  0  0  0  0  0  0
   -0.3078   -3.6572    5.3939 H   0  0  0  0  0  0  0  0  0  0  0  0
   -1.7429   -1.3008    3.9514 H   0  0  0  0  0  0  0  0  0  0  0  0
   -0.0651   -1.2974    4.5690 H   0  0  0  0  0  0  0  0  0  0  0  0
    3.0717   -4.7992    2.8373 H   0  0  0  0  0  0  0  0  0  0  0  0
    1.3355   -4.4278    2.8212 H   0  0  0  0  0  0  0  0  0  0  0  0
  1 21  1  0  0  0  0
  1  7  1  0  0  0  0
  2  1  1  0  0  0  0
  2  3  1  0  0  0  0
  3 25  1  0  0  0  0
  3 24  1  0  0  0  0
  3  4  1  0  0  0  0
  4  5  1  1  0  0  0
  6  4  1  0  0  0  0
  6  8  1  0  0  0  0
  7  6  2  0  0  0  0
  8 13  1  0  0  0  0
  9  8  1  0  0  0  0
  9 10  1  0  0  0  0
 10 30  1  0  0  0  0
 10 11  1  0  0  0  0
 11 12  1  0  0  0  0
 12 32  1  0  0  0  0
 12 31  1  0  0  0  0
 13 34  1  0  0  0  0
 13 12  1  0  0  0  0
 14 16  2  0  0  0  0
 14  4  1  0  0  0  0
 14 17  1  0  0  0  0
 15 14  2  0  0  0  0
 17 18  1  0  0  0  0
 18 19  3  0  0  0  0
 20  1  1  0  0  0  0
 22  2  1  0  0  0  0
 23  2  1  0  0  0  0
 26  7  1  0  0  0  0
 27  9  1  0  0  0  0
 28  9  1  0  0  0  0
 29 10  1  0  0  0  0
 33 13  1  0  0  0  0
 35 17  1  0  0  0  0
 36 17  1  0  0  0  0
M  END
$$$$
