36
rmsd37.gzmat
C          0.00000        0.00000        0.00000
C          1.53450        0.00000        0.00000
C          2.05790        0.00000        1.43960
C          1.60410       -1.24880        2.20990
H          1.68320       -1.02330        3.30460
C          0.18130       -1.60540        1.89510
C         -0.54390       -1.03880        0.92020
N         -0.29930       -2.65410        2.76920
C         -0.88560       -3.78790        2.00610
C         -1.25860       -4.88740        3.01290
O         -2.17480       -4.38440        3.96980
C         -1.64340       -3.30010        4.70520
C         -1.27570       -2.13790        3.76210
S          2.68590       -2.66770        1.84930
O          2.17440       -3.40000        0.71810
O          4.04210       -2.16660        1.86970
C          2.54590       -3.73160        3.32640
C          2.70510       -5.11430        2.99440
N          2.81720       -6.24070        2.75380
H         -0.37420       -0.16730       -1.03210
H         -0.38510        0.99810        0.29830
H          1.90850       -0.88690       -0.55270
H          1.92080        0.87730       -0.54910
H          1.68520        0.90370        1.96360
H          3.16550        0.09880        1.44570
H         -1.58190       -1.31490        0.74570
H         -0.12460       -4.15920        1.27770
H         -1.77880       -3.49370        1.41780
H         -1.82550       -5.70820        2.53800
H         -0.37140       -5.29910        3.52440
H         -2.47160       -3.03170        5.38460
H         -0.77380       -3.64120        5.29230
H         -2.19280       -1.73190        3.28550
H         -0.80550       -1.30900        4.32960
H          1.54470       -3.56580        3.81210
H          3.30320       -3.40890        4.08060
