36

C          0.21280       -0.26860       -0.26120
C          1.68510       -0.00740        0.06750
C          1.90260        0.07800        1.57850
C          1.44600       -1.20990        2.26720
H          1.51650       -1.10830        3.36100
C          0.09130       -1.68800        1.82390
C         -0.44330       -1.25110        0.66860
N         -0.49050       -2.69410        2.64190
C         -1.44930       -3.59140        2.00520
C         -1.76390       -4.75080        2.94350
O         -2.25340       -4.29040        4.18620
C         -1.32460       -3.44500        4.82290
C         -0.97220       -2.24360        3.95160
S          2.71430       -2.53430        1.89480
O          2.34780       -3.23060        0.65520
O          4.04790       -1.94370        2.06830
C          2.45420       -3.72910        3.27890
C          3.19340       -4.95310        3.04150
N          3.77350       -5.93730        2.85250
H          0.11320       -0.62420       -1.30080
H         -0.36170        0.67750       -0.22220
H          2.30140       -0.82510       -0.33720
H          2.02680        0.91980       -0.41720
H          1.31060        0.90540        2.00620
H          2.95740        0.26700        1.82090
H         -1.42990       -1.61480        0.37280
H         -1.00800       -3.96570        1.06930
H         -2.39790       -3.07040        1.75820
H         -2.54230       -5.39390        2.50780
H         -0.85190       -5.36490        3.09340
H         -1.78110       -3.10970        5.76600
H         -0.39880       -4.00700        5.06890
H         -1.86750       -1.59820        3.83350
H         -0.19750       -1.64190        4.45150
H          1.36640       -3.89930        3.29700
H          2.78570       -3.23260        4.20210
