rmsd29.gzmat
 OpenBabel08211713383D

 36 37  0  0  1  0  0  0  0  0999 V2000
    0.0000    0.0000    0.0000 C   0  0  0  0  0  0  0  0  0  0  0  0
    1.5344    0.0000    0.0000 C   0  0  0  0  0  0  0  0  0  0  0  0
    2.0576    0.0000    1.4398 C   0  0  0  0  0  0  0  0  0  0  0  0
    1.6051   -1.2503    2.2081 C   0  0  1  0  0  0  0  0  0  0  0  0
    1.6994   -1.0313    3.3028 H   0  0  0  0  0  0  0  0  0  0  0  0
    0.1778   -1.5978    1.9036 C   0  0  0  0  0  0  0  0  0  0  0  0
   -0.5468   -1.0311    0.9280 C   0  0  0  0  0  0  0  0  0  0  0  0
   -0.3036   -2.6373    2.7872 N   0  0  0  0  0  0  0  0  0  0  0  0
   -0.9517   -3.7495    2.0434 C   0  0  0  0  0  0  0  0  0  0  0  0
   -1.3348   -4.8406    3.0568 C   0  0  0  0  0  0  0  0  0  0  0  0
   -2.1859   -4.3095    4.0576 O   0  0  0  0  0  0  0  0  0  0  0  0
   -1.5797   -3.2515    4.7734 C   0  0  0  0  0  0  0  0  0  0  0  0
   -1.2268   -2.0962    3.8172 C   0  0  0  0  0  0  0  0  0  0  0  0
    2.6773   -2.6688    1.8245 S   0  0  0  0  0  0  0  0  0  0  0  0
    2.2001   -3.3389    0.6414 O   0  0  0  0  0  0  0  0  0  0  0  0
    4.0379   -2.1867    1.9171 O   0  0  0  0  0  0  0  0  0  0  0  0
    2.4921   -3.8063    3.2421 C   0  0  0  0  0  0  0  0  0  0  0  0
    2.2997   -5.1578    2.8136 C   0  0  0  0  0  0  0  0  0  0  0  0
    2.1298   -6.2584    2.4969 N   0  0  0  0  0  0  0  0  0  0  0  0
   -0.3743   -0.1738   -1.0309 H   0  0  0  0  0  0  0  0  0  0  0  0
   -0.3850    1.0006    0.2903 H   0  0  0  0  0  0  0  0  0  0  0  0
    1.9082   -0.8873   -0.5534 H   0  0  0  0  0  0  0  0  0  0  0  0
    1.9207    0.8773   -0.5491 H   0  0  0  0  0  0  0  0  0  0  0  0
    1.6832    0.9021    1.9655 H   0  0  0  0  0  0  0  0  0  0  0  0
    3.1648    0.1004    1.4490 H   0  0  0  0  0  0  0  0  0  0  0  0
   -1.5878   -1.3001    0.7581 H   0  0  0  0  0  0  0  0  0  0  0  0
   -0.2238   -4.1471    1.2959 H   0  0  0  0  0  0  0  0  0  0  0  0
   -1.8511   -3.4241    1.4808 H   0  0  0  0  0  0  0  0  0  0  0  0
   -1.9578   -5.6289    2.5966 H   0  0  0  0  0  0  0  0  0  0  0  0
   -0.4473   -5.2997    3.5263 H   0  0  0  0  0  0  0  0  0  0  0  0
   -2.3596   -2.9630    5.4996 H   0  0  0  0  0  0  0  0  0  0  0  0
   -0.6901   -3.6247    5.3095 H   0  0  0  0  0  0  0  0  0  0  0  0
   -2.1535   -1.6712    3.3769 H   0  0  0  0  0  0  0  0  0  0  0  0
   -0.7163   -1.2775    4.3636 H   0  0  0  0  0  0  0  0  0  0  0  0
    1.6272   -3.4806    3.8791 H   0  0  0  0  0  0  0  0  0  0  0  0
    3.3945   -3.7147    3.8948 H   0  0  0  0  0  0  0  0  0  0  0  0
  1 21  1  0  0  0  0
  1  7  1  0  0  0  0
  2  1  1  0  0  0  0
  2  3  1  0  0  0  0
  3 25  1  0  0  0  0
  3 24  1  0  0  0  0
  3  4  1  0  0  0  0
  4  5  1  1  0  0  0
  6  4  1  0  0  0  0
  6  8  1  0  0  0  0
  7  6  2  0  0  0  0
  8 13  1  0  0  0  0
  9  8  1  0  0  0  0
  9 10  1  0  0  0  0
 10 30  1  0  0  0  0
 10 11  1  0  0  0  0
 11 12  1  0  0  0  0
 12 32  1  0  0  0  0
 12 31  1  0  0  0  0
 13 34  1  0  0  0  0
 13 12  1  0  0  0  0
 14 16  2  0  0  0  0
 14  4  1  0  0  0  0
 14 17  1  0  0  0  0
 15 14  2  0  0  0  0
 17 35  1  0  0  0  0
 17 36  1  0  0  0  0
 18 17  1  0  0  0  0
 19 18  3  0  0  0  0
 20  1  1  0  0  0  0
 22  2  1  0  0  0  0
 23  2  1  0  0  0  0
 26  7  1  0  0  0  0
 27  9  1  0  0  0  0
 28  9  1  0  0  0  0
 29 10  1  0  0  0  0
 33 13  1  0  0  0  0
M  END
$$$$
