36

C         -0.04310       -0.31870       -0.19300
C          1.48340       -0.23840       -0.12630
C          1.95450        0.00780        1.30080
C          1.44220       -1.05440        2.27050
H          1.64650       -0.73340        3.30080
C         -0.00720       -1.42550        2.08940
C         -0.66290       -1.03950        0.97200
N         -0.55370       -2.26890        3.07870
C         -1.89340       -2.79310        2.85020
C         -2.17940       -3.95770        3.79400
O         -1.98220       -3.60620        5.14150
C         -0.65680       -3.17020        5.35410
C         -0.31280       -1.96300        4.49290
S          2.51880       -2.59000        2.24790
O          3.70370       -2.35060        1.41430
O          2.66410       -3.04270        3.64270
C          1.54430       -3.94830        1.44870
C          1.24040       -3.74590        0.04880
N          0.99670       -3.56290       -1.06920
H         -0.34840       -0.82330       -1.12590
H         -0.47860        0.69780       -0.24960
H          1.92560       -1.17560       -0.49380
H          1.85310        0.55890       -0.78880
H          1.57210        0.97650        1.66700
H          3.05090        0.04780        1.35740
H         -1.72600       -1.26610        0.87620
H         -1.96750       -3.14910        1.81120
H         -2.66290       -2.00460        2.98810
H         -3.22620       -4.27830        3.68630
H         -1.52660       -4.81440        3.52220
H         -0.56450       -2.91240        6.41910
H          0.06190       -3.98290        5.12600
H         -0.91950       -1.09040        4.81170
H          0.74650       -1.73650        4.65650
H          0.63830       -4.05030        2.06050
H          2.20770       -4.81270        1.60060
