36
rmsd36.gzmat
C          0.00000        0.00000        0.00000
C          1.53450        0.00000        0.00000
C          2.05840        0.00000        1.43930
C          1.60390       -1.24850        2.20920
H          1.69810       -1.02830        3.30360
C          0.17670       -1.59550        1.90490
C         -0.54720       -1.03040        0.92770
N         -0.30380       -2.63570        2.78870
C         -0.95040       -3.74810        2.04370
C         -1.33650       -4.83680        3.05790
O         -2.20140       -4.30260        4.04500
C         -1.60380       -3.24440        4.76740
C         -1.22640       -2.09170        3.81780
S          2.67090       -2.67180        1.82720
O          2.18190       -3.35110        0.65420
O          4.03310       -2.19080        1.90410
C          2.49540       -3.79780        3.25540
C          2.29180       -5.15200        2.84020
N          2.11300       -6.25400        2.53560
H         -0.37310       -0.17530       -1.03120
H         -0.38420        1.00120        0.28920
H          1.90870       -0.88710       -0.55340
H          1.92000        0.87790       -0.54900
H          1.68700        0.90360        1.96460
H          3.16600        0.09740        1.44630
H         -1.58720       -1.30160        0.75520
H         -0.22070       -4.14610        1.29780
H         -1.84860       -3.42380        1.47810
H         -1.94990       -5.63140        2.59610
H         -0.45190       -5.28890        3.53980
H         -2.39790       -2.94930        5.47560
H         -0.72790       -3.62160        5.32260
H         -2.14400       -1.64990        3.37450
H         -0.70650       -1.28400        4.37300
H          1.63700       -3.46310        3.89640
H          3.40420       -3.70560        3.89890
