45

C         -0.16980        0.58450        0.58160
O          0.95590        0.98550        0.79250
C         -0.71580        0.47980       -0.81410
C         -1.97080        0.06050       -1.10550
C         -2.87690       -0.38370       -0.00320
O         -3.98480       -0.83090       -0.25790
C         -2.39030       -0.28040        1.40050
C         -3.23640       -0.65760        2.44990
C         -2.79030       -0.57380        3.76900
C         -1.49590       -0.11640        4.04640
C         -0.64680        0.25800        3.00490
C         -1.09050        0.17860        1.67960
C         -2.50740       -0.03370       -2.52230
N         -1.91360       -1.12780       -3.27450
C         -2.00840       -2.43840       -2.66320
C         -1.12170       -0.93220       -4.39180
C         -1.17340        0.26260       -5.15360
C         -0.38090        0.42710       -6.27800
C          0.49590       -0.58350       -6.70670
C          0.54890       -1.77290       -5.96580
C         -0.23780       -1.94750       -4.83350
C          1.31630       -0.34680       -7.91530
O          1.29400        0.67040       -8.57550
O          2.11180       -1.39950       -8.21330
C          2.94040       -1.28110       -9.37760
C          2.17820       -1.62420      -10.64630
Cl         0.38430        0.96820       -2.05280
H         -4.23850       -1.01330        2.20570
H         -3.45250       -0.86640        4.58700
H         -1.14930       -0.05300        5.08030
H          0.36670        0.61630        3.19240
H         -2.29570        0.91300       -3.02900
H         -3.59880       -0.15810       -2.46130
H         -2.87760       -2.45720       -1.99230
H         -1.11090       -2.70880       -2.07400
H         -2.15810       -3.21290       -3.43030
H         -1.85590        1.06540       -4.87700
H         -0.43230        1.34910       -6.85990
H          1.22760       -2.56620       -6.28050
H         -0.14650       -2.87610       -4.27280
H          3.76820       -1.98440       -9.20620
H          3.34200       -0.25810       -9.42940
H          1.73710       -2.63080      -10.57780
H          2.85790       -1.60210      -11.51310
H          1.37410       -0.89490      -10.82050
