45
rmsd195.gzmat
C          0.00000        0.00000        0.00000
O          1.20530        0.00000        0.00000
C         -0.78640        0.00000       -1.26380
C         -2.10290       -0.23030       -1.32370
C         -2.87110       -0.46650       -0.06740
O         -4.02440       -0.82570       -0.09980
C         -2.17200       -0.23250        1.21770
C         -2.90490       -0.24190        2.40090
C         -2.25870       -0.01690        3.61950
C         -0.88680        0.21080        3.65150
C         -0.14760        0.21220        2.46540
C         -0.79160       -0.00600        1.25150
C         -2.91760       -0.26420       -2.59140
N         -2.54940       -1.34500       -3.51960
C         -2.55910       -2.66900       -2.87990
C         -1.54510       -1.08320       -4.46720
C         -1.59730        0.12890       -5.19350
C         -0.65680        0.39320       -6.17340
C          0.34400       -0.54230       -6.46230
C          0.38480       -1.75420       -5.77100
C         -0.55000       -2.02950       -4.78250
C          1.32550       -0.20680       -7.49900
O          1.41260        0.83280       -8.10680
O          2.18010       -1.24290       -7.71500
C          3.18090       -1.06710       -8.71780
C          2.56650       -1.22110      -10.09950
Cl         0.12890        0.31630       -2.64370
H         -3.98290       -0.42540        2.37150
H         -2.83470       -0.02170        4.54510
H         -0.38380        0.38820        4.60240
H          0.93270        0.38300        2.48540
H         -2.85700        0.72800       -3.10260
H         -4.00830       -0.40460       -2.35350
H         -3.46840       -2.76990       -2.25850
H         -1.68170       -2.85970       -2.24110
H         -2.61360       -3.45090       -3.65900
H         -2.38490        0.85120       -4.99610
H         -0.68810        1.33570       -6.73010
H          1.16350       -2.48720       -6.00130
H         -0.48640       -2.97090       -4.24600
H          3.88390       -1.88340       -8.46750
H          3.67250       -0.08660       -8.58370
H          2.00930       -2.16180      -10.18880
H          3.33150       -1.20510      -10.88300
H          1.86120       -0.40180      -10.30750
