
     RDKit          3D

 45 47  0  0  0  0  0  0  0  0999 V2000
   -0.1698    0.5845    0.5816 C   0  0  0  0  0  0  0  0  0  0  0  0
    0.9559    0.9855    0.7925 O   0  0  0  0  0  0  0  0  0  0  0  0
   -0.7158    0.4798   -0.8141 C   0  0  0  0  0  0  0  0  0  0  0  0
   -1.9708    0.0605   -1.1055 C   0  0  0  0  0  0  0  0  0  0  0  0
   -2.8769   -0.3837   -0.0032 C   0  0  0  0  0  0  0  0  0  0  0  0
   -3.9848   -0.8309   -0.2579 O   0  0  0  0  0  0  0  0  0  0  0  0
   -2.3903   -0.2804    1.4005 C   0  0  0  0  0  0  0  0  0  0  0  0
   -3.2364   -0.6576    2.4499 C   0  0  0  0  0  0  0  0  0  0  0  0
   -2.7903   -0.5738    3.7690 C   0  0  0  0  0  0  0  0  0  0  0  0
   -1.4959   -0.1164    4.0464 C   0  0  0  0  0  0  0  0  0  0  0  0
   -0.6468    0.2580    3.0049 C   0  0  0  0  0  0  0  0  0  0  0  0
   -1.0905    0.1786    1.6796 C   0  0  0  0  0  0  0  0  0  0  0  0
   -2.5074   -0.0337   -2.5223 C   0  0  0  0  0  0  0  0  0  0  0  0
   -1.9136   -1.1278   -3.2745 N   0  0  0  0  0  0  0  0  0  0  0  0
   -2.0084   -2.4384   -2.6632 C   0  0  0  0  0  0  0  0  0  0  0  0
   -1.1217   -0.9322   -4.3918 C   0  0  0  0  0  0  0  0  0  0  0  0
   -1.1734    0.2626   -5.1536 C   0  0  0  0  0  0  0  0  0  0  0  0
   -0.3809    0.4271   -6.2780 C   0  0  0  0  0  0  0  0  0  0  0  0
    0.4959   -0.5835   -6.7067 C   0  0  0  0  0  0  0  0  0  0  0  0
    0.5489   -1.7729   -5.9658 C   0  0  0  0  0  0  0  0  0  0  0  0
   -0.2378   -1.9475   -4.8335 C   0  0  0  0  0  0  0  0  0  0  0  0
    1.3163   -0.3468   -7.9153 C   0  0  0  0  0  0  0  0  0  0  0  0
    1.2940    0.6704   -8.5755 O   0  0  0  0  0  0  0  0  0  0  0  0
    2.1118   -1.3995   -8.2133 O   0  0  0  0  0  0  0  0  0  0  0  0
    2.9404   -1.2811   -9.3776 C   0  0  0  0  0  0  0  0  0  0  0  0
    2.1782   -1.6242  -10.6463 C   0  0  0  0  0  0  0  0  0  0  0  0
    0.3843    0.9682   -2.0528 Cl  0  0  0  0  0  0  0  0  0  0  0  0
   -4.2385   -1.0133    2.2057 H   0  0  0  0  0  0  0  0  0  0  0  0
   -3.4525   -0.8664    4.5870 H   0  0  0  0  0  0  0  0  0  0  0  0
   -1.1493   -0.0530    5.0803 H   0  0  0  0  0  0  0  0  0  0  0  0
    0.3667    0.6163    3.1924 H   0  0  0  0  0  0  0  0  0  0  0  0
   -2.2957    0.9130   -3.0290 H   0  0  0  0  0  0  0  0  0  0  0  0
   -3.5988   -0.1581   -2.4613 H   0  0  0  0  0  0  0  0  0  0  0  0
   -2.8776   -2.4572   -1.9923 H   0  0  0  0  0  0  0  0  0  0  0  0
   -1.1109   -2.7088   -2.0740 H   0  0  0  0  0  0  0  0  0  0  0  0
   -2.1581   -3.2129   -3.4303 H   0  0  0  0  0  0  0  0  0  0  0  0
   -1.8559    1.0654   -4.8770 H   0  0  0  0  0  0  0  0  0  0  0  0
   -0.4323    1.3491   -6.8599 H   0  0  0  0  0  0  0  0  0  0  0  0
    1.2276   -2.5662   -6.2805 H   0  0  0  0  0  0  0  0  0  0  0  0
   -0.1465   -2.8761   -4.2728 H   0  0  0  0  0  0  0  0  0  0  0  0
    3.7682   -1.9844   -9.2062 H   0  0  0  0  0  0  0  0  0  0  0  0
    3.3420   -0.2581   -9.4294 H   0  0  0  0  0  0  0  0  0  0  0  0
    1.7371   -2.6308  -10.5778 H   0  0  0  0  0  0  0  0  0  0  0  0
    2.8579   -1.6021  -11.5131 H   0  0  0  0  0  0  0  0  0  0  0  0
    1.3741   -0.8949  -10.8205 H   0  0  0  0  0  0  0  0  0  0  0  0
  1  2  2  0
  1  3  1  0
  1 12  1  0
  3  4  2  0
  3 27  1  0
  4  5  1  0
  4 13  1  0
  5  6  2  0
  5  7  1  0
  7  8  1  0
  7 12  2  0
  8  9  2  0
  8 28  1  0
  9 10  1  0
  9 29  1  0
 10 11  2  0
 10 30  1  0
 11 12  1  0
 11 31  1  0
 13 14  1  0
 13 32  1  0
 13 33  1  0
 14 15  1  0
 14 16  1  0
 15 34  1  0
 15 35  1  0
 15 36  1  0
 16 17  2  0
 16 21  1  0
 17 18  1  0
 17 37  1  0
 18 19  2  0
 18 38  1  0
 19 20  1  0
 19 22  1  0
 20 21  2  0
 20 39  1  0
 21 40  1  0
 22 23  2  0
 22 24  1  0
 24 25  1  0
 25 26  1  0
 25 41  1  0
 25 42  1  0
 26 43  1  0
 26 44  1  0
 26 45  1  0
M  END

