rmsd54.gzmat
 OpenBabel08211713383D

 45 47  0  0  0  0  0  0  0  0999 V2000
    0.0000    0.0000    0.0000 C   0  0  0  0  0  0  0  0  0  0  0  0
    1.2054    0.0000    0.0000 O   0  0  0  0  0  0  0  0  0  0  0  0
   -0.7870    0.0000   -1.2633 C   0  0  0  0  0  0  0  0  0  0  0  0
   -2.1056   -0.2195   -1.3195 C   0  0  0  0  0  0  0  0  0  0  0  0
   -2.8729   -0.4602   -0.0648 C   0  0  0  0  0  0  0  0  0  0  0  0
   -4.0235   -0.8277   -0.0984 O   0  0  0  0  0  0  0  0  0  0  0  0
   -2.1729   -0.2274    1.2196 C   0  0  0  0  0  0  0  0  0  0  0  0
   -2.9060   -0.2346    2.4025 C   0  0  0  0  0  0  0  0  0  0  0  0
   -2.2594   -0.0105    3.6210 C   0  0  0  0  0  0  0  0  0  0  0  0
   -0.8862    0.2099    3.6527 C   0  0  0  0  0  0  0  0  0  0  0  0
   -0.1469    0.2091    2.4661 C   0  0  0  0  0  0  0  0  0  0  0  0
   -0.7917   -0.0054    1.2517 C   0  0  0  0  0  0  0  0  0  0  0  0
   -2.9152   -0.2621   -2.5896 C   0  0  0  0  0  0  0  0  0  0  0  0
   -2.5955   -1.4104   -3.4535 N   0  0  0  0  0  0  0  0  0  0  0  0
   -2.6560   -2.6921   -2.7342 C   0  0  0  0  0  0  0  0  0  0  0  0
   -1.5728   -1.2423   -4.4046 C   0  0  0  0  0  0  0  0  0  0  0  0
   -0.5912   -2.2262   -4.6327 C   0  0  0  0  0  0  0  0  0  0  0  0
    0.3435   -2.0557   -5.6450 C   0  0  0  0  0  0  0  0  0  0  0  0
    0.3152   -0.9119   -6.4441 C   0  0  0  0  0  0  0  0  0  0  0  0
   -0.6608    0.0687   -6.2284 C   0  0  0  0  0  0  0  0  0  0  0  0
   -1.5995   -0.0911   -5.2244 C   0  0  0  0  0  0  0  0  0  0  0  0
    1.2823   -0.6950   -7.5253 C   0  0  0  0  0  0  0  0  0  0  0  0
    1.4205    0.3067   -8.1851 O   0  0  0  0  0  0  0  0  0  0  0  0
    2.0355   -1.8077   -7.7370 O   0  0  0  0  0  0  0  0  0  0  0  0
    3.0540   -1.7250   -8.7341 C   0  0  0  0  0  0  0  0  0  0  0  0
    4.2650   -1.0008   -8.1693 C   0  0  0  0  0  0  0  0  0  0  0  0
    0.1234    0.2938   -2.6522 Cl  0  0  0  0  0  0  0  0  0  0  0  0
   -3.9841   -0.4172    2.3723 H   0  0  0  0  0  0  0  0  0  0  0  0
   -2.8355   -0.0105    4.5467 H   0  0  0  0  0  0  0  0  0  0  0  0
   -0.3822    0.3827    4.6041 H   0  0  0  0  0  0  0  0  0  0  0  0
    0.9341    0.3753    2.4865 H   0  0  0  0  0  0  0  0  0  0  0  0
   -2.7948    0.6961   -3.1513 H   0  0  0  0  0  0  0  0  0  0  0  0
   -4.0126   -0.3311   -2.3555 H   0  0  0  0  0  0  0  0  0  0  0  0
   -3.5564   -2.7101   -2.0911 H   0  0  0  0  0  0  0  0  0  0  0  0
   -1.7764   -2.8899   -2.1008 H   0  0  0  0  0  0  0  0  0  0  0  0
   -2.7643   -3.5135   -3.4652 H   0  0  0  0  0  0  0  0  0  0  0  0
   -0.5410   -3.1159   -4.0128 H   0  0  0  0  0  0  0  0  0  0  0  0
    1.1107   -2.8179   -5.8107 H   0  0  0  0  0  0  0  0  0  0  0  0
   -0.6750    0.9607   -6.8634 H   0  0  0  0  0  0  0  0  0  0  0  0
   -2.3695    0.6627   -5.0833 H   0  0  0  0  0  0  0  0  0  0  0  0
    2.6530   -1.2334   -9.6390 H   0  0  0  0  0  0  0  0  0  0  0  0
    3.2494   -2.7945   -8.9376 H   0  0  0  0  0  0  0  0  0  0  0  0
    4.0374    0.0597   -7.9851 H   0  0  0  0  0  0  0  0  0  0  0  0
    5.1148   -1.0418   -8.8581 H   0  0  0  0  0  0  0  0  0  0  0  0
    4.5810   -1.4364   -7.2135 H   0  0  0  0  0  0  0  0  0  0  0  0
  1 12  1  0  0  0  0
  2  1  2  0  0  0  0
  3  1  1  0  0  0  0
  4  3  2  0  0  0  0
  4  5  1  0  0  0  0
  5  7  1  0  0  0  0
  6  5  2  0  0  0  0
  7 12  2  0  0  0  0
  7  8  1  0  0  0  0
  8  9  2  0  0  0  0
  9 10  1  0  0  0  0
  9 29  1  0  0  0  0
 10 30  1  0  0  0  0
 11 31  1  0  0  0  0
 11 10  2  0  0  0  0
 12 11  1  0  0  0  0
 13 33  1  0  0  0  0
 13  4  1  0  0  0  0
 14 15  1  0  0  0  0
 14 13  1  0  0  0  0
 15 35  1  0  0  0  0
 15 34  1  0  0  0  0
 16 14  1  0  0  0  0
 17 16  1  0  0  0  0
 17 37  1  0  0  0  0
 18 17  2  0  0  0  0
 19 20  2  0  0  0  0
 19 18  1  0  0  0  0
 20 21  1  0  0  0  0
 21 40  1  0  0  0  0
 21 16  2  0  0  0  0
 22 19  1  0  0  0  0
 23 22  2  0  0  0  0
 24 22  1  0  0  0  0
 25 26  1  0  0  0  0
 25 24  1  0  0  0  0
 26 43  1  0  0  0  0
 26 45  1  0  0  0  0
 27  3  1  0  0  0  0
 28  8  1  0  0  0  0
 32 13  1  0  0  0  0
 36 15  1  0  0  0  0
 38 18  1  0  0  0  0
 39 20  1  0  0  0  0
 41 25  1  0  0  0  0
 42 25  1  0  0  0  0
 44 26  1  0  0  0  0
M  END
$$$$
