45
rmsd201.gzmat
C          0.00000        0.00000        0.00000
O          1.20590        0.00000        0.00000
C         -0.78400        0.00000       -1.26500
C         -2.11680       -0.10230       -1.32110
C         -2.91040       -0.20920       -0.06440
O         -4.10670       -0.37760       -0.09690
C         -2.18380       -0.10000        1.22190
C         -2.90930       -0.09930        2.40980
C         -2.24050        0.00660        3.63230
C         -0.85330        0.10610        3.66320
C         -0.12260        0.09970        2.47180
C         -0.78790       -0.00030        1.25370
C         -2.92180       -0.12400       -2.59550
N         -2.75120       -1.35540       -3.38440
C         -3.02630       -2.57050       -2.60220
C         -1.67740       -1.39510       -4.29330
C         -1.49970       -0.30070       -5.17090
C         -0.48230       -0.31990       -6.10810
C          0.36500       -1.43050       -6.20550
C          0.17290       -2.53040       -5.36860
C         -0.84020       -2.52000       -4.41900
C          1.44500       -1.39060       -7.19710
O          1.78260       -0.44330       -7.86500
O          2.05320       -2.60290       -7.30420
C          3.17850       -2.69220       -8.17840
C          4.40780       -2.12820       -7.48440
Cl         0.15470        0.13730       -2.65960
H         -3.99990       -0.18200        2.38080
H         -2.81080        0.01160        4.56130
H         -0.33170        0.18910        4.61690
H          0.96880        0.17250        2.49090
H         -2.67870        0.77220       -3.21670
H         -4.01940       -0.03430       -2.36920
H         -3.93900       -2.41840       -1.99570
H         -2.20690       -2.85960       -1.92430
H         -3.23320       -3.40770       -3.29290
H         -2.17070        0.55290       -5.12140
H         -0.33080        0.53120       -6.78030
H          0.83050       -3.40090       -5.45210
H         -0.96060       -3.38060       -3.76850
H          2.95670       -2.17500       -9.12970
H          3.24160       -3.78360       -8.34520
H          4.28790       -1.05200       -7.28930
H          5.30740       -2.25380       -8.09550
H          4.58190       -2.61660       -6.51790
