
     RDKit          3D

 45 47  0  0  0  0  0  0  0  0999 V2000
   -0.1682    0.5237    0.5719 C   0  0  0  0  0  0  0  0  0  0  0  0
    0.9748    0.8847    0.7618 O   0  0  0  0  0  0  0  0  0  0  0  0
   -0.7221    0.3739   -0.8165 C   0  0  0  0  0  0  0  0  0  0  0  0
   -1.9948   -0.0047   -1.0860 C   0  0  0  0  0  0  0  0  0  0  0  0
   -2.9161   -0.3542    0.0376 C   0  0  0  0  0  0  0  0  0  0  0  0
   -4.0425   -0.7662   -0.1939 O   0  0  0  0  0  0  0  0  0  0  0  0
   -2.4220   -0.2012    1.4341 C   0  0  0  0  0  0  0  0  0  0  0  0
   -3.2811   -0.4876    2.5015 C   0  0  0  0  0  0  0  0  0  0  0  0
   -2.8286   -0.3567    3.8146 C   0  0  0  0  0  0  0  0  0  0  0  0
   -1.5147    0.0572    4.0680 C   0  0  0  0  0  0  0  0  0  0  0  0
   -0.6527    0.3410    3.0086 C   0  0  0  0  0  0  0  0  0  0  0  0
   -1.1028    0.2142    1.6893 C   0  0  0  0  0  0  0  0  0  0  0  0
   -2.5389   -0.1457   -2.4961 C   0  0  0  0  0  0  0  0  0  0  0  0
   -1.9906   -1.2971   -3.1953 N   0  0  0  0  0  0  0  0  0  0  0  0
   -2.1316   -2.5715   -2.5199 C   0  0  0  0  0  0  0  0  0  0  0  0
   -1.1970   -1.1866   -4.3230 C   0  0  0  0  0  0  0  0  0  0  0  0
   -0.3535   -2.2546   -4.7165 C   0  0  0  0  0  0  0  0  0  0  0  0
    0.4341   -2.1653   -5.8580 C   0  0  0  0  0  0  0  0  0  0  0  0
    0.4227   -1.0122   -6.6559 C   0  0  0  0  0  0  0  0  0  0  0  0
   -0.4132    0.0506   -6.2747 C   0  0  0  0  0  0  0  0  0  0  0  0
   -1.2070   -0.0291   -5.1420 C   0  0  0  0  0  0  0  0  0  0  0  0
    1.2473   -0.8653   -7.8759 C   0  0  0  0  0  0  0  0  0  0  0  0
    1.2660    0.1216   -8.5809 O   0  0  0  0  0  0  0  0  0  0  0  0
    1.9910   -1.9659   -8.1317 O   0  0  0  0  0  0  0  0  0  0  0  0
    2.8448   -1.9221   -9.2830 C   0  0  0  0  0  0  0  0  0  0  0  0
    4.1594   -1.2231   -8.9805 C   0  0  0  0  0  0  0  0  0  0  0  0
    0.3945    0.7526   -2.0787 Cl  0  0  0  0  0  0  0  0  0  0  0  0
   -4.2984   -0.8113    2.2759 H   0  0  0  0  0  0  0  0  0  0  0  0
   -3.5008   -0.5784    4.6465 H   0  0  0  0  0  0  0  0  0  0  0  0
   -1.1631    0.1577    5.0973 H   0  0  0  0  0  0  0  0  0  0  0  0
    0.3759    0.6637    3.1775 H   0  0  0  0  0  0  0  0  0  0  0  0
   -2.2914    0.7665   -3.0479 H   0  0  0  0  0  0  0  0  0  0  0  0
   -3.6341   -0.2236   -2.4281 H   0  0  0  0  0  0  0  0  0  0  0  0
   -2.9976   -2.5245   -1.8462 H   0  0  0  0  0  0  0  0  0  0  0  0
   -1.2420   -2.8463   -1.9208 H   0  0  0  0  0  0  0  0  0  0  0  0
   -2.3141   -3.3766   -3.2473 H   0  0  0  0  0  0  0  0  0  0  0  0
   -0.2943   -3.1574   -4.1109 H   0  0  0  0  0  0  0  0  0  0  0  0
    1.0824   -2.9974   -6.1346 H   0  0  0  0  0  0  0  0  0  0  0  0
   -0.4321    0.9447   -6.9006 H   0  0  0  0  0  0  0  0  0  0  0  0
   -1.8578    0.8112   -4.9033 H   0  0  0  0  0  0  0  0  0  0  0  0
    2.3146   -1.4162  -10.1035 H   0  0  0  0  0  0  0  0  0  0  0  0
    3.0055   -2.9758   -9.5539 H   0  0  0  0  0  0  0  0  0  0  0  0
    3.9854   -0.1641   -8.7415 H   0  0  0  0  0  0  0  0  0  0  0  0
    4.8249   -1.2742   -9.8571 H   0  0  0  0  0  0  0  0  0  0  0  0
    4.6700   -1.7007   -8.1298 H   0  0  0  0  0  0  0  0  0  0  0  0
  1  2  2  0
  1  3  1  0
  1 12  1  0
  3  4  2  0
  3 27  1  0
  4  5  1  0
  4 13  1  0
  5  6  2  0
  5  7  1  0
  7  8  1  0
  7 12  2  0
  8  9  2  0
  8 28  1  0
  9 10  1  0
  9 29  1  0
 10 11  2  0
 10 30  1  0
 11 12  1  0
 11 31  1  0
 13 14  1  0
 13 32  1  0
 13 33  1  0
 14 15  1  0
 14 16  1  0
 15 34  1  0
 15 35  1  0
 15 36  1  0
 16 17  2  0
 16 21  1  0
 17 18  1  0
 17 37  1  0
 18 19  2  0
 18 38  1  0
 19 20  1  0
 19 22  1  0
 20 21  2  0
 20 39  1  0
 21 40  1  0
 22 23  2  0
 22 24  1  0
 24 25  1  0
 25 26  1  0
 25 41  1  0
 25 42  1  0
 26 43  1  0
 26 44  1  0
 26 45  1  0
M  END

