rmsd238.gzmat
 OpenBabel08211713383D

 45 47  0  0  0  0  0  0  0  0999 V2000
    0.0000    0.0000    0.0000 C   0  0  0  0  0  0  0  0  0  0  0  0
    1.2053    0.0000    0.0000 O   0  0  0  0  0  0  0  0  0  0  0  0
   -0.7895    0.0000   -1.2620 C   0  0  0  0  0  0  0  0  0  0  0  0
   -2.1012   -0.2577   -1.3177 C   0  0  0  0  0  0  0  0  0  0  0  0
   -2.8510   -0.5482   -0.0621 C   0  0  0  0  0  0  0  0  0  0  0  0
   -3.9744   -0.9915   -0.0946 O   0  0  0  0  0  0  0  0  0  0  0  0
   -2.1657   -0.2662    1.2207 C   0  0  0  0  0  0  0  0  0  0  0  0
   -2.9005   -0.2742    2.4021 C   0  0  0  0  0  0  0  0  0  0  0  0
   -2.2633   -0.0052    3.6169 C   0  0  0  0  0  0  0  0  0  0  0  0
   -0.8984    0.2601    3.6462 C   0  0  0  0  0  0  0  0  0  0  0  0
   -0.1565    0.2576    2.4617 C   0  0  0  0  0  0  0  0  0  0  0  0
   -0.7916   -0.0008    1.2514 C   0  0  0  0  0  0  0  0  0  0  0  0
   -2.9236   -0.2820   -2.5800 C   0  0  0  0  0  0  0  0  0  0  0  0
   -2.5504   -1.3506   -3.5200 N   0  0  0  0  0  0  0  0  0  0  0  0
   -2.5337   -2.6788   -2.8889 C   0  0  0  0  0  0  0  0  0  0  0  0
   -1.5657   -1.0687   -4.4812 C   0  0  0  0  0  0  0  0  0  0  0  0
   -1.6281    0.1588   -5.1809 C   0  0  0  0  0  0  0  0  0  0  0  0
   -0.7055    0.4423   -6.1719 C   0  0  0  0  0  0  0  0  0  0  0  0
    0.2853   -0.4901   -6.5016 C   0  0  0  0  0  0  0  0  0  0  0  0
    0.3346   -1.7177   -5.8394 C   0  0  0  0  0  0  0  0  0  0  0  0
   -0.5803   -2.0110   -4.8377 C   0  0  0  0  0  0  0  0  0  0  0  0
    1.2536   -0.1295   -7.5416 C   0  0  0  0  0  0  0  0  0  0  0  0
    1.3899    0.9509   -8.0629 O   0  0  0  0  0  0  0  0  0  0  0  0
    2.0174   -1.1999   -7.8904 O   0  0  0  0  0  0  0  0  0  0  0  0
    3.0616   -0.9734   -8.8373 C   0  0  0  0  0  0  0  0  0  0  0  0
    4.2632   -0.3665   -8.1312 C   0  0  0  0  0  0  0  0  0  0  0  0
    0.1094    0.3554   -2.6428 Cl  0  0  0  0  0  0  0  0  0  0  0  0
   -3.9714   -0.4925    2.3749 H   0  0  0  0  0  0  0  0  0  0  0  0
   -2.8407   -0.0064    4.5411 H   0  0  0  0  0  0  0  0  0  0  0  0
   -0.4020    0.4695    4.5941 H   0  0  0  0  0  0  0  0  0  0  0  0
    0.9189    0.4560    2.4810 H   0  0  0  0  0  0  0  0  0  0  0  0
   -2.8731    0.7161   -3.0807 H   0  0  0  0  0  0  0  0  0  0  0  0
   -4.0113   -0.4341   -2.3377 H   0  0  0  0  0  0  0  0  0  0  0  0
   -3.4037   -2.7786   -2.2127 H   0  0  0  0  0  0  0  0  0  0  0  0
   -1.6199   -2.8806   -2.3066 H   0  0  0  0  0  0  0  0  0  0  0  0
   -2.6417   -3.4537   -3.6694 H   0  0  0  0  0  0  0  0  0  0  0  0
   -2.4093    0.8792   -4.9547 H   0  0  0  0  0  0  0  0  0  0  0  0
   -0.7421    1.3981   -6.7052 H   0  0  0  0  0  0  0  0  0  0  0  0
    1.1046   -2.4486   -6.1036 H   0  0  0  0  0  0  0  0  0  0  0  0
   -0.5109   -2.9653   -4.3252 H   0  0  0  0  0  0  0  0  0  0  0  0
    2.6918   -0.3367   -9.6613 H   0  0  0  0  0  0  0  0  0  0  0  0
    3.2527   -1.9981   -9.2061 H   0  0  0  0  0  0  0  0  0  0  0  0
    4.0313    0.6417   -7.7580 H   0  0  0  0  0  0  0  0  0  0  0  0
    5.1224   -0.2799   -8.8041 H   0  0  0  0  0  0  0  0  0  0  0  0
    4.5674   -0.9708   -7.2679 H   0  0  0  0  0  0  0  0  0  0  0  0
  1 12  1  0  0  0  0
  2  1  2  0  0  0  0
  3  1  1  0  0  0  0
  4  3  2  0  0  0  0
  4  5  1  0  0  0  0
  5  7  1  0  0  0  0
  6  5  2  0  0  0  0
  7 12  2  0  0  0  0
  7  8  1  0  0  0  0
  8  9  2  0  0  0  0
  9 10  1  0  0  0  0
  9 29  1  0  0  0  0
 10 30  1  0  0  0  0
 11 31  1  0  0  0  0
 11 10  2  0  0  0  0
 12 11  1  0  0  0  0
 13 33  1  0  0  0  0
 13  4  1  0  0  0  0
 14 15  1  0  0  0  0
 14 13  1  0  0  0  0
 15 35  1  0  0  0  0
 15 34  1  0  0  0  0
 16 14  1  0  0  0  0
 17 37  1  0  0  0  0
 17 16  2  0  0  0  0
 18 17  1  0  0  0  0
 19 18  2  0  0  0  0
 19 20  1  0  0  0  0
 20 21  2  0  0  0  0
 21 16  1  0  0  0  0
 21 40  1  0  0  0  0
 22 19  1  0  0  0  0
 23 22  2  0  0  0  0
 24 22  1  0  0  0  0
 25 26  1  0  0  0  0
 25 24  1  0  0  0  0
 26 43  1  0  0  0  0
 26 45  1  0  0  0  0
 27  3  1  0  0  0  0
 28  8  1  0  0  0  0
 32 13  1  0  0  0  0
 36 15  1  0  0  0  0
 38 18  1  0  0  0  0
 39 20  1  0  0  0  0
 41 25  1  0  0  0  0
 42 25  1  0  0  0  0
 44 26  1  0  0  0  0
M  END
$$$$
