rmsd187.gzmat
 OpenBabel08211713383D

 45 47  0  0  0  0  0  0  0  0999 V2000
    0.0000    0.0000    0.0000 C   0  0  0  0  0  0  0  0  0  0  0  0
    1.2059    0.0000    0.0000 O   0  0  0  0  0  0  0  0  0  0  0  0
   -0.7840    0.0000   -1.2650 C   0  0  0  0  0  0  0  0  0  0  0  0
   -2.1201   -0.0402   -1.3211 C   0  0  0  0  0  0  0  0  0  0  0  0
   -2.9189   -0.0682   -0.0625 C   0  0  0  0  0  0  0  0  0  0  0  0
   -4.1260   -0.1223   -0.0945 O   0  0  0  0  0  0  0  0  0  0  0  0
   -2.1854   -0.0315    1.2237 C   0  0  0  0  0  0  0  0  0  0  0  0
   -2.9083   -0.0311    2.4132 C   0  0  0  0  0  0  0  0  0  0  0  0
   -2.2335   -0.0020    3.6367 C   0  0  0  0  0  0  0  0  0  0  0  0
   -0.8431    0.0215    3.6669 C   0  0  0  0  0  0  0  0  0  0  0  0
   -0.1152    0.0219    2.4738 C   0  0  0  0  0  0  0  0  0  0  0  0
   -0.7864   -0.0026    1.2549 C   0  0  0  0  0  0  0  0  0  0  0  0
   -2.9279   -0.0531   -2.5938 C   0  0  0  0  0  0  0  0  0  0  0  0
   -2.7253   -1.2492   -3.4263 N   0  0  0  0  0  0  0  0  0  0  0  0
   -2.9120   -2.5011   -2.6777 C   0  0  0  0  0  0  0  0  0  0  0  0
   -1.7170   -1.2133   -4.4026 C   0  0  0  0  0  0  0  0  0  0  0  0
   -1.5793   -0.0524   -5.1987 C   0  0  0  0  0  0  0  0  0  0  0  0
   -0.6234   -0.0004   -6.1984 C   0  0  0  0  0  0  0  0  0  0  0  0
    0.2020   -1.1030   -6.4405 C   0  0  0  0  0  0  0  0  0  0  0  0
    0.0433   -2.2706   -5.6890 C   0  0  0  0  0  0  0  0  0  0  0  0
   -0.9056   -2.3329   -4.6790 C   0  0  0  0  0  0  0  0  0  0  0  0
    1.2410   -1.0788   -7.4742 C   0  0  0  0  0  0  0  0  0  0  0  0
    1.9255   -2.0046   -7.8379 O   0  0  0  0  0  0  0  0  0  0  0  0
    1.3745    0.1678   -8.0029 O   0  0  0  0  0  0  0  0  0  0  0  0
    2.3211    0.3295   -9.0595 C   0  0  0  0  0  0  0  0  0  0  0  0
    1.7299   -0.1852  -10.3622 C   0  0  0  0  0  0  0  0  0  0  0  0
    0.1600    0.0542   -2.6615 Cl  0  0  0  0  0  0  0  0  0  0  0  0
   -4.0016   -0.0557    2.3843 H   0  0  0  0  0  0  0  0  0  0  0  0
   -2.8017    0.0009    4.5671 H   0  0  0  0  0  0  0  0  0  0  0  0
   -0.3160    0.0379    4.6212 H   0  0  0  0  0  0  0  0  0  0  0  0
    0.9788    0.0410    2.4922 H   0  0  0  0  0  0  0  0  0  0  0  0
   -2.7162    0.8746   -3.1807 H   0  0  0  0  0  0  0  0  0  0  0  0
   -4.0279   -0.0058   -2.3621 H   0  0  0  0  0  0  0  0  0  0  0  0
   -3.7782   -2.4015   -1.9980 H   0  0  0  0  0  0  0  0  0  0  0  0
   -2.0333   -2.7938   -2.0795 H   0  0  0  0  0  0  0  0  0  0  0  0
   -3.1519   -3.3157   -3.3856 H   0  0  0  0  0  0  0  0  0  0  0  0
   -2.2325    0.8012   -5.0393 H   0  0  0  0  0  0  0  0  0  0  0  0
   -0.5139    0.9049   -6.8024 H   0  0  0  0  0  0  0  0  0  0  0  0
    0.6833   -3.1349   -5.8976 H   0  0  0  0  0  0  0  0  0  0  0  0
   -0.9972   -3.2453   -4.0984 H   0  0  0  0  0  0  0  0  0  0  0  0
    3.2660   -0.1791   -8.7956 H   0  0  0  0  0  0  0  0  0  0  0  0
    2.4674    1.4258   -9.0581 H   0  0  0  0  0  0  0  0  0  0  0  0
    1.6037   -1.2778  -10.3305 H   0  0  0  0  0  0  0  0  0  0  0  0
    2.3746    0.0485  -11.2161 H   0  0  0  0  0  0  0  0  0  0  0  0
    0.7417    0.2516  -10.5524 H   0  0  0  0  0  0  0  0  0  0  0  0
  1  2  2  0  0  0  0
  1 12  1  0  0  0  0
  3  1  1  0  0  0  0
  4  3  2  0  0  0  0
  4  5  1  0  0  0  0
  5  7  1  0  0  0  0
  6  5  2  0  0  0  0
  7 12  2  0  0  0  0
  7  8  1  0  0  0  0
  8  9  2  0  0  0  0
  9 10  1  0  0  0  0
  9 29  1  0  0  0  0
 10 30  1  0  0  0  0
 11 31  1  0  0  0  0
 11 10  2  0  0  0  0
 12 11  1  0  0  0  0
 13 33  1  0  0  0  0
 13  4  1  0  0  0  0
 14 15  1  0  0  0  0
 14 13  1  0  0  0  0
 15 35  1  0  0  0  0
 15 34  1  0  0  0  0
 16 14  1  0  0  0  0
 17 37  1  0  0  0  0
 17 16  2  0  0  0  0
 18 17  1  0  0  0  0
 19 18  2  0  0  0  0
 19 20  1  0  0  0  0
 20 21  2  0  0  0  0
 21 16  1  0  0  0  0
 21 40  1  0  0  0  0
 22 19  1  0  0  0  0
 23 22  2  0  0  0  0
 24 22  1  0  0  0  0
 25 42  1  0  0  0  0
 25 41  1  0  0  0  0
 25 24  1  0  0  0  0
 26 43  1  0  0  0  0
 26 25  1  0  0  0  0
 27  3  1  0  0  0  0
 28  8  1  0  0  0  0
 32 13  1  0  0  0  0
 36 15  1  0  0  0  0
 38 18  1  0  0  0  0
 39 20  1  0  0  0  0
 44 26  1  0  0  0  0
 45 26  1  0  0  0  0
M  END
$$$$
