45
rmsd24.gzmat
C          0.00000        0.00000        0.00000
O          1.20580        0.00000        0.00000
C         -0.78390        0.00000       -1.26420
C         -2.12000       -0.03440       -1.32000
C         -2.92060       -0.03780       -0.06240
O         -4.12870       -0.05440       -0.09490
C         -2.18600       -0.02150        1.22410
C         -2.90720       -0.02150        2.41490
C         -2.23060       -0.01060        3.63780
C         -0.83990        0.00170        3.66670
C         -0.11400        0.00490        2.47270
C         -0.78690       -0.00630        1.25460
C         -2.91920       -0.06890       -2.59760
N         -2.73300       -1.29870       -3.38400
C         -2.94620       -2.51740       -2.58920
C         -1.71800       -1.31880       -4.35460
C         -0.91010       -2.45430       -4.56660
C          0.02430       -2.46450       -5.59310
C          0.16910       -1.35380       -6.42560
C         -0.63940       -0.22680       -6.23250
C         -1.57570       -0.20490       -5.21400
C          1.14660       -1.32130       -7.51810
O          1.29210       -0.44210       -8.33310
O          1.91020       -2.44710       -7.52810
C          2.92980       -2.53520       -8.52390
C          4.10590       -1.64760       -8.14950
Cl         0.15780        0.03940       -2.66320
H         -4.00100       -0.02870        2.38820
H         -2.79720       -0.01200        4.56890
H         -0.31110        0.00920        4.62000
H          0.97990        0.01720        2.49010
H         -2.68220        0.83170       -3.21560
H         -4.01930        0.00960       -2.37690
H         -3.83280       -2.38530       -1.94180
H         -2.08790       -2.78680       -1.95220
H         -3.16680       -3.36110       -3.26850
H         -0.99340       -3.32480       -3.92380
H          0.65580       -3.34500       -5.74460
H         -0.52440        0.63650       -6.89660
H         -2.21320        0.66680       -5.09110
H          2.50590       -2.27560       -9.51090
H          3.17650       -3.61300       -8.48710
H          3.82310       -0.58430       -8.18770
H          4.94870       -1.78730       -8.83420
H          4.45700       -1.85470       -7.13150
