rmsd195.gzmat
 OpenBabel08211713383D

 45 47  0  0  0  0  0  0  0  0999 V2000
    0.0000    0.0000    0.0000 C   0  0  0  0  0  0  0  0  0  0  0  0
    1.2053    0.0000    0.0000 O   0  0  0  0  0  0  0  0  0  0  0  0
   -0.7864    0.0000   -1.2638 C   0  0  0  0  0  0  0  0  0  0  0  0
   -2.1029   -0.2303   -1.3237 C   0  0  0  0  0  0  0  0  0  0  0  0
   -2.8711   -0.4665   -0.0674 C   0  0  0  0  0  0  0  0  0  0  0  0
   -4.0244   -0.8257   -0.0998 O   0  0  0  0  0  0  0  0  0  0  0  0
   -2.1720   -0.2325    1.2177 C   0  0  0  0  0  0  0  0  0  0  0  0
   -2.9049   -0.2419    2.4009 C   0  0  0  0  0  0  0  0  0  0  0  0
   -2.2587   -0.0169    3.6195 C   0  0  0  0  0  0  0  0  0  0  0  0
   -0.8868    0.2108    3.6515 C   0  0  0  0  0  0  0  0  0  0  0  0
   -0.1476    0.2122    2.4654 C   0  0  0  0  0  0  0  0  0  0  0  0
   -0.7916   -0.0060    1.2515 C   0  0  0  0  0  0  0  0  0  0  0  0
   -2.9176   -0.2642   -2.5914 C   0  0  0  0  0  0  0  0  0  0  0  0
   -2.5494   -1.3450   -3.5196 N   0  0  0  0  0  0  0  0  0  0  0  0
   -2.5591   -2.6690   -2.8799 C   0  0  0  0  0  0  0  0  0  0  0  0
   -1.5451   -1.0832   -4.4672 C   0  0  0  0  0  0  0  0  0  0  0  0
   -1.5973    0.1289   -5.1935 C   0  0  0  0  0  0  0  0  0  0  0  0
   -0.6568    0.3932   -6.1734 C   0  0  0  0  0  0  0  0  0  0  0  0
    0.3440   -0.5423   -6.4623 C   0  0  0  0  0  0  0  0  0  0  0  0
    0.3848   -1.7542   -5.7710 C   0  0  0  0  0  0  0  0  0  0  0  0
   -0.5500   -2.0295   -4.7825 C   0  0  0  0  0  0  0  0  0  0  0  0
    1.3255   -0.2068   -7.4990 C   0  0  0  0  0  0  0  0  0  0  0  0
    1.4126    0.8328   -8.1068 O   0  0  0  0  0  0  0  0  0  0  0  0
    2.1801   -1.2429   -7.7150 O   0  0  0  0  0  0  0  0  0  0  0  0
    3.1809   -1.0671   -8.7178 C   0  0  0  0  0  0  0  0  0  0  0  0
    2.5665   -1.2211  -10.0995 C   0  0  0  0  0  0  0  0  0  0  0  0
    0.1289    0.3163   -2.6437 Cl  0  0  0  0  0  0  0  0  0  0  0  0
   -3.9829   -0.4254    2.3715 H   0  0  0  0  0  0  0  0  0  0  0  0
   -2.8347   -0.0217    4.5451 H   0  0  0  0  0  0  0  0  0  0  0  0
   -0.3838    0.3882    4.6024 H   0  0  0  0  0  0  0  0  0  0  0  0
    0.9327    0.3830    2.4854 H   0  0  0  0  0  0  0  0  0  0  0  0
   -2.8570    0.7280   -3.1026 H   0  0  0  0  0  0  0  0  0  0  0  0
   -4.0083   -0.4046   -2.3535 H   0  0  0  0  0  0  0  0  0  0  0  0
   -3.4684   -2.7699   -2.2585 H   0  0  0  0  0  0  0  0  0  0  0  0
   -1.6817   -2.8597   -2.2411 H   0  0  0  0  0  0  0  0  0  0  0  0
   -2.6136   -3.4509   -3.6590 H   0  0  0  0  0  0  0  0  0  0  0  0
   -2.3849    0.8512   -4.9961 H   0  0  0  0  0  0  0  0  0  0  0  0
   -0.6881    1.3357   -6.7301 H   0  0  0  0  0  0  0  0  0  0  0  0
    1.1635   -2.4872   -6.0013 H   0  0  0  0  0  0  0  0  0  0  0  0
   -0.4864   -2.9709   -4.2460 H   0  0  0  0  0  0  0  0  0  0  0  0
    3.8839   -1.8834   -8.4675 H   0  0  0  0  0  0  0  0  0  0  0  0
    3.6725   -0.0866   -8.5837 H   0  0  0  0  0  0  0  0  0  0  0  0
    2.0093   -2.1618  -10.1888 H   0  0  0  0  0  0  0  0  0  0  0  0
    3.3315   -1.2051  -10.8830 H   0  0  0  0  0  0  0  0  0  0  0  0
    1.8612   -0.4018  -10.3075 H   0  0  0  0  0  0  0  0  0  0  0  0
  1 12  1  0  0  0  0
  2  1  2  0  0  0  0
  3  1  1  0  0  0  0
  4  3  2  0  0  0  0
  4  5  1  0  0  0  0
  5  7  1  0  0  0  0
  6  5  2  0  0  0  0
  7 12  2  0  0  0  0
  7  8  1  0  0  0  0
  8  9  2  0  0  0  0
  9 10  1  0  0  0  0
  9 29  1  0  0  0  0
 10 30  1  0  0  0  0
 11 31  1  0  0  0  0
 11 10  2  0  0  0  0
 12 11  1  0  0  0  0
 13 33  1  0  0  0  0
 13  4  1  0  0  0  0
 14 15  1  0  0  0  0
 14 13  1  0  0  0  0
 15 34  1  0  0  0  0
 15 35  1  0  0  0  0
 16 14  1  0  0  0  0
 17 37  1  0  0  0  0
 17 16  2  0  0  0  0
 18 17  1  0  0  0  0
 19 18  2  0  0  0  0
 19 20  1  0  0  0  0
 20 21  2  0  0  0  0
 21 16  1  0  0  0  0
 21 40  1  0  0  0  0
 22 19  1  0  0  0  0
 23 22  2  0  0  0  0
 24 22  1  0  0  0  0
 25 42  1  0  0  0  0
 25 41  1  0  0  0  0
 25 24  1  0  0  0  0
 26 25  1  0  0  0  0
 27  3  1  0  0  0  0
 28  8  1  0  0  0  0
 32 13  1  0  0  0  0
 36 15  1  0  0  0  0
 38 18  1  0  0  0  0
 39 20  1  0  0  0  0
 43 26  1  0  0  0  0
 44 26  1  0  0  0  0
 45 26  1  0  0  0  0
M  END
$$$$
