45
rmsd187.gzmat
C          0.00000        0.00000        0.00000
O          1.20590        0.00000        0.00000
C         -0.78400        0.00000       -1.26500
C         -2.12010       -0.04020       -1.32110
C         -2.91890       -0.06820       -0.06250
O         -4.12600       -0.12230       -0.09450
C         -2.18540       -0.03150        1.22370
C         -2.90830       -0.03110        2.41320
C         -2.23350       -0.00200        3.63670
C         -0.84310        0.02150        3.66690
C         -0.11520        0.02190        2.47380
C         -0.78640       -0.00260        1.25490
C         -2.92790       -0.05310       -2.59380
N         -2.72530       -1.24920       -3.42630
C         -2.91200       -2.50110       -2.67770
C         -1.71700       -1.21330       -4.40260
C         -1.57930       -0.05240       -5.19870
C         -0.62340       -0.00040       -6.19840
C          0.20200       -1.10300       -6.44050
C          0.04330       -2.27060       -5.68900
C         -0.90560       -2.33290       -4.67900
C          1.24100       -1.07880       -7.47420
O          1.92550       -2.00460       -7.83790
O          1.37450        0.16780       -8.00290
C          2.32110        0.32950       -9.05950
C          1.72990       -0.18520      -10.36220
Cl         0.16000        0.05420       -2.66150
H         -4.00160       -0.05570        2.38430
H         -2.80170        0.00090        4.56710
H         -0.31600        0.03790        4.62120
H          0.97880        0.04100        2.49220
H         -2.71620        0.87460       -3.18070
H         -4.02790       -0.00580       -2.36210
H         -3.77820       -2.40150       -1.99800
H         -2.03330       -2.79380       -2.07950
H         -3.15190       -3.31570       -3.38560
H         -2.23250        0.80120       -5.03930
H         -0.51390        0.90490       -6.80240
H          0.68330       -3.13490       -5.89760
H         -0.99720       -3.24530       -4.09840
H          3.26600       -0.17910       -8.79560
H          2.46740        1.42580       -9.05810
H          1.60370       -1.27780      -10.33050
H          2.37460        0.04850      -11.21610
H          0.74170        0.25160      -10.55240
