45

C         -0.03300        0.28050        0.59660
O          1.15150        0.45390        0.79560
C         -0.60010        0.26680       -0.79450
C         -1.91590        0.10300       -1.07310
C         -2.88360       -0.13530        0.04060
O         -4.06090       -0.35350       -0.20160
C         -2.37450       -0.11370        1.43990
C         -3.27010       -0.30120        2.49920
C         -2.80530       -0.29170        3.81450
C         -1.44340       -0.09840        4.07820
C         -0.54530        0.08610        3.02680
C         -1.00700        0.08010        1.70530
C         -2.47210        0.09910       -2.48550
N         -2.11470       -1.10110       -3.22500
C         -2.46640       -2.35850       -2.59560
C         -1.31090       -1.08280       -4.35070
C         -1.12660        0.08830       -5.12780
C         -0.32790        0.07880       -6.26160
C          0.32010       -1.09460       -6.68250
C          0.13670       -2.26050       -5.92540
C         -0.65560       -2.26180       -4.78550
C          1.18180       -1.15430       -7.88410
O          1.74530       -2.15240       -8.28040
O          1.28200        0.04280       -8.50640
C          2.08160        0.09390       -9.69560
C          1.30220       -0.36490      -10.91640
Cl         0.56560        0.50770       -2.04610
H         -4.32500       -0.45270        2.26570
H         -3.50570       -0.43620        4.64020
H         -1.08250       -0.09260        5.10920
H          0.52070        0.23730        3.20360
H         -2.08010        0.97780       -3.00690
H         -3.56580        0.19580       -2.41650
H         -3.31500       -2.19330       -1.91830
H         -1.63640       -2.79770       -2.00930
H         -2.77700       -3.09570       -3.35100
H         -1.62960        1.01570       -4.85660
H         -0.20640        0.99180       -6.84530
H          0.64380       -3.17220       -6.24650
H         -0.74870       -3.18350       -4.21370
H          2.97890       -0.52610       -9.55110
H          2.38310        1.14760       -9.78670
H          1.03460       -1.42740      -10.82440
H          1.91420       -0.24060      -11.82410
H          0.38030        0.22520      -11.03680
