45
rmsd238.gzmat
C          0.00000        0.00000        0.00000
O          1.20530        0.00000        0.00000
C         -0.78950        0.00000       -1.26200
C         -2.10120       -0.25770       -1.31770
C         -2.85100       -0.54820       -0.06210
O         -3.97440       -0.99150       -0.09460
C         -2.16570       -0.26620        1.22070
C         -2.90050       -0.27420        2.40210
C         -2.26330       -0.00520        3.61690
C         -0.89840        0.26010        3.64620
C         -0.15650        0.25760        2.46170
C         -0.79160       -0.00080        1.25140
C         -2.92360       -0.28200       -2.58000
N         -2.55040       -1.35060       -3.52000
C         -2.53370       -2.67880       -2.88890
C         -1.56570       -1.06870       -4.48120
C         -1.62810        0.15880       -5.18090
C         -0.70550        0.44230       -6.17190
C          0.28530       -0.49010       -6.50160
C          0.33460       -1.71770       -5.83940
C         -0.58030       -2.01100       -4.83770
C          1.25360       -0.12950       -7.54160
O          1.38990        0.95090       -8.06290
O          2.01740       -1.19990       -7.89040
C          3.06160       -0.97340       -8.83730
C          4.26320       -0.36650       -8.13120
Cl         0.10940        0.35540       -2.64280
H         -3.97140       -0.49250        2.37490
H         -2.84070       -0.00640        4.54110
H         -0.40200        0.46950        4.59410
H          0.91890        0.45600        2.48100
H         -2.87310        0.71610       -3.08070
H         -4.01130       -0.43410       -2.33770
H         -3.40370       -2.77860       -2.21270
H         -1.61990       -2.88060       -2.30660
H         -2.64170       -3.45370       -3.66940
H         -2.40930        0.87920       -4.95470
H         -0.74210        1.39810       -6.70520
H          1.10460       -2.44860       -6.10360
H         -0.51090       -2.96530       -4.32520
H          2.69180       -0.33670       -9.66130
H          3.25270       -1.99810       -9.20610
H          4.03130        0.64170       -7.75800
H          5.12240       -0.27990       -8.80410
H          4.56740       -0.97080       -7.26790
