
     RDKit          3D

 45 47  0  0  0  0  0  0  0  0999 V2000
   -0.1015   -0.3332    0.6469 C   0  0  0  0  0  0  0  0  0  0  0  0
    1.0675   -0.5823    0.8571 O   0  0  0  0  0  0  0  0  0  0  0  0
   -0.6508   -0.2722   -0.7500 C   0  0  0  0  0  0  0  0  0  0  0  0
   -1.9504   -0.0234   -1.0412 C   0  0  0  0  0  0  0  0  0  0  0  0
   -2.9136    0.2668    0.0640 C   0  0  0  0  0  0  0  0  0  0  0  0
   -4.0717    0.5620   -0.1889 O   0  0  0  0  0  0  0  0  0  0  0  0
   -2.4229    0.2005    1.4685 C   0  0  0  0  0  0  0  0  0  0  0  0
   -3.3170    0.4347    2.5198 C   0  0  0  0  0  0  0  0  0  0  0  0
   -2.8687    0.3841    3.8399 C   0  0  0  0  0  0  0  0  0  0  0  0
   -1.5248    0.1030    4.1164 C   0  0  0  0  0  0  0  0  0  0  0  0
   -0.6282   -0.1284    3.0731 C   0  0  0  0  0  0  0  0  0  0  0  0
   -1.0735   -0.0815    1.7468 C   0  0  0  0  0  0  0  0  0  0  0  0
   -2.4889    0.0273   -2.4594 C   0  0  0  0  0  0  0  0  0  0  0  0
   -2.0431    1.2056   -3.1859 N   0  0  0  0  0  0  0  0  0  0  0  0
   -2.3113    2.4793   -2.5484 C   0  0  0  0  0  0  0  0  0  0  0  0
   -1.2327    1.1400   -4.3051 C   0  0  0  0  0  0  0  0  0  0  0  0
   -0.4905    2.2727   -4.7230 C   0  0  0  0  0  0  0  0  0  0  0  0
    0.3106    2.2243   -5.8557 C   0  0  0  0  0  0  0  0  0  0  0  0
    0.4162    1.0551   -6.6226 C   0  0  0  0  0  0  0  0  0  0  0  0
   -0.3179   -0.0724   -6.2182 C   0  0  0  0  0  0  0  0  0  0  0  0
   -1.1254   -0.0346   -5.0912 C   0  0  0  0  0  0  0  0  0  0  0  0
    1.2914    1.0630   -7.8159 C   0  0  0  0  0  0  0  0  0  0  0  0
    1.9352    2.0191   -8.1934 O   0  0  0  0  0  0  0  0  0  0  0  0
    1.2990   -0.1282   -8.4572 O   0  0  0  0  0  0  0  0  0  0  0  0
    2.1298   -0.2362   -9.6210 C   0  0  0  0  0  0  0  0  0  0  0  0
    3.5732   -0.5367   -9.2541 C   0  0  0  0  0  0  0  0  0  0  0  0
    0.5111   -0.5761   -1.9914 Cl  0  0  0  0  0  0  0  0  0  0  0  0
   -4.3576    0.6546    2.2764 H   0  0  0  0  0  0  0  0  0  0  0  0
   -3.5680    0.5651    4.6593 H   0  0  0  0  0  0  0  0  0  0  0  0
   -1.1768    0.0652    5.1512 H   0  0  0  0  0  0  0  0  0  0  0  0
    0.4241   -0.3481    3.2600 H   0  0  0  0  0  0  0  0  0  0  0  0
   -3.5874    0.0034   -2.4033 H   0  0  0  0  0  0  0  0  0  0  0  0
   -2.1503   -0.8723   -2.9828 H   0  0  0  0  0  0  0  0  0  0  0  0
   -3.1764    2.3690   -1.8808 H   0  0  0  0  0  0  0  0  0  0  0  0
   -2.5613    3.2430   -3.2999 H   0  0  0  0  0  0  0  0  0  0  0  0
   -1.4584    2.8538   -1.9501 H   0  0  0  0  0  0  0  0  0  0  0  0
   -0.5224    3.1936   -4.1432 H   0  0  0  0  0  0  0  0  0  0  0  0
    0.8851    3.0999   -6.1637 H   0  0  0  0  0  0  0  0  0  0  0  0
   -0.2558   -0.9870   -6.8087 H   0  0  0  0  0  0  0  0  0  0  0  0
   -1.6959   -0.9259   -4.8326 H   0  0  0  0  0  0  0  0  0  0  0  0
    2.0612    0.6977  -10.1985 H   0  0  0  0  0  0  0  0  0  0  0  0
    1.6877   -1.0551  -10.2070 H   0  0  0  0  0  0  0  0  0  0  0  0
    4.0105    0.3034   -8.6957 H   0  0  0  0  0  0  0  0  0  0  0  0
    4.1705   -0.6926  -10.1668 H   0  0  0  0  0  0  0  0  0  0  0  0
    3.6391   -1.4466   -8.6376 H   0  0  0  0  0  0  0  0  0  0  0  0
  1  2  2  0
  1  3  1  0
  1 12  1  0
  3  4  2  0
  3 27  1  0
  4  5  1  0
  4 13  1  0
  5  6  2  0
  5  7  1  0
  7  8  1  0
  7 12  2  0
  8  9  2  0
  8 28  1  0
  9 10  1  0
  9 29  1  0
 10 11  2  0
 10 30  1  0
 11 12  1  0
 11 31  1  0
 13 14  1  0
 13 32  1  0
 13 33  1  0
 14 15  1  0
 14 16  1  0
 15 34  1  0
 15 35  1  0
 15 36  1  0
 16 17  2  0
 16 21  1  0
 17 18  1  0
 17 37  1  0
 18 19  2  0
 18 38  1  0
 19 20  1  0
 19 22  1  0
 20 21  2  0
 20 39  1  0
 21 40  1  0
 22 23  2  0
 22 24  1  0
 24 25  1  0
 25 26  1  0
 25 41  1  0
 25 42  1  0
 26 43  1  0
 26 44  1  0
 26 45  1  0
M  END

