36
rmsd12.gzmat
C          0.00000        0.00000        0.00000
H          1.11790        0.00000        0.00000
C         -0.58730        0.00000       -1.43910
C         -0.11710       -1.27310       -2.14840
C         -2.11540        0.06260       -1.42010
C         -0.01890        1.23740       -2.14550
N         -0.56040       -1.08430        0.85050
C         -1.46140       -0.49680        1.85260
C         -1.27600        0.99960        1.66440
O         -1.76120        1.91630        2.25400
O         -0.37980        1.21610        0.64770
C          0.25590       -2.16190        1.16050
O          1.20910       -2.52000        0.51670
O         -0.24630       -2.80640        2.26550
C          0.30720       -4.02350        2.61640
C          0.62250       -5.00780        1.68560
C          1.07260       -6.23660        2.16490
C          1.19340       -6.45770        3.53630
C          0.86950       -5.44990        4.44610
C          0.42270       -4.21160        3.99430
H         -0.43170       -1.27860       -3.19720
H         -0.52920       -2.17400       -1.67660
H          0.97480       -1.37630       -2.13120
H         -2.51880        0.12370       -2.43720
H         -2.47640        0.94270       -0.87560
H         -2.54800       -0.83010       -0.95270
H         -0.38940        1.30940       -3.17380
H          1.07510        1.21490       -2.19370
H         -0.30890        2.16260       -1.62870
H         -2.51150       -0.80760        1.63960
H         -1.23480       -0.80900        2.89680
H          0.53570       -4.82210        0.61650
H          1.33240       -7.02610        1.46030
H          1.54540       -7.42100        3.89960
H          0.97180       -5.62890        5.51540
H          0.16720       -3.41260        4.68490
