
     RDKit          3D

 36 37  0  0  0  0  0  0  0  0999 V2000
    0.0134    0.0646    0.0112 C   0  0  2  0  0  0  0  0  0  0  0  0
    1.1099    0.0027   -0.0504 H   0  0  0  0  0  0  0  0  0  0  0  0
   -0.5915   -0.0532   -1.4055 C   0  0  0  0  0  0  0  0  0  0  0  0
   -0.1721   -1.3987   -2.0160 C   0  0  0  0  0  0  0  0  0  0  0  0
   -2.1235    0.0352   -1.3469 C   0  0  0  0  0  0  0  0  0  0  0  0
   -0.0270    1.1006   -2.2502 C   0  0  0  0  0  0  0  0  0  0  0  0
   -0.4681   -0.9225    0.9804 N   0  0  0  0  0  0  0  0  0  0  0  0
   -1.4056   -0.3080    1.8978 C   0  0  0  0  0  0  0  0  0  0  0  0
   -1.2146    1.1797    1.6266 C   0  0  0  0  0  0  0  0  0  0  0  0
   -1.7181    2.0995    2.1973 O   0  0  0  0  0  0  0  0  0  0  0  0
   -0.3397    1.3195    0.6007 O   0  0  0  0  0  0  0  0  0  0  0  0
    0.2866   -2.0304    1.2539 C   0  0  0  0  0  0  0  0  0  0  0  0
    1.2617   -2.3739    0.6302 O   0  0  0  0  0  0  0  0  0  0  0  0
   -0.2403   -2.6901    2.3242 O   0  0  0  0  0  0  0  0  0  0  0  0
    0.3400   -3.8595    2.7994 C   0  0  0  0  0  0  0  0  0  0  0  0
    1.7143   -3.9823    3.0148 C   0  0  0  0  0  0  0  0  0  0  0  0
    2.2058   -5.1726    3.5559 C   0  0  0  0  0  0  0  0  0  0  0  0
    1.3402   -6.2206    3.8824 C   0  0  0  0  0  0  0  0  0  0  0  0
   -0.0329   -6.0780    3.6648 C   0  0  0  0  0  0  0  0  0  0  0  0
   -0.5376   -4.8962    3.1187 C   0  0  0  0  0  0  0  0  0  0  0  0
   -0.5309   -1.4607   -3.0552 H   0  0  0  0  0  0  0  0  0  0  0  0
   -0.5980   -2.2463   -1.4598 H   0  0  0  0  0  0  0  0  0  0  0  0
    0.9207   -1.5210   -2.0175 H   0  0  0  0  0  0  0  0  0  0  0  0
   -2.5416   -0.0338   -2.3627 H   0  0  0  0  0  0  0  0  0  0  0  0
   -2.4640    0.9887   -0.9151 H   0  0  0  0  0  0  0  0  0  0  0  0
   -2.5490   -0.7931   -0.7595 H   0  0  0  0  0  0  0  0  0  0  0  0
   -0.4175    1.0452   -3.2779 H   0  0  0  0  0  0  0  0  0  0  0  0
    1.0725    1.0491   -2.3054 H   0  0  0  0  0  0  0  0  0  0  0  0
   -0.3020    2.0767   -1.8256 H   0  0  0  0  0  0  0  0  0  0  0  0
   -2.4573   -0.5858    1.7151 H   0  0  0  0  0  0  0  0  0  0  0  0
   -1.1730   -0.5339    2.9474 H   0  0  0  0  0  0  0  0  0  0  0  0
    2.3865   -3.1676    2.7515 H   0  0  0  0  0  0  0  0  0  0  0  0
    3.2801   -5.2782    3.7237 H   0  0  0  0  0  0  0  0  0  0  0  0
    1.7355   -7.1463    4.3062 H   0  0  0  0  0  0  0  0  0  0  0  0
   -0.7176   -6.8906    3.9183 H   0  0  0  0  0  0  0  0  0  0  0  0
   -1.6052   -4.7600    2.9381 H   0  0  0  0  0  0  0  0  0  0  0  0
  1  2  1  6
  1  3  1  0
  1  7  1  0
  1 11  1  0
  3  4  1  0
  3  5  1  0
  3  6  1  0
  4 21  1  0
  4 22  1  0
  4 23  1  0
  5 24  1  0
  5 25  1  0
  5 26  1  0
  6 27  1  0
  6 28  1  0
  6 29  1  0
  7  8  1  0
  7 12  1  0
  8  9  1  0
  8 30  1  0
  8 31  1  0
  9 10  2  0
  9 11  1  0
 12 13  2  0
 12 14  1  0
 14 15  1  0
 15 16  2  0
 15 20  1  0
 16 17  1  0
 16 32  1  0
 17 18  2  0
 17 33  1  0
 18 19  1  0
 18 34  1  0
 19 20  2  0
 19 35  1  0
 20 36  1  0
M  END

