rmsd103.gzmat
 OpenBabel08211713403D

 36 37  0  0  1  0  0  0  0  0999 V2000
    0.0000    0.0000    0.0000 C   0  0  2  0  0  0  0  0  0  0  0  0
    1.1185    0.0000    0.0000 H   0  0  0  0  0  0  0  0  0  0  0  0
   -0.5864    0.0000   -1.4398 C   0  0  0  0  0  0  0  0  0  0  0  0
   -0.2133   -1.3280   -2.1059 C   0  0  0  0  0  0  0  0  0  0  0  0
   -2.1047    0.1830   -1.4221 C   0  0  0  0  0  0  0  0  0  0  0  0
    0.0723    1.1682   -2.1852 C   0  0  0  0  0  0  0  0  0  0  0  0
   -0.5591   -1.0895    0.8451 N   0  0  0  0  0  0  0  0  0  0  0  0
   -1.4479   -0.5104    1.8616 C   0  0  0  0  0  0  0  0  0  0  0  0
   -1.2617    0.9875    1.6831 C   0  0  0  0  0  0  0  0  0  0  0  0
   -1.7370    1.9000    2.2870 O   0  0  0  0  0  0  0  0  0  0  0  0
   -0.3805    1.2118    0.6546 O   0  0  0  0  0  0  0  0  0  0  0  0
    0.2507   -2.1794    1.1232 C   0  0  0  0  0  0  0  0  0  0  0  0
    1.2074   -2.5161    0.4723 O   0  0  0  0  0  0  0  0  0  0  0  0
   -0.2603   -2.8600    2.2016 O   0  0  0  0  0  0  0  0  0  0  0  0
    0.2762   -4.0975    2.5041 C   0  0  0  0  0  0  0  0  0  0  0  0
    0.3369   -4.3594    3.8738 C   0  0  0  0  0  0  0  0  0  0  0  0
    0.7657   -5.6211    4.2753 C   0  0  0  0  0  0  0  0  0  0  0  0
    1.1272   -6.5789    3.3263 C   0  0  0  0  0  0  0  0  0  0  0  0
    1.0617   -6.2841    1.9650 C   0  0  0  0  0  0  0  0  0  0  0  0
    0.6285   -5.0309    1.5351 C   0  0  0  0  0  0  0  0  0  0  0  0
   -0.4385   -1.3143   -3.1770 H   0  0  0  0  0  0  0  0  0  0  0  0
   -0.7635   -2.1690   -1.6654 H   0  0  0  0  0  0  0  0  0  0  0  0
    0.8550   -1.5571   -1.9962 H   0  0  0  0  0  0  0  0  0  0  0  0
   -2.5103    0.2005   -2.4402 H   0  0  0  0  0  0  0  0  0  0  0  0
   -2.3892    1.1282   -0.9440 H   0  0  0  0  0  0  0  0  0  0  0  0
   -2.6043   -0.6333   -0.8882 H   0  0  0  0  0  0  0  0  0  0  0  0
   -0.3174    1.2530   -3.2059 H   0  0  0  0  0  0  0  0  0  0  0  0
    1.1580    1.0460   -2.2625 H   0  0  0  0  0  0  0  0  0  0  0  0
   -0.1205    2.1253   -1.6820 H   0  0  0  0  0  0  0  0  0  0  0  0
   -2.5018   -0.8140    1.6567 H   0  0  0  0  0  0  0  0  0  0  0  0
   -1.2111   -0.8340    2.8999 H   0  0  0  0  0  0  0  0  0  0  0  0
    0.0525   -3.5976    4.5948 H   0  0  0  0  0  0  0  0  0  0  0  0
    0.8220   -5.8590    5.3369 H   0  0  0  0  0  0  0  0  0  0  0  0
    1.4635   -7.5609    3.6518 H   0  0  0  0  0  0  0  0  0  0  0  0
    1.3525   -7.0334    1.2294 H   0  0  0  0  0  0  0  0  0  0  0  0
    0.5813   -4.7886    0.4745 H   0  0  0  0  0  0  0  0  0  0  0  0
  1  2  1  6  0  0  0
  1 11  1  0  0  0  0
  1  7  1  0  0  0  0
  3  5  1  0  0  0  0
  3  1  1  0  0  0  0
  4 23  1  0  0  0  0
  4 22  1  0  0  0  0
  4  3  1  0  0  0  0
  5 25  1  0  0  0  0
  5 26  1  0  0  0  0
  6 29  1  0  0  0  0
  6  3  1  0  0  0  0
  7 12  1  0  0  0  0
  7  8  1  0  0  0  0
  8 31  1  0  0  0  0
  9  8  1  0  0  0  0
  9 10  2  0  0  0  0
 11  9  1  0  0  0  0
 12 14  1  0  0  0  0
 13 12  2  0  0  0  0
 14 15  1  0  0  0  0
 15 16  2  0  0  0  0
 16 17  1  0  0  0  0
 16 32  1  0  0  0  0
 17 33  1  0  0  0  0
 18 34  1  0  0  0  0
 18 17  2  0  0  0  0
 19 18  1  0  0  0  0
 20 19  2  0  0  0  0
 20 15  1  0  0  0  0
 21  4  1  0  0  0  0
 24  5  1  0  0  0  0
 27  6  1  0  0  0  0
 28  6  1  0  0  0  0
 30  8  1  0  0  0  0
 35 19  1  0  0  0  0
 36 20  1  0  0  0  0
M  END
$$$$
