36
rmsd49.gzmat
C          0.00000        0.00000        0.00000
H          1.11800        0.00000        0.00000
C         -0.58920        0.00000       -1.43870
C         -0.16710       -1.30140       -2.12680
C         -2.11380        0.12050       -1.41480
C          0.02080        1.20540       -2.16570
N         -0.56030       -1.08620        0.84860
C         -1.45670       -0.50260        1.85620
C         -1.27580        0.99460        1.66700
O         -1.76370        1.91000        2.25610
O         -0.38030        1.21390        0.65010
C          0.24900       -2.17270        1.14190
O          1.20450       -2.52180        0.49590
O         -0.26160       -2.83750        2.23100
C          0.29340       -4.06040        2.56110
C          0.41500       -4.27170        3.93510
C          0.86550       -5.51650        4.36480
C          1.19000       -6.50730        3.43740
C          1.06110       -6.26410        2.07040
C          0.60540       -5.02880        1.61280
H         -0.43890       -1.29590       -3.18720
H         -0.64930       -2.17390       -1.66890
H          0.91540       -1.46950       -2.06500
H         -2.52300        0.14730       -2.43130
H         -2.43730        1.03960       -0.91140
H         -2.57740       -0.73040       -0.90190
H         -0.37570        1.29380       -3.18330
H          1.11020        1.12800       -2.24790
H         -0.20750        2.14520       -1.64450
H         -2.50730       -0.81590        1.65060
H         -1.22220       -0.81470        2.89870
H          0.16260       -3.48450        4.63980
H          0.96860       -5.71440        5.43100
H          1.54770       -7.47490        3.78360
H          1.31970       -7.04160        1.35250
H          0.51140       -4.82500        0.54760
