rmsd107.gzmat
 OpenBabel08211713403D

 36 37  0  0  1  0  0  0  0  0999 V2000
    0.0000    0.0000    0.0000 C   0  0  2  0  0  0  0  0  0  0  0  0
    1.1178    0.0000    0.0000 H   0  0  0  0  0  0  0  0  0  0  0  0
   -0.5862    0.0000   -1.4400 C   0  0  0  0  0  0  0  0  0  0  0  0
   -0.1766   -1.3076   -2.1230 C   0  0  0  0  0  0  0  0  0  0  0  0
   -2.1096    0.1384   -1.4260 C   0  0  0  0  0  0  0  0  0  0  0  0
    0.0407    1.1969   -2.1677 C   0  0  0  0  0  0  0  0  0  0  0  0
   -0.5611   -1.0822    0.8537 N   0  0  0  0  0  0  0  0  0  0  0  0
   -1.5001   -0.4918    1.8195 C   0  0  0  0  0  0  0  0  0  0  0  0
   -1.3088    1.0045    1.6340 C   0  0  0  0  0  0  0  0  0  0  0  0
   -1.8116    1.9228    2.2055 O   0  0  0  0  0  0  0  0  0  0  0  0
   -0.3791    1.2174    0.6463 O   0  0  0  0  0  0  0  0  0  0  0  0
    0.2805   -2.1251    1.2195 C   0  0  0  0  0  0  0  0  0  0  0  0
    1.2495   -2.4843    0.6007 O   0  0  0  0  0  0  0  0  0  0  0  0
   -0.2273   -2.7365    2.3392 O   0  0  0  0  0  0  0  0  0  0  0  0
    0.3770   -3.8865    2.8090 C   0  0  0  0  0  0  0  0  0  0  0  0
    1.7549   -4.0698    2.8460 C   0  0  0  0  0  0  0  0  0  0  0  0
    2.2410   -5.2258    3.4558 C   0  0  0  0  0  0  0  0  0  0  0  0
    1.3628   -6.1566    4.0089 C   0  0  0  0  0  0  0  0  0  0  0  0
   -0.0160   -5.9451    3.9562 C   0  0  0  0  0  0  0  0  0  0  0  0
   -0.5285   -4.8036    3.3478 C   0  0  0  0  0  0  0  0  0  0  0  0
   -0.4986   -1.3245   -3.1692 H   0  0  0  0  0  0  0  0  0  0  0  0
   -0.6235   -2.1790   -1.6269 H   0  0  0  0  0  0  0  0  0  0  0  0
    0.9100   -1.4575   -2.1104 H   0  0  0  0  0  0  0  0  0  0  0  0
   -2.5099    0.1808   -2.4457 H   0  0  0  0  0  0  0  0  0  0  0  0
   -2.4283    1.0558   -0.9165 H   0  0  0  0  0  0  0  0  0  0  0  0
   -2.5863   -0.7138   -0.9282 H   0  0  0  0  0  0  0  0  0  0  0  0
   -0.3604    1.2955   -3.1823 H   0  0  0  0  0  0  0  0  0  0  0  0
    1.1281    1.1011   -2.2559 H   0  0  0  0  0  0  0  0  0  0  0  0
   -0.1682    2.1390   -1.6429 H   0  0  0  0  0  0  0  0  0  0  0  0
   -2.5397   -0.8066    1.5654 H   0  0  0  0  0  0  0  0  0  0  0  0
   -1.3156   -0.7993    2.8738 H   0  0  0  0  0  0  0  0  0  0  0  0
    2.4370   -3.3449    2.4038 H   0  0  0  0  0  0  0  0  0  0  0  0
    3.3159   -5.3996    3.4983 H   0  0  0  0  0  0  0  0  0  0  0  0
    1.7535   -7.0550    4.4822 H   0  0  0  0  0  0  0  0  0  0  0  0
   -0.6951   -6.6783    4.3894 H   0  0  0  0  0  0  0  0  0  0  0  0
   -1.5981   -4.6204    3.2908 H   0  0  0  0  0  0  0  0  0  0  0  0
  1  2  1  6  0  0  0
  1 11  1  0  0  0  0
  1  7  1  0  0  0  0
  3  5  1  0  0  0  0
  3  1  1  0  0  0  0
  4 23  1  0  0  0  0
  4 22  1  0  0  0  0
  4  3  1  0  0  0  0
  5 26  1  0  0  0  0
  5 25  1  0  0  0  0
  6 29  1  0  0  0  0
  6  3  1  0  0  0  0
  7 12  1  0  0  0  0
  7  8  1  0  0  0  0
  8 31  1  0  0  0  0
  9  8  1  0  0  0  0
  9 10  2  0  0  0  0
 11  9  1  0  0  0  0
 12 14  1  0  0  0  0
 13 12  2  0  0  0  0
 14 15  1  0  0  0  0
 15 16  2  0  0  0  0
 15 20  1  0  0  0  0
 16 17  1  0  0  0  0
 17 33  1  0  0  0  0
 17 18  2  0  0  0  0
 18 34  1  0  0  0  0
 19 18  1  0  0  0  0
 19 35  1  0  0  0  0
 20 19  2  0  0  0  0
 21  4  1  0  0  0  0
 24  5  1  0  0  0  0
 27  6  1  0  0  0  0
 28  6  1  0  0  0  0
 30  8  1  0  0  0  0
 32 16  1  0  0  0  0
 36 20  1  0  0  0  0
M  END
$$$$
