36
rmsd85.gzmat
C          0.00000        0.00000        0.00000
H          1.11830        0.00000        0.00000
C         -0.58640        0.00000       -1.43980
C         -0.18820       -1.31270       -2.12120
C         -2.10830        0.15170       -1.41990
C          0.05020        1.18770       -2.17370
N         -0.55940       -1.08610        0.84980
C         -1.46000       -0.50180        1.85360
C         -1.27860        0.99500        1.66480
O         -1.76720        1.90940        2.25460
O         -0.38110        1.21460        0.64950
C          0.26200       -2.16060        1.15680
O          1.21450       -2.51350        0.50860
O         -0.23290       -2.80930        2.26220
C          0.34260       -4.01460        2.61940
C          0.47270       -4.18880        3.99820
C          0.93990       -5.41690        4.45670
C          1.27040       -6.42790        3.55280
C          1.13740       -6.21970        2.18040
C          0.66660       -5.00150        1.69420
H         -0.46260       -1.30760       -3.18150
H         -0.68370       -2.17550       -1.65860
H          0.89210       -1.49670       -2.06000
H         -2.51420        0.18260       -2.43760
H         -2.41460        1.07940       -0.92130
H         -2.58960       -0.68820       -0.90540
H         -0.33760        1.27260       -3.19520
H          1.13890        1.09050       -2.24640
H         -0.16450        2.13640       -1.66360
H         -2.50980       -0.81620        1.64430
H         -1.23020       -0.81180        2.89790
H          0.21290       -3.38630        4.68320
H          1.05190       -5.58770        5.52670
H          1.63530       -7.38380        3.92250
H          1.40360       -7.01180        1.48110
H          0.56890       -4.82480        0.62450
