36
rmsd18.gzmat
C          0.00000        0.00000        0.00000
H          1.11780        0.00000        0.00000
C         -0.58930        0.00000       -1.43890
C         -0.09140       -1.25860       -2.15530
C         -2.11870        0.03030       -1.41900
C         -0.04990        1.25410       -2.13860
N         -0.56150       -1.08470        0.84780
C         -1.47560       -0.50140        1.84030
C         -1.28770        0.99570        1.65740
O         -1.77860        1.91130        2.24350
O         -0.38060        1.21450        0.65050
C          0.24760       -2.16440        1.16560
O          1.22690       -2.50880        0.55410
O         -0.30450       -2.83430        2.23100
C          0.23820       -4.05920        2.57440
C          1.60580       -4.25230        2.73690
C          2.03470       -5.49310        3.20530
C          1.11010       -6.49580        3.49660
C         -0.25630       -6.27220        3.32010
C         -0.71100       -5.04440        2.84830
H         -0.44680       -1.29110       -3.19070
H         -0.44300       -2.17320       -1.65990
H          1.00380       -1.31320       -2.18080
H         -2.52420        0.10090       -2.43490
H         -2.49840        0.89300       -0.85900
H         -2.53240       -0.87970       -0.96840
H         -0.41070        1.31350       -3.17150
H          1.04460        1.26640       -2.17500
H         -0.37360        2.17000       -1.62510
H         -2.52270       -0.81280        1.61520
H         -1.25950       -0.81740        2.88620
H          2.31830       -3.46610        2.49290
H          3.09980       -5.67720        3.34310
H          1.45620       -7.46050        3.86170
H         -0.97160       -7.06130        3.54870
H         -1.76890       -4.84720        2.69700
