rmsd18.gzmat
 OpenBabel08211713403D

 36 37  0  0  1  0  0  0  0  0999 V2000
    0.0000    0.0000    0.0000 C   0  0  2  0  0  0  0  0  0  0  0  0
    1.1178    0.0000    0.0000 H   0  0  0  0  0  0  0  0  0  0  0  0
   -0.5893    0.0000   -1.4389 C   0  0  0  0  0  0  0  0  0  0  0  0
   -0.0914   -1.2586   -2.1553 C   0  0  0  0  0  0  0  0  0  0  0  0
   -2.1187    0.0303   -1.4190 C   0  0  0  0  0  0  0  0  0  0  0  0
   -0.0499    1.2541   -2.1386 C   0  0  0  0  0  0  0  0  0  0  0  0
   -0.5615   -1.0847    0.8478 N   0  0  0  0  0  0  0  0  0  0  0  0
   -1.4756   -0.5014    1.8403 C   0  0  0  0  0  0  0  0  0  0  0  0
   -1.2877    0.9957    1.6574 C   0  0  0  0  0  0  0  0  0  0  0  0
   -1.7786    1.9113    2.2435 O   0  0  0  0  0  0  0  0  0  0  0  0
   -0.3806    1.2145    0.6505 O   0  0  0  0  0  0  0  0  0  0  0  0
    0.2476   -2.1644    1.1656 C   0  0  0  0  0  0  0  0  0  0  0  0
    1.2269   -2.5088    0.5541 O   0  0  0  0  0  0  0  0  0  0  0  0
   -0.3045   -2.8343    2.2310 O   0  0  0  0  0  0  0  0  0  0  0  0
    0.2382   -4.0592    2.5744 C   0  0  0  0  0  0  0  0  0  0  0  0
    1.6058   -4.2523    2.7369 C   0  0  0  0  0  0  0  0  0  0  0  0
    2.0347   -5.4931    3.2053 C   0  0  0  0  0  0  0  0  0  0  0  0
    1.1101   -6.4958    3.4966 C   0  0  0  0  0  0  0  0  0  0  0  0
   -0.2563   -6.2722    3.3201 C   0  0  0  0  0  0  0  0  0  0  0  0
   -0.7110   -5.0444    2.8483 C   0  0  0  0  0  0  0  0  0  0  0  0
   -0.4468   -1.2911   -3.1907 H   0  0  0  0  0  0  0  0  0  0  0  0
   -0.4430   -2.1732   -1.6599 H   0  0  0  0  0  0  0  0  0  0  0  0
    1.0038   -1.3132   -2.1808 H   0  0  0  0  0  0  0  0  0  0  0  0
   -2.5242    0.1009   -2.4349 H   0  0  0  0  0  0  0  0  0  0  0  0
   -2.4984    0.8930   -0.8590 H   0  0  0  0  0  0  0  0  0  0  0  0
   -2.5324   -0.8797   -0.9684 H   0  0  0  0  0  0  0  0  0  0  0  0
   -0.4107    1.3135   -3.1715 H   0  0  0  0  0  0  0  0  0  0  0  0
    1.0446    1.2664   -2.1750 H   0  0  0  0  0  0  0  0  0  0  0  0
   -0.3736    2.1700   -1.6251 H   0  0  0  0  0  0  0  0  0  0  0  0
   -2.5227   -0.8128    1.6152 H   0  0  0  0  0  0  0  0  0  0  0  0
   -1.2595   -0.8174    2.8862 H   0  0  0  0  0  0  0  0  0  0  0  0
    2.3183   -3.4661    2.4929 H   0  0  0  0  0  0  0  0  0  0  0  0
    3.0998   -5.6772    3.3431 H   0  0  0  0  0  0  0  0  0  0  0  0
    1.4562   -7.4605    3.8617 H   0  0  0  0  0  0  0  0  0  0  0  0
   -0.9716   -7.0613    3.5487 H   0  0  0  0  0  0  0  0  0  0  0  0
   -1.7689   -4.8472    2.6970 H   0  0  0  0  0  0  0  0  0  0  0  0
  1  2  1  6  0  0  0
  1 11  1  0  0  0  0
  1  7  1  0  0  0  0
  3  5  1  0  0  0  0
  3  1  1  0  0  0  0
  4 22  1  0  0  0  0
  4  3  1  0  0  0  0
  5 26  1  0  0  0  0
  5 25  1  0  0  0  0
  6 29  1  0  0  0  0
  6  3  1  0  0  0  0
  7 12  1  0  0  0  0
  7  8  1  0  0  0  0
  8 31  1  0  0  0  0
  9  8  1  0  0  0  0
  9 10  2  0  0  0  0
 11  9  1  0  0  0  0
 12 14  1  0  0  0  0
 13 12  2  0  0  0  0
 14 15  1  0  0  0  0
 15 16  2  0  0  0  0
 15 20  1  0  0  0  0
 16 17  1  0  0  0  0
 17 33  1  0  0  0  0
 17 18  2  0  0  0  0
 18 34  1  0  0  0  0
 19 18  1  0  0  0  0
 19 35  1  0  0  0  0
 20 19  2  0  0  0  0
 21  4  1  0  0  0  0
 23  4  1  0  0  0  0
 24  5  1  0  0  0  0
 27  6  1  0  0  0  0
 28  6  1  0  0  0  0
 30  8  1  0  0  0  0
 32 16  1  0  0  0  0
 36 20  1  0  0  0  0
M  END
$$$$
