
     RDKit          3D

 36 37  0  0  0  0  0  0  0  0999 V2000
   -0.0008    0.0284    0.0190 C   0  0  2  0  0  0  0  0  0  0  0  0
    1.0964   -0.0376   -0.0191 H   0  0  0  0  0  0  0  0  0  0  0  0
   -0.5715   -0.0055   -1.4162 C   0  0  0  0  0  0  0  0  0  0  0  0
   -0.1554   -1.3234   -2.0863 C   0  0  0  0  0  0  0  0  0  0  0  0
   -2.1031    0.1027   -1.3911 C   0  0  0  0  0  0  0  0  0  0  0  0
    0.0302    1.1825   -2.1842 C   0  0  0  0  0  0  0  0  0  0  0  0
   -0.5117   -1.0097    0.9180 N   0  0  0  0  0  0  0  0  0  0  0  0
   -1.4654   -0.4404    1.8480 C   0  0  0  0  0  0  0  0  0  0  0  0
   -1.2590    1.0588    1.6668 C   0  0  0  0  0  0  0  0  0  0  0  0
   -1.7691    1.9482    2.2784 O   0  0  0  0  0  0  0  0  0  0  0  0
   -0.3611    1.2503    0.6696 O   0  0  0  0  0  0  0  0  0  0  0  0
    0.2354   -2.1329    1.1484 C   0  0  0  0  0  0  0  0  0  0  0  0
    1.2283   -2.4406    0.5344 O   0  0  0  0  0  0  0  0  0  0  0  0
   -0.3189   -2.8513    2.1655 O   0  0  0  0  0  0  0  0  0  0  0  0
    0.2339   -4.0612    2.5657 C   0  0  0  0  0  0  0  0  0  0  0  0
    0.3452   -4.2666    3.9411 C   0  0  0  0  0  0  0  0  0  0  0  0
    0.8268   -5.4888    4.4150 C   0  0  0  0  0  0  0  0  0  0  0  0
    1.1998   -6.4924    3.5170 C   0  0  0  0  0  0  0  0  0  0  0  0
    1.0837   -6.2695    2.1418 C   0  0  0  0  0  0  0  0  0  0  0  0
    0.5976   -5.0544    1.6539 C   0  0  0  0  0  0  0  0  0  0  0  0
   -0.4834   -1.3236   -3.1374 H   0  0  0  0  0  0  0  0  0  0  0  0
   -0.6142   -2.1906   -1.5892 H   0  0  0  0  0  0  0  0  0  0  0  0
    0.9347   -1.4655   -2.0614 H   0  0  0  0  0  0  0  0  0  0  0  0
   -2.4962    0.0907   -2.4191 H   0  0  0  0  0  0  0  0  0  0  0  0
   -2.4412    1.0383   -0.9203 H   0  0  0  0  0  0  0  0  0  0  0  0
   -2.5551   -0.7474   -0.8568 H   0  0  0  0  0  0  0  0  0  0  0  0
   -0.3375    1.1900   -3.2217 H   0  0  0  0  0  0  0  0  0  0  0  0
    1.1297    1.1158   -2.2177 H   0  0  0  0  0  0  0  0  0  0  0  0
   -0.2395    2.1385   -1.7129 H   0  0  0  0  0  0  0  0  0  0  0  0
   -2.5143   -0.6998    1.6271 H   0  0  0  0  0  0  0  0  0  0  0  0
   -1.2580   -0.7276    2.8877 H   0  0  0  0  0  0  0  0  0  0  0  0
    0.0495   -3.4674    4.6230 H   0  0  0  0  0  0  0  0  0  0  0  0
    0.9127   -5.6536    5.4914 H   0  0  0  0  0  0  0  0  0  0  0  0
    1.5803   -7.4467    3.8875 H   0  0  0  0  0  0  0  0  0  0  0  0
    1.3741   -7.0500    1.4348 H   0  0  0  0  0  0  0  0  0  0  0  0
    0.5143   -4.8742    0.5835 H   0  0  0  0  0  0  0  0  0  0  0  0
  1  2  1  6
  1  3  1  0
  1  7  1  0
  1 11  1  0
  3  4  1  0
  3  5  1  0
  3  6  1  0
  4 21  1  0
  4 22  1  0
  4 23  1  0
  5 24  1  0
  5 25  1  0
  5 26  1  0
  6 27  1  0
  6 28  1  0
  6 29  1  0
  7  8  1  0
  7 12  1  0
  8  9  1  0
  8 30  1  0
  8 31  1  0
  9 10  2  0
  9 11  1  0
 12 13  2  0
 12 14  1  0
 14 15  1  0
 15 16  2  0
 15 20  1  0
 16 17  1  0
 16 32  1  0
 17 18  2  0
 17 33  1  0
 18 19  1  0
 18 34  1  0
 19 20  2  0
 19 35  1  0
 20 36  1  0
M  END

