36
rmsd115.gzmat
C          0.00000        0.00000        0.00000
H          1.11790        0.00000        0.00000
C         -0.58760        0.00000       -1.43930
C         -0.11920       -1.27610       -2.14470
C         -2.11570        0.06510       -1.41900
C         -0.01740        1.23380       -2.15110
N         -0.56040       -1.08470        0.84990
C         -1.45540       -0.50100        1.85930
C         -1.28040        0.99580        1.66370
O         -1.77630        1.91200        2.24470
O         -0.38130        1.21440        0.64960
C          0.24420       -2.17390        1.14440
O          1.19950       -2.52930        0.50180
O         -0.27830       -2.83400        2.23020
C          0.23830       -4.07870        2.54060
C          1.60420       -4.33310        2.60280
C          2.01050       -5.59300        3.04020
C          1.06620       -6.55350        3.40050
C         -0.29810       -6.26940        3.32290
C         -0.73090       -5.02130        2.88510
H         -0.44970       -1.29340       -3.18850
H         -0.51620       -2.17740       -1.65990
H          0.97350       -1.37280       -2.14170
H         -2.52050        0.09700       -2.43710
H         -2.47590        0.95950       -0.89740
H         -2.54830       -0.81430       -0.92770
H         -0.44120        1.34020       -3.15580
H          1.07090        1.17700       -2.26190
H         -0.24890        2.15700       -1.60280
H         -2.50630       -0.81760        1.66020
H         -1.21520       -0.80970        2.90220
H          2.33260       -3.57960        2.30700
H          3.07310       -5.82630        3.09820
H          1.39500       -7.53260        3.74260
H         -1.02760       -7.02870        3.60100
H         -1.78720       -4.77720        2.81120
