rmsd100.gzmat
 OpenBabel08211713403D

 36 37  0  0  1  0  0  0  0  0999 V2000
    0.0000    0.0000    0.0000 C   0  0  2  0  0  0  0  0  0  0  0  0
    1.1179    0.0000    0.0000 H   0  0  0  0  0  0  0  0  0  0  0  0
   -0.5872    0.0000   -1.4396 C   0  0  0  0  0  0  0  0  0  0  0  0
   -0.1767   -1.3078   -2.1221 C   0  0  0  0  0  0  0  0  0  0  0  0
   -2.1106    0.1360   -1.4204 C   0  0  0  0  0  0  0  0  0  0  0  0
    0.0354    1.1966   -2.1707 C   0  0  0  0  0  0  0  0  0  0  0  0
   -0.5612   -1.0857    0.8483 N   0  0  0  0  0  0  0  0  0  0  0  0
   -1.4728   -0.5016    1.8424 C   0  0  0  0  0  0  0  0  0  0  0  0
   -1.2828    0.9954    1.6616 C   0  0  0  0  0  0  0  0  0  0  0  0
   -1.7692    1.9105    2.2523 O   0  0  0  0  0  0  0  0  0  0  0  0
   -0.3796    1.2143    0.6510 O   0  0  0  0  0  0  0  0  0  0  0  0
    0.2602   -2.1555    1.1724 C   0  0  0  0  0  0  0  0  0  0  0  0
    1.2381   -2.4970    0.5570 O   0  0  0  0  0  0  0  0  0  0  0  0
   -0.2764   -2.8225    2.2477 O   0  0  0  0  0  0  0  0  0  0  0  0
    0.3266   -4.0069    2.6318 C   0  0  0  0  0  0  0  0  0  0  0  0
    1.7002   -4.1135    2.8228 C   0  0  0  0  0  0  0  0  0  0  0  0
    2.1939   -5.3121    3.3343 C   0  0  0  0  0  0  0  0  0  0  0  0
    1.3263   -6.3619    3.6337 C   0  0  0  0  0  0  0  0  0  0  0  0
   -0.0470   -6.2265    3.4249 C   0  0  0  0  0  0  0  0  0  0  0  0
   -0.5666   -5.0395    2.9164 C   0  0  0  0  0  0  0  0  0  0  0  0
   -0.4925   -1.3235   -3.1704 H   0  0  0  0  0  0  0  0  0  0  0  0
   -0.6281   -2.1796   -1.6308 H   0  0  0  0  0  0  0  0  0  0  0  0
    0.9096   -1.4606   -2.1015 H   0  0  0  0  0  0  0  0  0  0  0  0
   -2.5168    0.1727   -2.4378 H   0  0  0  0  0  0  0  0  0  0  0  0
   -2.4253    1.0566   -0.9149 H   0  0  0  0  0  0  0  0  0  0  0  0
   -2.5841   -0.7132   -0.9145 H   0  0  0  0  0  0  0  0  0  0  0  0
   -0.3744    1.2958   -3.1821 H   0  0  0  0  0  0  0  0  0  0  0  0
    1.1220    1.0998   -2.2675 H   0  0  0  0  0  0  0  0  0  0  0  0
   -0.1678    2.1388   -1.6445 H   0  0  0  0  0  0  0  0  0  0  0  0
   -2.5207   -0.8100    1.6170 H   0  0  0  0  0  0  0  0  0  0  0  0
   -1.2578   -0.8194    2.8879 H   0  0  0  0  0  0  0  0  0  0  0  0
    2.3693   -3.2936    2.5691 H   0  0  0  0  0  0  0  0  0  0  0  0
    3.2646   -5.4245    3.5002 H   0  0  0  0  0  0  0  0  0  0  0  0
    1.7224   -7.2935    4.0323 H   0  0  0  0  0  0  0  0  0  0  0  0
   -0.7166   -7.0531    3.6580 H   0  0  0  0  0  0  0  0  0  0  0  0
   -1.6319   -4.9085    2.7462 H   0  0  0  0  0  0  0  0  0  0  0  0
  1  2  1  6  0  0  0
  1 11  1  0  0  0  0
  1  7  1  0  0  0  0
  3  5  1  0  0  0  0
  3  1  1  0  0  0  0
  4 23  1  0  0  0  0
  4 22  1  0  0  0  0
  4  3  1  0  0  0  0
  5 25  1  0  0  0  0
  5 26  1  0  0  0  0
  6 29  1  0  0  0  0
  6  3  1  0  0  0  0
  7 12  1  0  0  0  0
  7  8  1  0  0  0  0
  8 31  1  0  0  0  0
  9  8  1  0  0  0  0
  9 10  2  0  0  0  0
 11  9  1  0  0  0  0
 12 14  1  0  0  0  0
 13 12  2  0  0  0  0
 14 15  1  0  0  0  0
 15 16  2  0  0  0  0
 15 20  1  0  0  0  0
 16 17  1  0  0  0  0
 17 33  1  0  0  0  0
 17 18  2  0  0  0  0
 18 34  1  0  0  0  0
 19 18  1  0  0  0  0
 19 35  1  0  0  0  0
 20 19  2  0  0  0  0
 21  4  1  0  0  0  0
 24  5  1  0  0  0  0
 27  6  1  0  0  0  0
 28  6  1  0  0  0  0
 30  8  1  0  0  0  0
 32 16  1  0  0  0  0
 36 20  1  0  0  0  0
M  END
$$$$
