rmsd85.gzmat
 OpenBabel08211713403D

 36 37  0  0  1  0  0  0  0  0999 V2000
    0.0000    0.0000    0.0000 C   0  0  2  0  0  0  0  0  0  0  0  0
    1.1183    0.0000    0.0000 H   0  0  0  0  0  0  0  0  0  0  0  0
   -0.5864    0.0000   -1.4398 C   0  0  0  0  0  0  0  0  0  0  0  0
   -0.1882   -1.3127   -2.1212 C   0  0  0  0  0  0  0  0  0  0  0  0
   -2.1083    0.1517   -1.4199 C   0  0  0  0  0  0  0  0  0  0  0  0
    0.0502    1.1877   -2.1737 C   0  0  0  0  0  0  0  0  0  0  0  0
   -0.5594   -1.0861    0.8498 N   0  0  0  0  0  0  0  0  0  0  0  0
   -1.4600   -0.5018    1.8536 C   0  0  0  0  0  0  0  0  0  0  0  0
   -1.2786    0.9950    1.6648 C   0  0  0  0  0  0  0  0  0  0  0  0
   -1.7672    1.9094    2.2546 O   0  0  0  0  0  0  0  0  0  0  0  0
   -0.3811    1.2146    0.6495 O   0  0  0  0  0  0  0  0  0  0  0  0
    0.2620   -2.1606    1.1568 C   0  0  0  0  0  0  0  0  0  0  0  0
    1.2145   -2.5135    0.5086 O   0  0  0  0  0  0  0  0  0  0  0  0
   -0.2329   -2.8093    2.2622 O   0  0  0  0  0  0  0  0  0  0  0  0
    0.3426   -4.0146    2.6194 C   0  0  0  0  0  0  0  0  0  0  0  0
    0.4727   -4.1888    3.9982 C   0  0  0  0  0  0  0  0  0  0  0  0
    0.9399   -5.4169    4.4567 C   0  0  0  0  0  0  0  0  0  0  0  0
    1.2704   -6.4279    3.5528 C   0  0  0  0  0  0  0  0  0  0  0  0
    1.1374   -6.2197    2.1804 C   0  0  0  0  0  0  0  0  0  0  0  0
    0.6666   -5.0015    1.6942 C   0  0  0  0  0  0  0  0  0  0  0  0
   -0.4626   -1.3076   -3.1815 H   0  0  0  0  0  0  0  0  0  0  0  0
   -0.6837   -2.1755   -1.6586 H   0  0  0  0  0  0  0  0  0  0  0  0
    0.8921   -1.4967   -2.0600 H   0  0  0  0  0  0  0  0  0  0  0  0
   -2.5142    0.1826   -2.4376 H   0  0  0  0  0  0  0  0  0  0  0  0
   -2.4146    1.0794   -0.9213 H   0  0  0  0  0  0  0  0  0  0  0  0
   -2.5896   -0.6882   -0.9054 H   0  0  0  0  0  0  0  0  0  0  0  0
   -0.3376    1.2726   -3.1952 H   0  0  0  0  0  0  0  0  0  0  0  0
    1.1389    1.0905   -2.2464 H   0  0  0  0  0  0  0  0  0  0  0  0
   -0.1645    2.1364   -1.6636 H   0  0  0  0  0  0  0  0  0  0  0  0
   -2.5098   -0.8162    1.6443 H   0  0  0  0  0  0  0  0  0  0  0  0
   -1.2302   -0.8118    2.8979 H   0  0  0  0  0  0  0  0  0  0  0  0
    0.2129   -3.3863    4.6832 H   0  0  0  0  0  0  0  0  0  0  0  0
    1.0519   -5.5877    5.5267 H   0  0  0  0  0  0  0  0  0  0  0  0
    1.6353   -7.3838    3.9225 H   0  0  0  0  0  0  0  0  0  0  0  0
    1.4036   -7.0118    1.4811 H   0  0  0  0  0  0  0  0  0  0  0  0
    0.5689   -4.8248    0.6245 H   0  0  0  0  0  0  0  0  0  0  0  0
  1  2  1  6  0  0  0
  1 11  1  0  0  0  0
  1  7  1  0  0  0  0
  3  5  1  0  0  0  0
  3  1  1  0  0  0  0
  4 23  1  0  0  0  0
  4 22  1  0  0  0  0
  4  3  1  0  0  0  0
  5 25  1  0  0  0  0
  5 26  1  0  0  0  0
  6 29  1  0  0  0  0
  6  3  1  0  0  0  0
  7 12  1  0  0  0  0
  7  8  1  0  0  0  0
  8 31  1  0  0  0  0
  9  8  1  0  0  0  0
  9 10  2  0  0  0  0
 11  9  1  0  0  0  0
 12 14  1  0  0  0  0
 13 12  2  0  0  0  0
 14 15  1  0  0  0  0
 15 16  2  0  0  0  0
 16 17  1  0  0  0  0
 16 32  1  0  0  0  0
 17 33  1  0  0  0  0
 18 34  1  0  0  0  0
 18 17  2  0  0  0  0
 19 18  1  0  0  0  0
 20 19  2  0  0  0  0
 20 15  1  0  0  0  0
 21  4  1  0  0  0  0
 24  5  1  0  0  0  0
 27  6  1  0  0  0  0
 28  6  1  0  0  0  0
 30  8  1  0  0  0  0
 35 19  1  0  0  0  0
 36 20  1  0  0  0  0
M  END
$$$$
