66
rmsd1.gzmat
C          0.00000        0.00000        0.00000
H          1.09520        0.00000        0.00000
C         -0.69110        0.00000       -1.33960
C         -0.73080       -1.26090       -0.49960
C         -1.98900       -1.62340        0.18670
C         -2.11420       -2.78010        0.85810
C         -1.01480       -3.73430        0.83490
C          0.09760       -3.55000        0.10160
C          0.13120       -2.44520       -0.91930
O         -1.21940       -4.83600        1.62560
C         -1.17570       -6.06860        0.90040
C         -2.39370       -6.15940       -0.02940
C         -2.11600       -6.90550       -1.33060
C         -1.03970       -6.28080       -2.16830
O          0.13210       -6.58040       -2.03270
N         -1.30380       -5.48600       -3.30530
C         -2.17920       -4.32310       -3.39550
H         -2.18170       -4.00980       -4.48020
C         -1.64870       -3.09570       -2.57140
O         -2.40350       -2.16980       -2.37580
N         -0.31500       -3.08930       -2.19600
C         -3.62490       -4.53560       -2.94010
C         -4.37020       -5.59070       -3.72390
O         -4.70720       -6.65710       -3.25020
N         -4.72580       -5.28200       -5.02150
C         -0.59190        0.78160        1.15400
H         -1.50800        0.29710        1.56730
O         -0.97940        2.02990        0.60720
C          0.44530        1.01980        2.28400
N         -0.30550        1.34830        3.50740
S          0.52750        2.21230        4.77710
O         -0.44710        2.36180        5.82990
O          1.78640        1.54550        5.01030
C          0.87420        3.75810        4.01860
C          2.15710        3.98270        3.51980
C          2.45330        5.18680        2.88570
C          1.46860        6.16550        2.75710
C          0.19050        5.94500        3.26730
C         -0.10810        4.73850        3.90120
H         -0.10100        0.00890       -2.25360
H         -1.60110        0.58140       -1.48600
H         -2.80310       -0.90060        0.11600
H         -3.00950       -3.04930        1.41190
H          0.94260       -4.22390        0.12780
H          1.18590       -2.10040       -1.10750
H         -1.21560       -6.80800        1.72150
H         -0.21360       -6.18040        0.36950
H         -2.77660       -5.13960       -0.24350
H         -3.22870       -6.66450        0.50170
H         -3.06000       -7.03950       -1.91440
H         -1.80130       -7.95370       -1.10280
H         -0.49520       -5.41470       -3.93640
H          0.21170       -3.94910       -2.36690
H         -3.65840       -4.79570       -1.85870
H         -4.17330       -3.56170       -2.99830
H         -4.50740       -4.41670       -5.45700
H         -5.25360       -5.93970       -5.56040
H         -1.29660        2.61240        1.32850
H          1.10630        1.86630        1.98780
H          1.10290        0.13150        2.40850
H         -0.86900        0.56070        3.83200
H          2.94410        3.22500        3.62560
H          3.45190        5.36260        2.49220
H          1.69980        7.10430        2.25580
H         -0.57300        6.71470        3.17080
H         -1.11480        4.58020        4.30250
