34

C         -0.19910       -0.17470       -0.01600
C          1.21240       -0.12300       -0.07380
C          1.96850       -0.02240        1.08550
C          1.32310        0.02320        2.32520
C         -0.07160       -0.03690        2.41130
C         -0.82650       -0.13260        1.24990
S          2.27340        0.13850        3.81070
O          1.49360       -0.40620        4.92510
O          3.63630       -0.30250        3.54250
N          2.27720        1.80840        4.19710
C          2.93630        2.80450        3.50860
C          3.08540        4.08310        4.05980
C          3.74160        5.01440        3.24810
N          4.20020        4.71630        2.03230
C          4.00770        3.46360        1.60270
N          3.39520        2.49910        2.28740
C          4.52220        3.10280        0.23760
O          3.91050        6.25230        3.72630
C          4.58770        7.19750        2.90490
N         -0.94640       -0.23310       -1.16720
H          1.71100       -0.16130       -1.04580
H          3.05570        0.02740        1.05020
H         -0.55280       -0.02370        3.39050
H         -1.91650       -0.18280        1.31170
H          1.92260        1.98080        5.13240
H          2.72440        4.35440        5.05130
H          3.71450        2.65610       -0.36250
H          5.31570        2.34340        0.32720
H          4.92200        3.98890       -0.27020
H          4.61830        8.12860        3.48500
H          4.05230        7.35570        1.95660
H          5.60850        6.86020        2.66980
H         -0.48510       -0.49930       -2.02730
H         -1.91840       -0.50440       -1.09730
