34
rmsd91.gzmat
C          0.00000        0.00000        0.00000
C          1.41210        0.00000        0.00000
C          2.09300        0.00000        1.20700
C          1.39580        0.00100        2.42040
C         -0.00360       -0.00470        2.41650
C         -0.70750       -0.00660        1.22480
S          2.25350        0.00490        3.91930
O          1.37800       -0.44310        4.98260
O          3.57220       -0.54430        3.77630
N          2.40610        1.71500        4.38830
C          3.04100        2.68540        3.65610
C          3.20110        4.00280        4.13830
C          3.84390        4.89160        3.26800
N          4.30500        4.54240        2.04040
C          4.10960        3.25370        1.65890
N          3.48730        2.32050        2.41100
C          4.62410        2.83820        0.32080
O          3.99580        6.15130        3.70170
C          4.65980        7.06400        2.82060
N         -0.69050       -0.00500       -1.19070
H          1.95660        0.00030       -0.93630
H          3.19390        0.00790        1.20120
H         -0.56230       -0.01290        3.36240
H         -1.79110       -0.01280        1.22670
H          2.09300        1.96680        5.32680
H          2.85770        4.31710        5.11130
H          3.91750        2.16790       -0.19200
H          5.57580        2.29000        0.43060
H          4.81410        3.70730       -0.32870
H          4.63870        7.99240        3.40330
H          4.10710        7.16160        1.88040
H          5.68420        6.72940        2.62450
H         -0.21650        0.03050       -2.06430
H         -1.68510        0.01060       -1.21230
