rmsd228.gzmat
 OpenBabel08211713383D

 34 35  0  0  0  0  0  0  0  0999 V2000
    0.0000    0.0000    0.0000 C   0  0  0  0  0  0  0  0  0  0  0  0
    1.4122    0.0000    0.0000 C   0  0  0  0  0  0  0  0  0  0  0  0
    2.0926    0.0000    1.2075 C   0  0  0  0  0  0  0  0  0  0  0  0
    1.3948   -0.0061    2.4210 C   0  0  0  0  0  0  0  0  0  0  0  0
   -0.0044   -0.0180    2.4166 C   0  0  0  0  0  0  0  0  0  0  0  0
   -0.7078   -0.0124    1.2245 C   0  0  0  0  0  0  0  0  0  0  0  0
    2.2549    0.0060    3.9181 S   0  0  0  0  0  0  0  0  0  0  0  0
    1.3979   -0.4796    4.9795 O   0  0  0  0  0  0  0  0  0  0  0  0
    3.5892   -0.5020    3.7632 O   0  0  0  0  0  0  0  0  0  0  0  0
    2.3658    1.7146    4.4070 N   0  0  0  0  0  0  0  0  0  0  0  0
    2.9413    2.7104    3.6604 C   0  0  0  0  0  0  0  0  0  0  0  0
    3.0847    4.0293    4.1438 C   0  0  0  0  0  0  0  0  0  0  0  0
    3.6561    4.9420    3.2485 C   0  0  0  0  0  0  0  0  0  0  0  0
    4.0650    4.6146    1.9963 N   0  0  0  0  0  0  0  0  0  0  0  0
    3.8931    3.3223    1.6164 C   0  0  0  0  0  0  0  0  0  0  0  0
    3.3424    2.3659    2.3943 N   0  0  0  0  0  0  0  0  0  0  0  0
    4.3439    2.9270    0.2496 C   0  0  0  0  0  0  0  0  0  0  0  0
    3.7920    6.2039    3.6818 O   0  0  0  0  0  0  0  0  0  0  0  0
    4.3712    7.1417    2.7677 C   0  0  0  0  0  0  0  0  0  0  0  0
   -0.6909   -0.0008   -1.1909 N   0  0  0  0  0  0  0  0  0  0  0  0
    1.9577    0.0021   -0.9357 H   0  0  0  0  0  0  0  0  0  0  0  0
    3.1935    0.0146    1.2018 H   0  0  0  0  0  0  0  0  0  0  0  0
   -0.5635   -0.0362    3.3620 H   0  0  0  0  0  0  0  0  0  0  0  0
   -1.7913   -0.0175    1.2253 H   0  0  0  0  0  0  0  0  0  0  0  0
    2.0777    1.9471    5.3577 H   0  0  0  0  0  0  0  0  0  0  0  0
    2.7791    4.3282    5.1342 H   0  0  0  0  0  0  0  0  0  0  0  0
    3.5514    2.3841   -0.2888 H   0  0  0  0  0  0  0  0  0  0  0  0
    5.2160    2.2540    0.3102 H   0  0  0  0  0  0  0  0  0  0  0  0
    4.6355    3.8024   -0.3520 H   0  0  0  0  0  0  0  0  0  0  0  0
    4.3546    8.0671    3.3554 H   0  0  0  0  0  0  0  0  0  0  0  0
    3.7597    7.2225    1.8628 H   0  0  0  0  0  0  0  0  0  0  0  0
    5.3926    6.8422    2.5085 H   0  0  0  0  0  0  0  0  0  0  0  0
   -0.2165    0.0438   -2.0637 H   0  0  0  0  0  0  0  0  0  0  0  0
   -1.6851    0.0352   -1.2116 H   0  0  0  0  0  0  0  0  0  0  0  0
  1  2  2  0  0  0  0
  1  6  1  0  0  0  0
  2  3  1  0  0  0  0
  3  4  2  0  0  0  0
  4  7  1  0  0  0  0
  5  4  1  0  0  0  0
  5 23  1  0  0  0  0
  6 24  1  0  0  0  0
  6  5  2  0  0  0  0
  7 10  1  0  0  0  0
  7  8  2  0  0  0  0
  9  7  2  0  0  0  0
 10 25  1  0  0  0  0
 11 12  1  0  0  0  0
 11 10  1  0  0  0  0
 12 26  1  0  0  0  0
 13 18  1  0  0  0  0
 13 12  1  0  0  0  0
 14 13  2  0  0  0  0
 15 14  2  0  0  0  0
 15 16  2  0  0  0  0
 16 11  2  0  0  0  0
 17 28  1  0  0  0  0
 17 15  1  0  0  0  0
 19 30  1  0  0  0  0
 19 18  1  0  0  0  0
 20  1  1  0  0  0  0
 21  2  1  0  0  0  0
 22  3  1  0  0  0  0
 27 17  1  0  0  0  0
 29 17  1  0  0  0  0
 31 19  1  0  0  0  0
 32 19  1  0  0  0  0
 33 20  1  0  0  0  0
 34 20  1  0  0  0  0
M  RAD  1  12   2
M  END
$$$$
