34
rmsd61.gzmat
C          0.00000        0.00000        0.00000
C          1.41420        0.00000        0.00000
C          2.09420        0.00000        1.20540
C          1.39750       -0.00020        2.41900
C         -0.00230       -0.00910        2.41590
C         -0.70670       -0.01050        1.22240
S          2.26440        0.00840        3.91160
O          1.47720       -0.53420        4.98260
O          3.62300       -0.44280        3.69090
N          2.59610        1.71860        4.27610
C          1.64480        2.69190        4.44290
C          1.97860        4.00570        4.83830
C          0.90380        4.89680        4.94370
N         -0.38470        4.55650        4.68820
C         -0.61410        3.27180        4.31140
N          0.34720        2.33350        4.17460
C         -2.02330        2.87510        4.01940
O          1.19740        6.14930        5.32120
C          0.10220        7.06520        5.43210
N         -0.68530        0.00000       -1.19380
H          1.95790        0.00150       -0.93720
H          3.19280       -0.00420        1.19450
H         -0.55810       -0.00590        3.36580
H         -1.78960       -0.01540        1.22640
H          3.56300        1.96670        4.49000
H          2.98950        4.31450        5.05330
H         -2.19840        1.81100        4.24480
H         -2.25640        3.03460        2.95450
H         -2.73890        3.47490        4.60460
H          0.60940        7.98320        5.75090
H         -0.61530        6.71530        6.18220
H         -0.39260        7.18990        4.46300
H         -0.20640        0.03450       -2.06500
H         -1.67940        0.02340       -1.22010
