34
rmsd227.gzmat
C          0.00000        0.00000        0.00000
C          1.41230        0.00000        0.00000
C          2.09260        0.00000        1.20740
C          1.39470       -0.00460        2.42110
C         -0.00480       -0.01570        2.41650
C         -0.70790       -0.01230        1.22440
S          2.25530        0.00010        3.91790
O          1.39150       -0.47170        4.98000
O          3.58190       -0.52800        3.76260
N          2.40000        1.70460        4.41190
C          2.97380        2.69910        3.66220
C          3.15020        4.00970        4.15840
C          3.70910        4.92580        3.25900
N          4.07470        4.60970        1.99030
C          3.87590        3.32470        1.59970
N          3.33710        2.36470        2.38210
C          4.27900        2.94320        0.21400
O          3.87820        6.17950        3.70370
C          4.43000        7.12330        2.77910
N         -0.69070        0.00350       -1.19060
H          1.95720        0.00050       -0.93620
H          3.19340        0.01190        1.20130
H         -0.56480       -0.03360        3.36160
H         -1.79150       -0.02010        1.22590
H          2.13490        1.93320        5.37070
H          2.87820        4.29960        5.16120
H          3.44890        2.45310       -0.31890
H          5.11910        2.22870        0.23770
H          4.59700        3.81930       -0.37330
H          4.45890        8.03780        3.38270
H          3.77610        7.23290        1.90760
H          5.43120        6.81130        2.46320
H         -0.21680        0.01560       -2.06500
H         -1.68550        0.00570       -1.21220
