rmsd230.gzmat
 OpenBabel08211713383D

 34 35  0  0  0  0  0  0  0  0999 V2000
    0.0000    0.0000    0.0000 C   0  0  0  0  0  0  0  0  0  0  0  0
    1.4124    0.0000    0.0000 C   0  0  0  0  0  0  0  0  0  0  0  0
    2.0923    0.0000    1.2076 C   0  0  0  0  0  0  0  0  0  0  0  0
    1.3937   -0.0021    2.4209 C   0  0  0  0  0  0  0  0  0  0  0  0
   -0.0058   -0.0204    2.4161 C   0  0  0  0  0  0  0  0  0  0  0  0
   -0.7084   -0.0191    1.2236 C   0  0  0  0  0  0  0  0  0  0  0  0
    2.2566    0.0204    3.9158 S   0  0  0  0  0  0  0  0  0  0  0  0
    1.3991   -0.4451    4.9859 O   0  0  0  0  0  0  0  0  0  0  0  0
    3.5856   -0.5022    3.7625 O   0  0  0  0  0  0  0  0  0  0  0  0
    2.3917    1.7313    4.3895 N   0  0  0  0  0  0  0  0  0  0  0  0
    2.9534    2.7223    3.6262 C   0  0  0  0  0  0  0  0  0  0  0  0
    3.1227    4.0387    4.1086 C   0  0  0  0  0  0  0  0  0  0  0  0
    3.6839    4.9470    3.2027 C   0  0  0  0  0  0  0  0  0  0  0  0
    4.0507    4.6206    1.9371 N   0  0  0  0  0  0  0  0  0  0  0  0
    3.8503    3.3327    1.5568 C   0  0  0  0  0  0  0  0  0  0  0  0
    3.3158    2.3777    2.3484 N   0  0  0  0  0  0  0  0  0  0  0  0
    4.2453    2.9426    0.1713 C   0  0  0  0  0  0  0  0  0  0  0  0
    3.8552    6.2031    3.6394 O   0  0  0  0  0  0  0  0  0  0  0  0
    4.4425    7.1321    2.7214 C   0  0  0  0  0  0  0  0  0  0  0  0
   -0.6892    0.0148   -1.1913 N   0  0  0  0  0  0  0  0  0  0  0  0
    1.9580    0.0015   -0.9356 H   0  0  0  0  0  0  0  0  0  0  0  0
    3.1930    0.0121    1.2007 H   0  0  0  0  0  0  0  0  0  0  0  0
   -0.5659   -0.0399    3.3609 H   0  0  0  0  0  0  0  0  0  0  0  0
   -1.7920   -0.0321    1.2246 H   0  0  0  0  0  0  0  0  0  0  0  0
    2.1264    1.9697    5.3459 H   0  0  0  0  0  0  0  0  0  0  0  0
    2.8456    4.3376    5.1074 H   0  0  0  0  0  0  0  0  0  0  0  0
    3.4001    2.4838   -0.3658 H   0  0  0  0  0  0  0  0  0  0  0  0
    5.0602    2.1998    0.1938 H   0  0  0  0  0  0  0  0  0  0  0  0
    4.5940    3.8101   -0.4114 H   0  0  0  0  0  0  0  0  0  0  0  0
    4.4786    8.0483    3.3226 H   0  0  0  0  0  0  0  0  0  0  0  0
    3.8074    7.2492    1.8366 H   0  0  0  0  0  0  0  0  0  0  0  0
    5.4440    6.8000    2.4262 H   0  0  0  0  0  0  0  0  0  0  0  0
   -0.2133    0.0444   -2.0641 H   0  0  0  0  0  0  0  0  0  0  0  0
   -1.6842    0.0176   -1.2146 H   0  0  0  0  0  0  0  0  0  0  0  0
  1  2  2  0  0  0  0
  1  6  1  0  0  0  0
  2  3  1  0  0  0  0
  3  4  2  0  0  0  0
  4  7  1  0  0  0  0
  5  4  1  0  0  0  0
  5 23  1  0  0  0  0
  6 24  1  0  0  0  0
  6  5  2  0  0  0  0
  7 10  1  0  0  0  0
  7  8  2  0  0  0  0
  9  7  2  0  0  0  0
 10 25  1  0  0  0  0
 11 12  1  0  0  0  0
 11 10  1  0  0  0  0
 12 26  1  0  0  0  0
 13 18  1  0  0  0  0
 13 12  1  0  0  0  0
 14 13  2  0  0  0  0
 15 14  2  0  0  0  0
 15 16  2  0  0  0  0
 16 11  2  0  0  0  0
 17 28  1  0  0  0  0
 17 15  1  0  0  0  0
 19 30  1  0  0  0  0
 19 18  1  0  0  0  0
 20  1  1  0  0  0  0
 21  2  1  0  0  0  0
 22  3  1  0  0  0  0
 27 17  1  0  0  0  0
 29 17  1  0  0  0  0
 31 19  1  0  0  0  0
 32 19  1  0  0  0  0
 33 20  1  0  0  0  0
 34 20  1  0  0  0  0
M  RAD  1  12   2
M  END
$$$$
