
     RDKit          3D

 34 35  0  0  0  0  0  0  0  0999 V2000
   -0.1991   -0.1747   -0.0160 C   0  0  0  0  0  0  0  0  0  0  0  0
    1.2124   -0.1230   -0.0738 C   0  0  0  0  0  0  0  0  0  0  0  0
    1.9685   -0.0224    1.0855 C   0  0  0  0  0  0  0  0  0  0  0  0
    1.3231    0.0232    2.3252 C   0  0  0  0  0  0  0  0  0  0  0  0
   -0.0716   -0.0369    2.4113 C   0  0  0  0  0  0  0  0  0  0  0  0
   -0.8265   -0.1326    1.2499 C   0  0  0  0  0  0  0  0  0  0  0  0
    2.2734    0.1385    3.8107 S   0  0  0  0  0  0  0  0  0  0  0  0
    1.4936   -0.4062    4.9251 O   0  0  0  0  0  0  0  0  0  0  0  0
    3.6363   -0.3025    3.5425 O   0  0  0  0  0  0  0  0  0  0  0  0
    2.2772    1.8084    4.1971 N   0  0  0  0  0  0  0  0  0  0  0  0
    2.9363    2.8045    3.5086 C   0  0  0  0  0  0  0  0  0  0  0  0
    3.0854    4.0831    4.0598 C   0  0  0  0  0  0  0  0  0  0  0  0
    3.7416    5.0144    3.2481 C   0  0  0  0  0  0  0  0  0  0  0  0
    4.2002    4.7163    2.0323 N   0  0  0  0  0  0  0  0  0  0  0  0
    4.0077    3.4636    1.6027 C   0  0  0  0  0  0  0  0  0  0  0  0
    3.3952    2.4991    2.2874 N   0  0  0  0  0  0  0  0  0  0  0  0
    4.5222    3.1028    0.2376 C   0  0  0  0  0  0  0  0  0  0  0  0
    3.9105    6.2523    3.7263 O   0  0  0  0  0  0  0  0  0  0  0  0
    4.5877    7.1975    2.9049 C   0  0  0  0  0  0  0  0  0  0  0  0
   -0.9464   -0.2331   -1.1672 N   0  0  0  0  0  0  0  0  0  0  0  0
    1.7110   -0.1613   -1.0458 H   0  0  0  0  0  0  0  0  0  0  0  0
    3.0557    0.0274    1.0502 H   0  0  0  0  0  0  0  0  0  0  0  0
   -0.5528   -0.0237    3.3905 H   0  0  0  0  0  0  0  0  0  0  0  0
   -1.9165   -0.1828    1.3117 H   0  0  0  0  0  0  0  0  0  0  0  0
    1.9226    1.9808    5.1324 H   0  0  0  0  0  0  0  0  0  0  0  0
    2.7244    4.3544    5.0513 H   0  0  0  0  0  0  0  0  0  0  0  0
    3.7145    2.6561   -0.3625 H   0  0  0  0  0  0  0  0  0  0  0  0
    5.3157    2.3434    0.3272 H   0  0  0  0  0  0  0  0  0  0  0  0
    4.9220    3.9889   -0.2702 H   0  0  0  0  0  0  0  0  0  0  0  0
    4.6183    8.1286    3.4850 H   0  0  0  0  0  0  0  0  0  0  0  0
    4.0523    7.3557    1.9566 H   0  0  0  0  0  0  0  0  0  0  0  0
    5.6085    6.8602    2.6698 H   0  0  0  0  0  0  0  0  0  0  0  0
   -0.4851   -0.4993   -2.0273 H   0  0  0  0  0  0  0  0  0  0  0  0
   -1.9184   -0.5044   -1.0973 H   0  0  0  0  0  0  0  0  0  0  0  0
  1  2  2  0
  1  6  1  0
  1 20  1  0
  2  3  1  0
  2 21  1  0
  3  4  2  0
  3 22  1  0
  4  5  1  0
  4  7  1  0
  5  6  2  0
  5 23  1  0
  6 24  1  0
  7  8  2  0
  7  9  2  0
  7 10  1  0
 10 11  1  0
 10 25  1  0
 11 12  2  0
 11 16  1  0
 12 13  1  0
 12 26  1  0
 13 14  2  0
 13 18  1  0
 14 15  1  0
 15 16  2  0
 15 17  1  0
 17 27  1  0
 17 28  1  0
 17 29  1  0
 18 19  1  0
 19 30  1  0
 19 31  1  0
 19 32  1  0
 20 33  1  0
 20 34  1  0
M  END

