34
rmsd104.gzmat
C          0.00000        0.00000        0.00000
C          1.41420        0.00000        0.00000
C          2.09390        0.00000        1.20580
C          1.39770        0.00500        2.41960
C         -0.00250       -0.00010        2.41620
C         -0.70670       -0.00590        1.22270
S          2.25740        0.02140        3.91650
O          1.45450       -0.49910        4.98770
O          3.61150       -0.44980        3.71370
N          2.60670        1.73030        4.27320
C          1.66930        2.72500        4.38650
C          2.01160        4.03670        4.78230
C          0.95200        4.95080        4.82670
N         -0.32990        4.63430        4.51230
C         -0.56730        3.35100        4.13750
N          0.37900        2.39040        4.06210
C         -1.96560        2.97890        3.77090
O          1.25280        6.20160        5.20440
C          0.16890        7.13500        5.27070
N         -0.68770        0.00500       -1.19250
H          1.95790        0.00210       -0.93750
H          3.19210       -0.00960        1.19490
H         -0.55950        0.00830        3.36550
H         -1.79000       -0.01090        1.22520
H          3.56840        1.96310        4.52330
H          3.01760        4.32760        5.04080
H         -2.25970        2.02330        4.23380
H         -2.05880        2.85860        2.67960
H         -2.68680        3.75030        4.08540
H          0.68480        8.05720        5.56250
H         -0.55880        6.81970        6.02590
H         -0.31750        7.23280        4.29430
H         -0.21140        0.00440       -2.06570
H         -1.68190       -0.00900       -1.21590
