34

C         -0.16380       -0.26310       -0.01440
C          1.24610       -0.16810       -0.05590
C          1.98470       -0.03750        1.11180
C          1.32330       -0.00330        2.34330
C         -0.07000       -0.10470        2.41320
C         -0.80760       -0.23030        1.24370
S          2.25100        0.15730        3.83850
O          1.47760       -0.40450        4.94880
O          3.63180       -0.23700        3.59030
N          2.19110        1.83030        4.21030
C          2.82840        2.84190        3.52410
C          2.93390        4.12710        4.07010
C          3.57110        5.07350        3.26070
N          4.05180        4.78310        2.05150
C          3.90120        3.52300        1.62670
N          3.30930        2.54440        2.30930
C          4.44490        3.17020        0.27080
O          3.69770        6.31830        3.73400
C          4.35720        7.27870        2.91590
N         -0.88960       -0.42450       -1.16850
H          1.75770       -0.20130       -1.02130
H          3.07000        0.04850        1.08880
H         -0.56350       -0.09620        3.38630
H         -1.89600       -0.31660        1.29310
H          1.82590        1.99620        5.14270
H          2.55440        4.39250        5.05630
H          3.66830        2.67000       -0.32780
H          5.27860        2.45740        0.37830
H          4.80120        4.06870       -0.24750
H          4.35430        8.21290        3.49170
H          3.82860        7.41720        1.96070
H          5.38980        6.96980        2.69430
H         -0.44260       -0.22950       -2.05440
H         -1.88860       -0.27030       -1.14010
