rmsd236.gzmat
 OpenBabel08211713393D

 36 37  0  0  0  0  0  0  0  0999 V2000
    0.0000    0.0000    0.0000 O   0  0  0  0  0  0  0  0  0  0  0  0
    1.3450    0.0000    0.0000 C   0  0  0  0  0  0  0  0  0  0  0  0
    1.8731    0.0000    1.2465 N   0  0  0  0  0  0  0  0  0  0  0  0
    3.2518    0.0525    1.2905 C   0  0  0  0  0  0  0  0  0  0  0  0
    4.0503    0.0441    0.1731 N   0  0  0  0  0  0  0  0  0  0  0  0
    3.4096    0.0157   -1.0370 C   0  0  0  0  0  0  0  0  0  0  0  0
    2.0377    0.0253   -1.1678 N   0  0  0  0  0  0  0  0  0  0  0  0
    4.1665   -0.1419   -2.1752 N   0  0  0  0  0  0  0  0  0  0  0  0
    3.5393    0.1578   -3.4691 C   0  0  0  0  0  0  0  0  0  0  0  0
    5.6033    0.1507   -2.0968 C   0  0  0  0  0  0  0  0  0  0  0  0
    3.8482    0.2203    2.5135 N   0  0  0  0  0  0  0  0  0  0  0  0
    5.2924   -0.0169    2.6230 C   0  0  0  0  0  0  0  0  0  0  0  0
    3.0659   -0.0634    3.7231 C   0  0  0  0  0  0  0  0  0  0  0  0
   -0.6474   -0.1712   -1.2747 C   0  0  0  0  0  0  0  0  0  0  0  0
   -0.6435   -1.5922   -1.6544 C   0  0  0  0  0  0  0  0  0  0  0  0
   -1.8285   -2.2627   -1.3728 O   0  0  0  0  0  0  0  0  0  0  0  0
   -1.6323   -3.5696   -1.7585 C   0  0  0  0  0  0  0  0  0  0  0  0
   -0.3719   -3.7420   -2.2653 C   0  0  0  0  0  0  0  0  0  0  0  0
    0.2697   -2.4535   -2.2016 C   0  0  0  0  0  0  0  0  0  0  0  0
    2.5260   -0.2925   -3.5135 H   0  0  0  0  0  0  0  0  0  0  0  0
    4.1409   -0.2867   -4.2787 H   0  0  0  0  0  0  0  0  0  0  0  0
    3.4332    1.2408   -3.6461 H   0  0  0  0  0  0  0  0  0  0  0  0
    6.0312   -0.2928   -1.1741 H   0  0  0  0  0  0  0  0  0  0  0  0
    5.8136    1.2330   -2.0755 H   0  0  0  0  0  0  0  0  0  0  0  0
    6.1170   -0.3065   -2.9585 H   0  0  0  0  0  0  0  0  0  0  0  0
    5.8237    0.5078    1.8024 H   0  0  0  0  0  0  0  0  0  0  0  0
    5.5480   -1.0882    2.5546 H   0  0  0  0  0  0  0  0  0  0  0  0
    5.6623    0.3866    3.5797 H   0  0  0  0  0  0  0  0  0  0  0  0
    2.0201    0.2925    3.5985 H   0  0  0  0  0  0  0  0  0  0  0  0
    3.5046    0.4782    4.5768 H   0  0  0  0  0  0  0  0  0  0  0  0
    3.0244   -1.1414    3.9505 H   0  0  0  0  0  0  0  0  0  0  0  0
   -0.1794    0.4760   -2.0465 H   0  0  0  0  0  0  0  0  0  0  0  0
   -1.6632    0.2120   -1.0294 H   0  0  0  0  0  0  0  0  0  0  0  0
   -2.4805   -4.1911   -1.5951 H   0  0  0  0  0  0  0  0  0  0  0  0
    0.0794   -4.6367   -2.6369 H   0  0  0  0  0  0  0  0  0  0  0  0
    1.2725   -2.2355   -2.5128 H   0  0  0  0  0  0  0  0  0  0  0  0
  2  1  1  0  0  0  0
  2  3  2  0  0  0  0
  3  4  2  0  0  0  0
  4 11  1  0  0  0  0
  5  4  2  0  0  0  0
  6  5  2  0  0  0  0
  7  6  2  0  0  0  0
  7  2  2  0  0  0  0
  8 10  1  0  0  0  0
  8  6  1  0  0  0  0
  9  8  1  0  0  0  0
 10 24  1  0  0  0  0
 10 23  1  0  0  0  0
 11 12  1  0  0  0  0
 11 13  1  0  0  0  0
 12 28  1  0  0  0  0
 13 31  1  0  0  0  0
 13 30  1  0  0  0  0
 14 33  1  0  0  0  0
 14  1  1  0  0  0  0
 15 16  1  0  0  0  0
 15 14  1  0  0  0  0
 17 34  1  0  0  0  0
 17 16  1  0  0  0  0
 18 19  1  0  0  0  0
 18 17  2  0  0  0  0
 19 15  2  0  0  0  0
 20  9  1  0  0  0  0
 21  9  1  0  0  0  0
 22  9  1  0  0  0  0
 25 10  1  0  0  0  0
 26 12  1  0  0  0  0
 27 12  1  0  0  0  0
 29 13  1  0  0  0  0
 32 14  1  0  0  0  0
 35 18  1  0  0  0  0
 36 19  1  0  0  0  0
M  END
$$$$
