36
rmsd160.gzmat
O          0.00000        0.00000        0.00000
C          1.34490        0.00000        0.00000
N          2.03860        0.00000        1.16740
C          3.41030       -0.02260        1.03500
N          4.04820       -0.09630       -0.17490
C          3.25000       -0.06280       -1.29220
N          1.87060       -0.04290       -1.24690
N          3.85420        0.04000       -2.51780
C          5.29140       -0.24000       -2.61130
C          3.06900       -0.25380       -3.72220
N          4.17440        0.12820        2.16860
C          5.60200       -0.20580        2.08780
C          3.54470       -0.12960        3.46990
C         -0.64920        0.13300        1.27780
C         -0.67870        1.54470        1.68870
O         -1.88520        2.18780        1.43630
C         -1.72660        3.48590        1.86580
C         -0.46940        3.67910        2.37170
C          0.21130        2.41490        2.25810
H          5.83520        0.33180       -1.83190
H          5.66940        0.08030       -3.59500
H          5.52230       -1.30770       -2.46130
H          2.02540        0.11070       -3.60220
H          3.02340       -1.33370       -3.93730
H          3.50980        0.27530       -4.58310
H          6.04130        0.23350        1.16840
H          5.78040       -1.29330        2.05620
H          6.12990        0.22670        2.95310
H          2.54380        0.34770        3.50920
H          4.16040        0.31520        4.26820
H          3.41140       -1.20540        3.66880
H         -0.16700       -0.51780        2.03790
H         -1.65690       -0.26820        1.02620
H         -2.59420        4.08570        1.72810
H         -0.04440        4.57220        2.77490
H          1.22220        2.21800        2.55590
