36
rmsd108.gzmat
O          0.00000        0.00000        0.00000
C          1.34520        0.00000        0.00000
N          2.03680        0.00000        1.16860
C          3.40840        0.03390        1.03910
N          4.04790        0.12320       -0.16870
C          3.25350        0.07500       -1.28800
N          1.87410        0.04130       -1.24590
N          3.86140       -0.03330       -2.51210
C          3.05520        0.18720       -3.71920
C          5.27860        0.33030       -2.62680
N          4.17070       -0.12300        2.17320
C          3.53010        0.10890        3.47450
C          5.59360        0.23200        2.10270
C         -0.64750       -0.15160        1.27730
C         -0.67110       -1.57040        1.66440
O         -1.88920       -2.20410        1.44620
C         -1.71750       -3.51320        1.83730
C         -0.44110       -3.72130        2.28640
C          0.23860       -2.45600        2.17630
H          2.05920       -0.29420       -3.60600
H          3.55770       -0.27600       -4.58380
H          2.88630        1.25750       -3.92180
H          5.84830       -0.07520       -1.76550
H          5.43050        1.42260       -2.64540
H          5.69720       -0.11190       -3.54620
H          2.55830       -0.42590        3.51590
H          3.33520        1.17700        3.66650
H          4.16990       -0.29380        4.27630
H          6.04100       -0.17680        1.17310
H          6.12670       -0.21500        2.95750
H          5.75690        1.32200        2.09940
H         -1.65690        0.25030        1.03580
H         -0.16510        0.48840        2.04650
H         -2.59190       -4.10760        1.71930
H         -0.00100       -4.62470        2.64940
H          1.26220       -2.26970        2.43520
