36

O          0.01940        0.06370       -0.09040
C          1.35750        0.01890       -0.09740
N          2.00600       -0.01240        1.06320
C          3.35160       -0.06620        0.95470
N          4.01150       -0.07890       -0.20960
C          3.24650       -0.04670       -1.31530
N          1.90040        0.00230       -1.30610
N          3.86770       -0.06240       -2.52850
C          3.11720       -0.02400       -3.76700
C          5.30780       -0.11000       -2.65500
N          4.07550       -0.11110        2.11130
C          5.52270       -0.10120        2.10670
C          3.44160       -0.06940        3.41150
C         -0.65640        0.17800        1.17190
C         -0.69850        1.57390        1.68430
O         -1.76650        2.33680        1.30620
C         -1.60220        3.57120        1.83760
C         -0.44150        3.62770        2.55780
C          0.14840        2.32530        2.45570
H          2.04720        0.00870       -3.53900
H          3.33550       -0.91780       -4.37900
H          3.39340        0.86710       -4.35930
H          5.76160       -0.13750       -1.66000
H          5.67990        0.77700       -3.19930
H          5.61840       -1.00680       -3.22130
H          5.88280       -0.15740        1.07520
H          5.91540       -0.96060        2.67830
H          5.91120        0.82220        2.57490
H          2.36360       -0.21910        3.29960
H          3.61890        0.90080        3.91350
H          3.85440       -0.86240        4.05860
H         -0.18000       -0.48160        1.90750
H         -1.67940       -0.16510        0.96920
H         -2.38550        4.29400        1.62510
H         -0.05330        4.49040        3.09480
H          1.08780        1.98120        2.87780
