36
rmsd141.gzmat
O          0.00000        0.00000        0.00000
C          1.34490        0.00000        0.00000
N          1.87220        0.00000        1.24700
C          3.25190        0.02100        1.29160
N          4.04920        0.08590        0.17510
C          3.40980        0.04500       -1.03540
N          2.03790        0.03670       -1.16660
N          4.16720       -0.09030       -2.17490
C          3.54290        0.22640       -3.46590
C          5.60570        0.19060       -2.09270
N          3.85200       -0.11610        2.51590
C          3.03890        0.08930        3.72110
C          5.27450        0.21660        2.64710
C         -0.64900       -0.06660       -1.28310
C         -0.67780       -1.45470       -1.76870
O         -1.90510       -2.08750       -1.60280
C         -1.74740       -3.36670       -2.08680
C         -0.47100       -3.55820       -2.54310
C          0.22370       -2.31270       -2.33870
H          2.51430       -0.18880       -3.50610
H          4.12460       -0.24220       -4.27690
H          3.47500        1.31200       -3.64490
H          6.02940       -0.25910       -1.17090
H          5.82490        1.27050       -2.06770
H          6.11680       -0.26660       -2.95610
H          2.04420       -0.39230        3.59560
H          2.86410        1.15710        3.93250
H          3.53610       -0.38250        4.58360
H          5.83880       -0.15770        1.76830
H          5.68440       -0.27720        3.54400
H          5.44480        1.30400        2.71790
H         -0.16860        0.62580       -2.00650
H         -1.65770        0.31800       -1.00950
H         -2.62980       -3.95680       -2.01500
H         -0.04130       -4.44050       -2.96610
H          1.25140       -2.12020       -2.57900
