rmsd160.gzmat
 OpenBabel08211713393D

 36 37  0  0  0  0  0  0  0  0999 V2000
    0.0000    0.0000    0.0000 O   0  0  0  0  0  0  0  0  0  0  0  0
    1.3449    0.0000    0.0000 C   0  0  0  0  0  0  0  0  0  0  0  0
    2.0386    0.0000    1.1674 N   0  0  0  0  0  0  0  0  0  0  0  0
    3.4103   -0.0226    1.0350 C   0  0  0  0  0  0  0  0  0  0  0  0
    4.0482   -0.0963   -0.1749 N   0  0  0  0  0  0  0  0  0  0  0  0
    3.2500   -0.0628   -1.2922 C   0  0  0  0  0  0  0  0  0  0  0  0
    1.8706   -0.0429   -1.2469 N   0  0  0  0  0  0  0  0  0  0  0  0
    3.8542    0.0400   -2.5178 N   0  0  0  0  0  0  0  0  0  0  0  0
    5.2914   -0.2400   -2.6113 C   0  0  0  0  0  0  0  0  0  0  0  0
    3.0690   -0.2538   -3.7222 C   0  0  0  0  0  0  0  0  0  0  0  0
    4.1744    0.1282    2.1686 N   0  0  0  0  0  0  0  0  0  0  0  0
    5.6020   -0.2058    2.0878 C   0  0  0  0  0  0  0  0  0  0  0  0
    3.5447   -0.1296    3.4699 C   0  0  0  0  0  0  0  0  0  0  0  0
   -0.6492    0.1330    1.2778 C   0  0  0  0  0  0  0  0  0  0  0  0
   -0.6787    1.5447    1.6887 C   0  0  0  0  0  0  0  0  0  0  0  0
   -1.8852    2.1878    1.4363 O   0  0  0  0  0  0  0  0  0  0  0  0
   -1.7266    3.4859    1.8658 C   0  0  0  0  0  0  0  0  0  0  0  0
   -0.4694    3.6791    2.3717 C   0  0  0  0  0  0  0  0  0  0  0  0
    0.2113    2.4149    2.2581 C   0  0  0  0  0  0  0  0  0  0  0  0
    5.8352    0.3318   -1.8319 H   0  0  0  0  0  0  0  0  0  0  0  0
    5.6694    0.0803   -3.5950 H   0  0  0  0  0  0  0  0  0  0  0  0
    5.5223   -1.3077   -2.4613 H   0  0  0  0  0  0  0  0  0  0  0  0
    2.0254    0.1107   -3.6022 H   0  0  0  0  0  0  0  0  0  0  0  0
    3.0234   -1.3337   -3.9373 H   0  0  0  0  0  0  0  0  0  0  0  0
    3.5098    0.2753   -4.5831 H   0  0  0  0  0  0  0  0  0  0  0  0
    6.0413    0.2335    1.1684 H   0  0  0  0  0  0  0  0  0  0  0  0
    5.7804   -1.2933    2.0562 H   0  0  0  0  0  0  0  0  0  0  0  0
    6.1299    0.2267    2.9531 H   0  0  0  0  0  0  0  0  0  0  0  0
    2.5438    0.3477    3.5092 H   0  0  0  0  0  0  0  0  0  0  0  0
    4.1604    0.3152    4.2682 H   0  0  0  0  0  0  0  0  0  0  0  0
    3.4114   -1.2054    3.6688 H   0  0  0  0  0  0  0  0  0  0  0  0
   -0.1670   -0.5178    2.0379 H   0  0  0  0  0  0  0  0  0  0  0  0
   -1.6569   -0.2682    1.0262 H   0  0  0  0  0  0  0  0  0  0  0  0
   -2.5942    4.0857    1.7281 H   0  0  0  0  0  0  0  0  0  0  0  0
   -0.0444    4.5722    2.7749 H   0  0  0  0  0  0  0  0  0  0  0  0
    1.2222    2.2180    2.5559 H   0  0  0  0  0  0  0  0  0  0  0  0
  1  2  1  0  0  0  0
  1 14  1  0  0  0  0
  2  3  2  0  0  0  0
  4  3  2  0  0  0  0
  4 11  1  0  0  0  0
  5  4  2  0  0  0  0
  6  7  2  0  0  0  0
  6  5  2  0  0  0  0
  7  2  2  0  0  0  0
  8  6  1  0  0  0  0
  9  8  1  0  0  0  0
  9 22  1  0  0  0  0
  9 20  1  0  0  0  0
 10 23  1  0  0  0  0
 10  8  1  0  0  0  0
 11 13  1  0  0  0  0
 12 11  1  0  0  0  0
 12 28  1  0  0  0  0
 13 29  1  0  0  0  0
 13 31  1  0  0  0  0
 13 30  1  0  0  0  0
 14 15  1  0  0  0  0
 14 32  1  0  0  0  0
 15 19  2  0  0  0  0
 16 15  1  0  0  0  0
 16 17  1  0  0  0  0
 17 18  2  0  0  0  0
 18 35  1  0  0  0  0
 19 18  1  0  0  0  0
 19 36  1  0  0  0  0
 21  9  1  0  0  0  0
 24 10  1  0  0  0  0
 25 10  1  0  0  0  0
 26 12  1  0  0  0  0
 27 12  1  0  0  0  0
 33 14  1  0  0  0  0
 34 17  1  0  0  0  0
M  END
$$$$
