rmsd167.gzmat
 OpenBabel08211713393D

 36 37  0  0  0  0  0  0  0  0999 V2000
    0.0000    0.0000    0.0000 O   0  0  0  0  0  0  0  0  0  0  0  0
    1.3450    0.0000    0.0000 C   0  0  0  0  0  0  0  0  0  0  0  0
    2.0373    0.0000    1.1679 N   0  0  0  0  0  0  0  0  0  0  0  0
    3.4095    0.0100    1.0380 C   0  0  0  0  0  0  0  0  0  0  0  0
    4.0505   -0.0489   -0.1713 N   0  0  0  0  0  0  0  0  0  0  0  0
    3.2526   -0.0813   -1.2881 C   0  0  0  0  0  0  0  0  0  0  0  0
    1.8740   -0.0237   -1.2461 N   0  0  0  0  0  0  0  0  0  0  0  0
    3.8482   -0.2810   -2.5076 N   0  0  0  0  0  0  0  0  0  0  0  0
    3.0591   -0.0318   -3.7207 C   0  0  0  0  0  0  0  0  0  0  0  0
    5.2891   -0.0304   -2.6313 C   0  0  0  0  0  0  0  0  0  0  0  0
    4.1666    0.2030    2.1694 N   0  0  0  0  0  0  0  0  0  0  0  0
    5.6031   -0.0946    2.1012 C   0  0  0  0  0  0  0  0  0  0  0  0
    3.5469   -0.0389    3.4786 C   0  0  0  0  0  0  0  0  0  0  0  0
   -0.6489    0.1361    1.2778 C   0  0  0  0  0  0  0  0  0  0  0  0
   -0.6850    1.5501    1.6816 C   0  0  0  0  0  0  0  0  0  0  0  0
   -1.9292    2.1524    1.5289 O   0  0  0  0  0  0  0  0  0  0  0  0
   -1.7758    3.4606    1.9301 C   0  0  0  0  0  0  0  0  0  0  0  0
   -0.4852    3.7003    2.3184 C   0  0  0  0  0  0  0  0  0  0  0  0
    0.2231    2.4554    2.1611 C   0  0  0  0  0  0  0  0  0  0  0  0
    2.0241   -0.4165   -3.5906 H   0  0  0  0  0  0  0  0  0  0  0  0
    3.5135   -0.5683   -4.5691 H   0  0  0  0  0  0  0  0  0  0  0  0
    2.9852    1.0423   -3.9592 H   0  0  0  0  0  0  0  0  0  0  0  0
    5.8282   -0.4772   -1.7712 H   0  0  0  0  0  0  0  0  0  0  0  0
    5.5270    1.0466   -2.6529 H   0  0  0  0  0  0  0  0  0  0  0  0
    5.6677   -0.5060   -3.5511 H   0  0  0  0  0  0  0  0  0  0  0  0
    6.0326    0.3161    1.1641 H   0  0  0  0  0  0  0  0  0  0  0  0
    5.8101   -1.1779    2.1167 H   0  0  0  0  0  0  0  0  0  0  0  0
    6.1180    0.3893    2.9476 H   0  0  0  0  0  0  0  0  0  0  0  0
    2.4961    0.3179    3.4830 H   0  0  0  0  0  0  0  0  0  0  0  0
    4.0957    0.5312    4.2471 H   0  0  0  0  0  0  0  0  0  0  0  0
    3.5401   -1.1071    3.7500 H   0  0  0  0  0  0  0  0  0  0  0  0
   -0.1640   -0.5096    2.0407 H   0  0  0  0  0  0  0  0  0  0  0  0
   -1.6555   -0.2705    1.0298 H   0  0  0  0  0  0  0  0  0  0  0  0
   -2.6728    4.0299    1.8666 H   0  0  0  0  0  0  0  0  0  0  0  0
   -0.0542    4.6126    2.6704 H   0  0  0  0  0  0  0  0  0  0  0  0
    1.2621    2.2934    2.3739 H   0  0  0  0  0  0  0  0  0  0  0  0
  1  2  1  0  0  0  0
  1 14  1  0  0  0  0
  2  3  2  0  0  0  0
  4  3  2  0  0  0  0
  4 11  1  0  0  0  0
  5  4  2  0  0  0  0
  6  7  2  0  0  0  0
  6  5  2  0  0  0  0
  7  2  2  0  0  0  0
  8  6  1  0  0  0  0
  9 20  1  0  0  0  0
  9  8  1  0  0  0  0
 10  8  1  0  0  0  0
 10 23  1  0  0  0  0
 11 13  1  0  0  0  0
 12 27  1  0  0  0  0
 12 11  1  0  0  0  0
 12 28  1  0  0  0  0
 13 29  1  0  0  0  0
 13 31  1  0  0  0  0
 13 30  1  0  0  0  0
 14 15  1  0  0  0  0
 14 32  1  0  0  0  0
 15 19  2  0  0  0  0
 16 15  1  0  0  0  0
 16 17  1  0  0  0  0
 17 18  2  0  0  0  0
 18 35  1  0  0  0  0
 19 18  1  0  0  0  0
 19 36  1  0  0  0  0
 21  9  1  0  0  0  0
 22  9  1  0  0  0  0
 24 10  1  0  0  0  0
 25 10  1  0  0  0  0
 26 12  1  0  0  0  0
 33 14  1  0  0  0  0
 34 17  1  0  0  0  0
M  END
$$$$
