36
rmsd120.gzmat
O          0.00000        0.00000        0.00000
C          1.34480        0.00000        0.00000
N          2.03880        0.00000        1.16690
C          3.41050        0.03570        1.03440
N          4.04710        0.12400       -0.17530
C          3.24960        0.08220       -1.29270
N          1.87010        0.04530       -1.24710
N          3.85120       -0.01150       -2.52100
C          3.04250        0.24530       -3.71940
C          5.27290        0.33150       -2.63670
N          4.17310       -0.11580        2.16820
C          3.53790        0.13090        3.46910
C          5.60090        0.21780        2.09810
C         -0.65020       -0.11040        1.27970
C         -0.73490       -1.52360        1.67980
O         -1.97990       -2.10510        1.46610
C         -1.86850       -3.41540        1.87470
C         -0.60360       -3.67510        2.32910
C          0.13270       -2.44310        2.20530
H          2.04580       -0.23730       -3.61890
H          3.54140       -0.19300       -4.59870
H          2.87310        1.32150       -3.88940
H          5.83990       -0.08230       -1.77800
H          5.43970        1.42140       -2.65330
H          5.68320       -0.11630       -3.55730
H          2.54070       -0.35460        3.50280
H          3.39330        1.20460        3.67270
H          4.15530       -0.31210        4.26730
H          6.03770       -0.16940        1.15440
H          6.12950       -0.26680        2.93570
H          5.78260        1.30480        2.12980
H         -1.64140        0.33370        1.03450
H         -0.14060        0.51690        2.04220
H         -2.76870       -3.97190        1.76430
H         -0.20670       -4.59390        2.70350
H          1.16220       -2.29900        2.46810
