
     RDKit          3D

 39 42  0  0  0  0  0  0  0  0999 V2000
   -0.0300   -0.0296   -0.1215 O   0  0  0  0  0  0  0  0  0  0  0  0
    1.3382    0.0039   -0.0542 C   0  0  0  0  0  0  0  0  0  0  0  0
    2.1504    0.0042    1.0647 C   0  0  0  0  0  0  0  0  0  0  0  0
    3.5463    0.0866    0.8596 C   0  0  0  0  0  0  0  0  0  0  0  0
    4.0603    0.1568   -0.4433 C   0  0  0  0  0  0  0  0  0  0  0  0
    3.2221    0.1592   -1.5744 C   0  0  0  0  0  0  0  0  0  0  0  0
    1.8602    0.0801   -1.3472 C   0  0  0  0  0  0  0  0  0  0  0  0
    0.8293    0.0978   -2.2508 O   0  0  0  0  0  0  0  0  0  0  0  0
   -0.3486   -0.1794   -1.5011 C   0  0  0  0  0  0  0  0  0  0  0  0
    4.4912    0.0322    2.0352 C   0  0  0  0  0  0  0  0  0  0  0  0
    5.0246   -1.3899    2.2591 C   0  0  0  0  0  0  0  0  0  0  0  0
    6.0504   -1.4533    3.3055 N   0  0  0  0  0  0  0  0  0  0  0  0
    5.6323   -1.5855    4.6237 C   0  0  0  0  0  0  0  0  0  0  0  0
    4.4564   -1.6891    4.9148 O   0  0  0  0  0  0  0  0  0  0  0  0
    6.7305   -1.5259    5.6826 C   0  0  0  0  0  0  0  0  0  0  0  0
    8.0674   -2.1378    5.2490 C   0  0  0  0  0  0  0  0  0  0  0  0
    8.4020   -1.6519    3.8768 C   0  0  0  0  0  0  0  0  0  0  0  0
    7.4111   -1.3458    3.0028 C   0  0  0  0  0  0  0  0  0  0  0  0
    7.9921   -0.8776    1.7176 C   0  0  0  0  0  0  0  0  0  0  0  0
    7.4066   -0.4769    0.7327 O   0  0  0  0  0  0  0  0  0  0  0  0
    9.5125   -0.9861    1.8585 C   0  0  0  0  0  0  0  0  0  0  0  0
    9.7750   -1.4571    3.2993 C   0  0  0  0  0  0  0  0  0  0  0  0
    1.7261   -0.0516    2.0687 H   0  0  0  0  0  0  0  0  0  0  0  0
    5.1436    0.2042   -0.5759 H   0  0  0  0  0  0  0  0  0  0  0  0
    3.6232    0.2241   -2.5867 H   0  0  0  0  0  0  0  0  0  0  0  0
   -1.1427    0.5319   -1.7789 H   0  0  0  0  0  0  0  0  0  0  0  0
   -0.6783   -1.2204   -1.6957 H   0  0  0  0  0  0  0  0  0  0  0  0
    3.9867    0.3683    2.9538 H   0  0  0  0  0  0  0  0  0  0  0  0
    5.3483    0.6968    1.8535 H   0  0  0  0  0  0  0  0  0  0  0  0
    5.4563   -1.7742    1.3290 H   0  0  0  0  0  0  0  0  0  0  0  0
    4.2042   -2.0493    2.5701 H   0  0  0  0  0  0  0  0  0  0  0  0
    6.3249   -1.9939    6.5887 H   0  0  0  0  0  0  0  0  0  0  0  0
    6.8763   -0.4543    5.9104 H   0  0  0  0  0  0  0  0  0  0  0  0
    7.9973   -3.2432    5.2323 H   0  0  0  0  0  0  0  0  0  0  0  0
    8.8641   -1.8934    5.9694 H   0  0  0  0  0  0  0  0  0  0  0  0
    9.9638   -0.0101    1.6234 H   0  0  0  0  0  0  0  0  0  0  0  0
    9.8833   -1.6937    1.0999 H   0  0  0  0  0  0  0  0  0  0  0  0
   10.3571   -2.3948    3.3428 H   0  0  0  0  0  0  0  0  0  0  0  0
   10.3492   -0.7179    3.8858 H   0  0  0  0  0  0  0  0  0  0  0  0
  1  2  1  0
  1  9  1  0
  2  3  2  0
  2  7  1  0
  3  4  1  0
  3 23  1  0
  4  5  2  0
  4 10  1  0
  5  6  1  0
  5 24  1  0
  6  7  2  0
  6 25  1  0
  7  8  1  0
  8  9  1  0
  9 26  1  0
  9 27  1  0
 10 11  1  0
 10 28  1  0
 10 29  1  0
 11 12  1  0
 11 30  1  0
 11 31  1  0
 12 13  1  0
 12 18  1  0
 13 14  2  0
 13 15  1  0
 15 16  1  0
 15 32  1  0
 15 33  1  0
 16 17  1  0
 16 34  1  0
 16 35  1  0
 17 18  2  0
 17 22  1  0
 18 19  1  0
 19 20  2  0
 19 21  1  0
 21 22  1  0
 21 36  1  0
 21 37  1  0
 22 38  1  0
 22 39  1  0
M  END

