rmsd173.gzmat
 OpenBabel08211713393D

 39 42  0  0  0  0  0  0  0  0999 V2000
    0.0000    0.0000    0.0000 O   0  0  0  0  0  0  0  0  0  0  0  0
    1.3734    0.0000    0.0000 C   0  0  0  0  0  0  0  0  0  0  0  0
    2.2116    0.0000    1.0873 C   0  0  0  0  0  0  0  0  0  0  0  0
    3.5933    0.0044    0.8029 C   0  0  0  0  0  0  0  0  0  0  0  0
    4.0694    0.0019   -0.5065 C   0  0  0  0  0  0  0  0  0  0  0  0
    3.2019   -0.0010   -1.6136 C   0  0  0  0  0  0  0  0  0  0  0  0
    1.8586   -0.0003   -1.3279 C   0  0  0  0  0  0  0  0  0  0  0  0
    0.8083   -0.0000   -2.2148 O   0  0  0  0  0  0  0  0  0  0  0  0
   -0.3802   -0.0020   -1.3941 C   0  0  0  0  0  0  0  0  0  0  0  0
    4.5665   -0.0081    1.9395 C   0  0  0  0  0  0  0  0  0  0  0  0
    5.0345   -1.4601    2.1740 C   0  0  0  0  0  0  0  0  0  0  0  0
    6.0342   -1.5248    3.2480 N   0  0  0  0  0  0  0  0  0  0  0  0
    5.6171   -1.6853    4.5746 C   0  0  0  0  0  0  0  0  0  0  0  0
    4.4425   -1.8622    4.8122 O   0  0  0  0  0  0  0  0  0  0  0  0
    6.6566   -1.5896    5.6741 C   0  0  0  0  0  0  0  0  0  0  0  0
    8.0561   -2.0650    5.2618 C   0  0  0  0  0  0  0  0  0  0  0  0
    8.3600   -1.5904    3.8953 C   0  0  0  0  0  0  0  0  0  0  0  0
    7.3858   -1.3539    2.9795 C   0  0  0  0  0  0  0  0  0  0  0  0
    7.9920   -0.9038    1.6914 C   0  0  0  0  0  0  0  0  0  0  0  0
    7.4238   -0.6067    0.6786 O   0  0  0  0  0  0  0  0  0  0  0  0
    9.4978   -0.8826    1.8959 C   0  0  0  0  0  0  0  0  0  0  0  0
    9.7321   -1.3335    3.3570 C   0  0  0  0  0  0  0  0  0  0  0  0
    1.8404   -0.0086    2.1072 H   0  0  0  0  0  0  0  0  0  0  0  0
    5.1476   -0.0020   -0.6838 H   0  0  0  0  0  0  0  0  0  0  0  0
    3.5788   -0.0041   -2.6302 H   0  0  0  0  0  0  0  0  0  0  0  0
   -0.9261    0.9299   -1.5940 H   0  0  0  0  0  0  0  0  0  0  0  0
   -0.9231   -0.9362   -1.5917 H   0  0  0  0  0  0  0  0  0  0  0  0
    4.1167    0.3983    2.8677 H   0  0  0  0  0  0  0  0  0  0  0  0
    5.4393    0.6415    1.7197 H   0  0  0  0  0  0  0  0  0  0  0  0
    5.4645   -1.8839    1.2374 H   0  0  0  0  0  0  0  0  0  0  0  0
    4.1620   -2.0999    2.4569 H   0  0  0  0  0  0  0  0  0  0  0  0
    6.2953   -2.1649    6.5533 H   0  0  0  0  0  0  0  0  0  0  0  0
    6.6936   -0.5301    6.0110 H   0  0  0  0  0  0  0  0  0  0  0  0
    8.1079   -3.1782    5.2906 H   0  0  0  0  0  0  0  0  0  0  0  0
    8.8087   -1.7185    5.9985 H   0  0  0  0  0  0  0  0  0  0  0  0
    9.9010    0.1270    1.7018 H   0  0  0  0  0  0  0  0  0  0  0  0
    9.9967   -1.5478    1.1694 H   0  0  0  0  0  0  0  0  0  0  0  0
   10.3656   -2.2383    3.4085 H   0  0  0  0  0  0  0  0  0  0  0  0
   10.2596   -0.5578    3.9423 H   0  0  0  0  0  0  0  0  0  0  0  0
  2  1  1  0  0  0  0
  2  3  2  0  0  0  0
  3 23  1  0  0  0  0
  4  3  1  0  0  0  0
  4 10  1  0  0  0  0
  5  4  2  0  0  0  0
  6  7  2  0  0  0  0
  6  5  1  0  0  0  0
  7  2  1  0  0  0  0
  8  9  1  0  0  0  0
  8  7  1  0  0  0  0
  9  1  1  0  0  0  0
 10 11  1  0  0  0  0
 10 28  1  0  0  0  0
 11 31  1  0  0  0  0
 11 12  1  0  0  0  0
 12 13  1  0  0  0  0
 13 14  2  0  0  0  0
 13 15  1  0  0  0  0
 15 33  1  0  0  0  0
 15 32  1  0  0  0  0
 16 34  1  0  0  0  0
 16 15  1  0  0  0  0
 16 35  1  0  0  0  0
 17 16  1  0  0  0  0
 18 12  1  0  0  0  0
 18 17  2  0  0  0  0
 19 21  1  0  0  0  0
 19 18  1  0  0  0  0
 20 19  2  0  0  0  0
 21 22  1  0  0  0  0
 22 38  1  0  0  0  0
 22 17  1  0  0  0  0
 22 39  1  0  0  0  0
 24  5  1  0  0  0  0
 25  6  1  0  0  0  0
 26  9  1  0  0  0  0
 27  9  1  0  0  0  0
 29 10  1  0  0  0  0
 30 11  1  0  0  0  0
 36 21  1  0  0  0  0
 37 21  1  0  0  0  0
M  END
$$$$
