39
rmsd173.gzmat
O          0.00000        0.00000        0.00000
C          1.37340        0.00000        0.00000
C          2.21160        0.00000        1.08730
C          3.59330        0.00440        0.80290
C          4.06940        0.00190       -0.50650
C          3.20190       -0.00100       -1.61360
C          1.85860       -0.00030       -1.32790
O          0.80830       -0.00000       -2.21480
C         -0.38020       -0.00200       -1.39410
C          4.56650       -0.00810        1.93950
C          5.03450       -1.46010        2.17400
N          6.03420       -1.52480        3.24800
C          5.61710       -1.68530        4.57460
O          4.44250       -1.86220        4.81220
C          6.65660       -1.58960        5.67410
C          8.05610       -2.06500        5.26180
C          8.36000       -1.59040        3.89530
C          7.38580       -1.35390        2.97950
C          7.99200       -0.90380        1.69140
O          7.42380       -0.60670        0.67860
C          9.49780       -0.88260        1.89590
C          9.73210       -1.33350        3.35700
H          1.84040       -0.00860        2.10720
H          5.14760       -0.00200       -0.68380
H          3.57880       -0.00410       -2.63020
H         -0.92610        0.92990       -1.59400
H         -0.92310       -0.93620       -1.59170
H          4.11670        0.39830        2.86770
H          5.43930        0.64150        1.71970
H          5.46450       -1.88390        1.23740
H          4.16200       -2.09990        2.45690
H          6.29530       -2.16490        6.55330
H          6.69360       -0.53010        6.01100
H          8.10790       -3.17820        5.29060
H          8.80870       -1.71850        5.99850
H          9.90100        0.12700        1.70180
H          9.99670       -1.54780        1.16940
H         10.36560       -2.23830        3.40850
H         10.25960       -0.55780        3.94230
