
     RDKit          3D

 39 42  0  0  0  0  0  0  0  0999 V2000
   -0.0192   -0.2331   -0.0114 O   0  0  0  0  0  0  0  0  0  0  0  0
    1.3458   -0.1187   -0.0274 C   0  0  0  0  0  0  0  0  0  0  0  0
    2.2296   -0.1482    1.0355 C   0  0  0  0  0  0  0  0  0  0  0  0
    3.6084   -0.0490    0.7427 C   0  0  0  0  0  0  0  0  0  0  0  0
    4.0347    0.0819   -0.5869 C   0  0  0  0  0  0  0  0  0  0  0  0
    3.1248    0.1079   -1.6606 C   0  0  0  0  0  0  0  0  0  0  0  0
    1.7814    0.0062   -1.3482 C   0  0  0  0  0  0  0  0  0  0  0  0
    0.6978   -0.0291   -2.1869 O   0  0  0  0  0  0  0  0  0  0  0  0
   -0.4477    0.0304   -1.3438 C   0  0  0  0  0  0  0  0  0  0  0  0
    4.6232   -0.0191    1.8600 C   0  0  0  0  0  0  0  0  0  0  0  0
    5.0859    1.4131    2.1643 C   0  0  0  0  0  0  0  0  0  0  0  0
    6.1766    1.4537    3.1438 N   0  0  0  0  0  0  0  0  0  0  0  0
    5.8696    1.7392    4.4698 C   0  0  0  0  0  0  0  0  0  0  0  0
    4.7285    1.9330    4.8410 O   0  0  0  0  0  0  0  0  0  0  0  0
    7.0629    1.8759    5.4120 C   0  0  0  0  0  0  0  0  0  0  0  0
    8.1975    0.8820    5.1431 C   0  0  0  0  0  0  0  0  0  0  0  0
    8.4667    0.8275    3.6757 C   0  0  0  0  0  0  0  0  0  0  0  0
    7.4801    1.0949    2.7832 C   0  0  0  0  0  0  0  0  0  0  0  0
    7.9919    0.9208    1.3970 C   0  0  0  0  0  0  0  0  0  0  0  0
    7.3915    1.0539    0.3505 O   0  0  0  0  0  0  0  0  0  0  0  0
    9.4610    0.5088    1.5179 C   0  0  0  0  0  0  0  0  0  0  0  0
    9.7663    0.4513    3.0234 C   0  0  0  0  0  0  0  0  0  0  0  0
    1.8719   -0.2492    2.0616 H   0  0  0  0  0  0  0  0  0  0  0  0
    5.1045    0.1756   -0.7885 H   0  0  0  0  0  0  0  0  0  0  0  0
    3.4592    0.2015   -2.6946 H   0  0  0  0  0  0  0  0  0  0  0  0
   -0.8974    1.0428   -1.3964 H   0  0  0  0  0  0  0  0  0  0  0  0
   -1.1799   -0.7309   -1.6563 H   0  0  0  0  0  0  0  0  0  0  0  0
    5.5012   -0.6198    1.5745 H   0  0  0  0  0  0  0  0  0  0  0  0
    4.2044   -0.4624    2.7769 H   0  0  0  0  0  0  0  0  0  0  0  0
    4.2588    1.9926    2.5898 H   0  0  0  0  0  0  0  0  0  0  0  0
    5.4283    1.8923    1.2410 H   0  0  0  0  0  0  0  0  0  0  0  0
    6.6723    1.8040    6.4348 H   0  0  0  0  0  0  0  0  0  0  0  0
    7.4419    2.9055    5.2791 H   0  0  0  0  0  0  0  0  0  0  0  0
    7.9150   -0.1307    5.4928 H   0  0  0  0  0  0  0  0  0  0  0  0
    9.1027    1.1558    5.7086 H   0  0  0  0  0  0  0  0  0  0  0  0
   10.0787    1.2399    0.9734 H   0  0  0  0  0  0  0  0  0  0  0  0
    9.5977   -0.4577    1.0081 H   0  0  0  0  0  0  0  0  0  0  0  0
   10.0923   -0.5521    3.3512 H   0  0  0  0  0  0  0  0  0  0  0  0
   10.5743    1.1430    3.3211 H   0  0  0  0  0  0  0  0  0  0  0  0
  1  2  1  0
  1  9  1  0
  2  3  2  0
  2  7  1  0
  3  4  1  0
  3 23  1  0
  4  5  2  0
  4 10  1  0
  5  6  1  0
  5 24  1  0
  6  7  2  0
  6 25  1  0
  7  8  1  0
  8  9  1  0
  9 26  1  0
  9 27  1  0
 10 11  1  0
 10 28  1  0
 10 29  1  0
 11 12  1  0
 11 30  1  0
 11 31  1  0
 12 13  1  0
 12 18  1  0
 13 14  2  0
 13 15  1  0
 15 16  1  0
 15 32  1  0
 15 33  1  0
 16 17  1  0
 16 34  1  0
 16 35  1  0
 17 18  2  0
 17 22  1  0
 18 19  1  0
 19 20  2  0
 19 21  1  0
 21 22  1  0
 21 36  1  0
 21 37  1  0
 22 38  1  0
 22 39  1  0
M  END

