rmsd93.gzmat
 OpenBabel08211713373D

 28 28  0  0  1  0  0  0  0  0999 V2000
    0.0000    0.0000    0.0000 N   0  0  0  0  0  0  0  0  0  0  0  0
    1.3861    0.0000    0.0000 C   0  0  0  0  0  0  0  0  0  0  0  0
    1.8543    0.0000    1.2816 N   0  0  0  0  0  0  0  0  0  0  0  0
    0.7761   -0.0077    2.1199 C   0  0  0  0  0  0  0  0  0  0  0  0
   -0.4062   -0.0153    1.3478 C   0  0  1  0  0  0  0  0  0  0  0  0
   -1.7478   -0.0329    1.7997 N   0  0  0  0  0  0  0  0  0  0  0  0
   -1.9429    0.0192    3.0019 O   0  0  0  0  0  0  0  0  0  0  0  0
   -2.6465   -0.1096    0.9681 O   0  0  0  0  0  0  0  0  0  0  0  0
    2.2279    0.0044   -1.2057 C   0  0  0  0  0  0  0  0  0  0  0  0
   -0.8765   -0.0170   -1.1576 C   0  0  0  0  0  0  0  0  0  0  0  0
   -1.3681   -1.4674   -1.4271 C   0  0  0  0  0  0  0  0  0  0  0  0
   -2.0980   -1.5188   -2.6924 N   0  0  0  0  0  0  0  0  0  0  0  0
   -1.4787   -1.6975   -3.8878 C   0  0  0  0  0  0  0  0  0  0  0  0
    0.1655   -1.8358   -4.1497 S   0  0  0  0  0  0  0  0  0  0  0  0
   -2.4481   -1.7323   -4.8324 O   0  0  0  0  0  0  0  0  0  0  0  0
   -2.0593   -1.9277   -6.1922 C   0  0  0  0  0  0  0  0  0  0  0  0
    0.8751   -0.0090    3.1953 H   0  0  0  0  0  0  0  0  0  0  0  0
    3.3023    0.0280   -0.9353 H   0  0  0  0  0  0  0  0  0  0  0  0
    2.0417    0.8767   -1.8534 H   0  0  0  0  0  0  0  0  0  0  0  0
    2.0808   -0.9009   -1.8249 H   0  0  0  0  0  0  0  0  0  0  0  0
   -0.3303    0.3823   -2.0464 H   0  0  0  0  0  0  0  0  0  0  0  0
   -1.7506    0.6613   -0.9893 H   0  0  0  0  0  0  0  0  0  0  0  0
   -2.0535   -1.7966   -0.6056 H   0  0  0  0  0  0  0  0  0  0  0  0
   -0.5059   -2.1781   -1.4241 H   0  0  0  0  0  0  0  0  0  0  0  0
   -3.1087   -1.4162   -2.6422 H   0  0  0  0  0  0  0  0  0  0  0  0
   -1.4158   -1.1105   -6.5386 H   0  0  0  0  0  0  0  0  0  0  0  0
   -3.0345   -1.9052   -6.6995 H   0  0  0  0  0  0  0  0  0  0  0  0
   -1.5702   -2.9004   -6.3229 H   0  0  0  0  0  0  0  0  0  0  0  0
  1  2  1  0  0  0  0
  1  5  1  0  0  0  0
  2  3  2  0  0  0  0
  3  4  2  0  0  0  0
  4 17  1  0  0  0  0
  5  6  1  1  0  0  0
  5  4  1  0  0  0  0
  6  7  2  0  0  0  0
  8  6  2  0  0  0  0
  9 18  1  0  0  0  0
  9  2  1  0  0  0  0
 10 22  1  0  0  0  0
 10  1  1  0  0  0  0
 11 24  1  0  0  0  0
 11 10  1  0  0  0  0
 11 23  1  0  0  0  0
 12 25  1  0  0  0  0
 12 11  1  0  0  0  0
 13 12  1  0  0  0  0
 14 13  2  0  0  0  0
 15 13  1  0  0  0  0
 16 15  1  0  0  0  0
 19  9  1  0  0  0  0
 20  9  1  0  0  0  0
 21 10  1  0  0  0  0
 26 16  1  0  0  0  0
 27 16  1  0  0  0  0
 28 16  1  0  0  0  0
M  RAD  1   5   2
M  END
$$$$
