rmsd107.gzmat
 OpenBabel08211713373D

 28 28  0  0  1  0  0  0  0  0999 V2000
    0.0000    0.0000    0.0000 N   0  0  0  0  0  0  0  0  0  0  0  0
    1.3859    0.0000    0.0000 C   0  0  0  0  0  0  0  0  0  0  0  0
    1.8532    0.0000    1.2819 N   0  0  0  0  0  0  0  0  0  0  0  0
    0.7743   -0.0118    2.1197 C   0  0  0  0  0  0  0  0  0  0  0  0
   -0.4070   -0.0235    1.3471 C   0  0  2  0  0  0  0  0  0  0  0  0
   -1.7500   -0.0648    1.7950 N   0  0  0  0  0  0  0  0  0  0  0  0
   -1.9490   -0.0301    2.9969 O   0  0  0  0  0  0  0  0  0  0  0  0
   -2.6446   -0.1484    0.9599 O   0  0  0  0  0  0  0  0  0  0  0  0
    2.2258   -0.0010   -1.2076 C   0  0  0  0  0  0  0  0  0  0  0  0
   -0.8755   -0.0075   -1.1580 C   0  0  0  0  0  0  0  0  0  0  0  0
   -1.3172   -1.4650   -1.4693 C   0  0  0  0  0  0  0  0  0  0  0  0
   -2.2245   -1.4792   -2.6143 N   0  0  0  0  0  0  0  0  0  0  0  0
   -1.7809   -1.4536   -3.8975 C   0  0  0  0  0  0  0  0  0  0  0  0
   -0.1878   -1.4154   -4.4015 S   0  0  0  0  0  0  0  0  0  0  0  0
   -2.8773   -1.4585   -4.6918 O   0  0  0  0  0  0  0  0  0  0  0  0
   -2.6864   -1.5117   -6.1057 C   0  0  0  0  0  0  0  0  0  0  0  0
    0.8716   -0.0135    3.1953 H   0  0  0  0  0  0  0  0  0  0  0  0
    3.2955   -0.1167   -0.9424 H   0  0  0  0  0  0  0  0  0  0  0  0
    2.1433    0.9380   -1.7801 H   0  0  0  0  0  0  0  0  0  0  0  0
    1.9800   -0.8283   -1.8975 H   0  0  0  0  0  0  0  0  0  0  0  0
   -0.3427    0.4375   -2.0335 H   0  0  0  0  0  0  0  0  0  0  0  0
   -1.7718    0.6369   -0.9718 H   0  0  0  0  0  0  0  0  0  0  0  0
   -1.8518   -1.8982   -0.5868 H   0  0  0  0  0  0  0  0  0  0  0  0
   -0.4253   -2.1125   -1.6510 H   0  0  0  0  0  0  0  0  0  0  0  0
   -3.2207   -1.4505   -2.4082 H   0  0  0  0  0  0  0  0  0  0  0  0
   -2.1167   -0.6448   -6.4608 H   0  0  0  0  0  0  0  0  0  0  0  0
   -3.7247   -1.4739   -6.4653 H   0  0  0  0  0  0  0  0  0  0  0  0
   -2.2018   -2.4518   -6.3949 H   0  0  0  0  0  0  0  0  0  0  0  0
  1  2  1  0  0  0  0
  1  5  1  0  0  0  0
  2  3  2  0  0  0  0
  3  4  2  0  0  0  0
  4 17  1  0  0  0  0
  5  6  1  6  0  0  0
  5  4  1  0  0  0  0
  6  7  2  0  0  0  0
  8  6  2  0  0  0  0
  9 18  1  0  0  0  0
  9  2  1  0  0  0  0
 10 22  1  0  0  0  0
 10  1  1  0  0  0  0
 11 10  1  0  0  0  0
 11 23  1  0  0  0  0
 12 25  1  0  0  0  0
 12 11  1  0  0  0  0
 13 12  1  0  0  0  0
 14 13  2  0  0  0  0
 15 13  1  0  0  0  0
 16 15  1  0  0  0  0
 19  9  1  0  0  0  0
 20  9  1  0  0  0  0
 21 10  1  0  0  0  0
 24 11  1  0  0  0  0
 26 16  1  0  0  0  0
 27 16  1  0  0  0  0
 28 16  1  0  0  0  0
M  RAD  1   5   2
M  END
$$$$
