28
rmsd189.gzmat
N          0.00000        0.00000        0.00000
C          1.38600        0.00000        0.00000
N          1.85340        0.00000        1.28150
C          0.77390        0.00500        2.11950
C         -0.40760        0.01550        1.34670
N         -1.75220        0.04670        1.79170
O         -1.95860       -0.07170        2.98700
O         -2.64070        0.20230        0.96020
C          2.22000        0.00270       -1.21120
C         -0.87230       -0.00280       -1.15970
C         -1.31620        1.45050       -1.48800
N         -2.16240        1.45170       -2.67930
C         -1.65100        1.42170       -3.93710
S         -0.03340        1.42030       -4.35810
O         -2.70350        1.39220       -4.78800
C         -2.43810        1.36490       -6.19030
H          0.87160        0.00290        3.19490
H          3.29590       -0.02820       -0.95040
H          2.06900        0.91270       -1.82110
H          2.02590       -0.86330       -1.86570
H         -1.76820       -0.64580       -0.96970
H         -0.33550       -0.45460       -2.03000
H         -0.42540        2.11140       -1.62090
H         -1.90220        1.87260       -0.63330
H         -3.16760        1.41490       -2.52560
H         -1.91960        2.27740       -6.50780
H         -3.45790        1.32550       -6.60000
H         -1.86880        0.46860       -6.46390
