28
rmsd181.gzmat
N          0.00000        0.00000        0.00000
C          1.38580        0.00000        0.00000
N          1.85310        0.00000        1.28170
C          0.77420       -0.00930        2.11970
C         -0.40700       -0.02050        1.34700
N         -1.75060       -0.06400        1.79290
O         -1.95460        0.00740        2.99230
O         -2.64080       -0.18530        0.95780
C          2.22490       -0.00650       -1.20820
C         -0.87510        0.01540       -1.15790
C         -1.32680       -1.43330       -1.49590
N         -2.22130       -1.41810       -2.65130
C         -1.76320       -1.37010       -3.92910
S         -0.16530       -1.32460       -4.41660
O         -2.85170       -1.36250       -4.73370
C         -2.65190       -1.30640       -6.14550
H          0.87190       -0.01080        3.19520
H          3.29860       -0.06620       -0.94060
H          2.09950        0.90440       -1.81740
H          2.01430       -0.87020       -1.86500
H         -0.33920        0.47230       -2.02550
H         -1.76800        0.66120       -0.96110
H         -1.87600       -1.87400       -0.62600
H         -0.43960       -2.08690       -1.67810
H         -3.21970       -1.38940       -2.45720
H         -2.14790       -0.37570       -6.43000
H         -3.68930       -1.32210       -6.50970
H         -2.09690       -2.18260       -6.50050
