28

N         -0.01600        0.00590        0.01900
C          1.35350        0.01580        0.02470
N          1.84130       -0.01830        1.26290
C          0.77600       -0.04940        2.09750
C         -0.39460       -0.03000        1.35700
N         -1.73360       -0.02250        1.83520
O         -1.89080       -0.12660        3.04290
O         -2.65130        0.09300        1.01860
C          2.18050        0.03780       -1.21430
C         -0.85650        0.07340       -1.17040
C         -1.33990        1.50560       -1.43690
N         -2.07670        1.60390       -2.67600
C         -1.50710        1.68180       -3.89810
S          0.13330        1.69500       -4.19460
O         -2.45890        1.75490       -4.83760
C         -2.08040        1.84940       -6.20790
H          0.85930       -0.07820        3.18180
H          3.22520        0.20030       -0.92250
H          1.86330        0.82550       -1.91530
H          2.11760       -0.92250       -1.75370
H         -1.71350       -0.59640       -1.04060
H         -0.25710       -0.26730       -2.02310
H         -0.47120        2.17930       -1.48630
H         -1.99620        1.82330       -0.61630
H         -3.09160        1.58170       -2.65330
H         -1.49120        2.76070       -6.38690
H         -3.02130        1.87990       -6.77130
H         -1.47640        0.97950       -6.50540
