
     RDKit          3D

 28 28  0  0  0  0  0  0  0  0999 V2000
   -0.0160    0.0059    0.0190 N   0  0  0  0  0  0  0  0  0  0  0  0
    1.3535    0.0158    0.0247 C   0  0  0  0  0  0  0  0  0  0  0  0
    1.8413   -0.0183    1.2629 N   0  0  0  0  0  0  0  0  0  0  0  0
    0.7760   -0.0494    2.0975 C   0  0  0  0  0  0  0  0  0  0  0  0
   -0.3946   -0.0300    1.3570 C   0  0  0  0  0  0  0  0  0  0  0  0
   -1.7336   -0.0225    1.8352 N   0  0  0  0  0  0  0  0  0  0  0  0
   -1.8908   -0.1266    3.0429 O   0  0  0  0  0  0  0  0  0  0  0  0
   -2.6513    0.0930    1.0186 O   0  0  0  0  0  0  0  0  0  0  0  0
    2.1805    0.0378   -1.2143 C   0  0  0  0  0  0  0  0  0  0  0  0
   -0.8565    0.0734   -1.1704 C   0  0  0  0  0  0  0  0  0  0  0  0
   -1.3399    1.5056   -1.4369 C   0  0  0  0  0  0  0  0  0  0  0  0
   -2.0767    1.6039   -2.6760 N   0  0  0  0  0  0  0  0  0  0  0  0
   -1.5071    1.6818   -3.8981 C   0  0  0  0  0  0  0  0  0  0  0  0
    0.1333    1.6950   -4.1946 S   0  0  0  0  0  0  0  0  0  0  0  0
   -2.4589    1.7549   -4.8376 O   0  0  0  0  0  0  0  0  0  0  0  0
   -2.0804    1.8494   -6.2079 C   0  0  0  0  0  0  0  0  0  0  0  0
    0.8593   -0.0782    3.1818 H   0  0  0  0  0  0  0  0  0  0  0  0
    3.2252    0.2003   -0.9225 H   0  0  0  0  0  0  0  0  0  0  0  0
    1.8633    0.8255   -1.9153 H   0  0  0  0  0  0  0  0  0  0  0  0
    2.1176   -0.9225   -1.7537 H   0  0  0  0  0  0  0  0  0  0  0  0
   -1.7135   -0.5964   -1.0406 H   0  0  0  0  0  0  0  0  0  0  0  0
   -0.2571   -0.2673   -2.0231 H   0  0  0  0  0  0  0  0  0  0  0  0
   -0.4712    2.1793   -1.4863 H   0  0  0  0  0  0  0  0  0  0  0  0
   -1.9962    1.8233   -0.6163 H   0  0  0  0  0  0  0  0  0  0  0  0
   -3.0916    1.5817   -2.6533 H   0  0  0  0  0  0  0  0  0  0  0  0
   -1.4912    2.7607   -6.3869 H   0  0  0  0  0  0  0  0  0  0  0  0
   -3.0213    1.8799   -6.7713 H   0  0  0  0  0  0  0  0  0  0  0  0
   -1.4764    0.9795   -6.5054 H   0  0  0  0  0  0  0  0  0  0  0  0
  1  2  1  0
  1  5  1  0
  1 10  1  0
  2  3  2  0
  2  9  1  0
  3  4  1  0
  4  5  2  0
  4 17  1  0
  5  6  1  0
  6  7  1  0
  6  8  2  0
  9 18  1  0
  9 19  1  0
  9 20  1  0
 10 11  1  0
 10 21  1  0
 10 22  1  0
 11 12  1  0
 11 23  1  0
 11 24  1  0
 12 13  1  0
 12 25  1  0
 13 14  2  0
 13 15  1  0
 15 16  1  0
 16 26  1  0
 16 27  1  0
 16 28  1  0
M  CHG  2   6   1   7  -1
M  END

