28
rmsd184.gzmat
N          0.00000        0.00000        0.00000
C          1.38610        0.00000        0.00000
N          1.85370        0.00000        1.28180
C          0.77470        0.00730        2.11990
C         -0.40730        0.01480        1.34720
N         -1.75050        0.03650        1.79470
O         -1.95000       -0.01280        2.99630
O         -2.64580        0.11540        0.95950
C          2.22160        0.00130       -1.21020
C         -0.87560       -0.00420       -1.15820
C         -1.38030        1.43760       -1.44860
N         -2.11250        1.46280       -2.71340
C         -1.49440        1.61190       -3.91340
S          0.14820        1.76460       -4.17920
O         -2.46380        1.60460       -4.85910
C         -2.07850        1.79320       -6.22090
H          0.87270        0.00790        3.19570
H          3.29800        0.00930       -0.94960
H          2.04620        0.89390       -1.83980
H          2.05380       -0.88400       -1.84570
H         -1.74410       -0.68770       -0.98000
H         -0.32380       -0.40970       -2.04120
H         -0.52480        2.15640       -1.45910
H         -2.06780        1.77350       -0.63150
H         -3.12150        1.34020       -2.66130
H         -1.63420        2.78510       -6.36460
H         -3.04810        1.71680       -6.73320
H         -1.39660        1.00090       -6.55000
