rmsd96.gzmat
 OpenBabel08211713373D

 28 28  0  0  1  0  0  0  0  0999 V2000
    0.0000    0.0000    0.0000 N   0  0  0  0  0  0  0  0  0  0  0  0
    1.3860    0.0000    0.0000 C   0  0  0  0  0  0  0  0  0  0  0  0
    1.8538    0.0000    1.2817 N   0  0  0  0  0  0  0  0  0  0  0  0
    0.7750    0.0089    2.1197 C   0  0  0  0  0  0  0  0  0  0  0  0
   -0.4071    0.0193    1.3474 C   0  0  1  0  0  0  0  0  0  0  0  0
   -1.7495    0.0527    1.7966 N   0  0  0  0  0  0  0  0  0  0  0  0
   -1.9483    0.0049    2.9984 O   0  0  0  0  0  0  0  0  0  0  0  0
   -2.6450    0.1424    0.9628 O   0  0  0  0  0  0  0  0  0  0  0  0
    2.2240   -0.0057   -1.2084 C   0  0  0  0  0  0  0  0  0  0  0  0
   -0.8744    0.0101   -1.1591 C   0  0  0  0  0  0  0  0  0  0  0  0
   -1.3592    1.4606   -1.4396 C   0  0  0  0  0  0  0  0  0  0  0  0
   -2.0951    1.5041   -2.7010 N   0  0  0  0  0  0  0  0  0  0  0  0
   -1.4797    1.6740   -3.8995 C   0  0  0  0  0  0  0  0  0  0  0  0
    0.1632    1.8137   -4.1683 S   0  0  0  0  0  0  0  0  0  0  0  0
   -2.4529    1.6996   -4.8405 O   0  0  0  0  0  0  0  0  0  0  0  0
   -2.0713    1.9049   -6.2009 C   0  0  0  0  0  0  0  0  0  0  0  0
    0.8730    0.0082    3.1953 H   0  0  0  0  0  0  0  0  0  0  0  0
    3.2966    0.0787   -0.9451 H   0  0  0  0  0  0  0  0  0  0  0  0
    1.9996    0.8402   -1.8845 H   0  0  0  0  0  0  0  0  0  0  0  0
    2.1129   -0.9326   -1.7952 H   0  0  0  0  0  0  0  0  0  0  0  0
   -1.7509   -0.6642   -0.9870 H   0  0  0  0  0  0  0  0  0  0  0  0
   -0.3274   -0.3976   -2.0439 H   0  0  0  0  0  0  0  0  0  0  0  0
   -0.4926    2.1662   -1.4493 H   0  0  0  0  0  0  0  0  0  0  0  0
   -2.0377    1.8027   -0.6178 H   0  0  0  0  0  0  0  0  0  0  0  0
   -3.1050    1.3918   -2.6471 H   0  0  0  0  0  0  0  0  0  0  0  0
   -1.5951    2.8843   -6.3298 H   0  0  0  0  0  0  0  0  0  0  0  0
   -3.0481    1.8719   -6.7042 H   0  0  0  0  0  0  0  0  0  0  0  0
   -1.4190    1.0964   -6.5517 H   0  0  0  0  0  0  0  0  0  0  0  0
  1  2  1  0  0  0  0
  1  5  1  0  0  0  0
  2  3  2  0  0  0  0
  3  4  2  0  0  0  0
  4 17  1  0  0  0  0
  5  6  1  6  0  0  0
  5  4  1  0  0  0  0
  6  7  2  0  0  0  0
  8  6  2  0  0  0  0
  9 18  1  0  0  0  0
  9  2  1  0  0  0  0
 10 21  1  0  0  0  0
 10  1  1  0  0  0  0
 11 10  1  0  0  0  0
 11 24  1  0  0  0  0
 12 25  1  0  0  0  0
 12 11  1  0  0  0  0
 13 12  1  0  0  0  0
 14 13  2  0  0  0  0
 15 13  1  0  0  0  0
 16 15  1  0  0  0  0
 19  9  1  0  0  0  0
 20  9  1  0  0  0  0
 22 10  1  0  0  0  0
 23 11  1  0  0  0  0
 26 16  1  0  0  0  0
 27 16  1  0  0  0  0
 28 16  1  0  0  0  0
M  RAD  1   5   2
M  END
$$$$
