28
rmsd107.gzmat
N          0.00000        0.00000        0.00000
C          1.38590        0.00000        0.00000
N          1.85320        0.00000        1.28190
C          0.77430       -0.01180        2.11970
C         -0.40700       -0.02350        1.34710
N         -1.75000       -0.06480        1.79500
O         -1.94900       -0.03010        2.99690
O         -2.64460       -0.14840        0.95990
C          2.22580       -0.00100       -1.20760
C         -0.87550       -0.00750       -1.15800
C         -1.31720       -1.46500       -1.46930
N         -2.22450       -1.47920       -2.61430
C         -1.78090       -1.45360       -3.89750
S         -0.18780       -1.41540       -4.40150
O         -2.87730       -1.45850       -4.69180
C         -2.68640       -1.51170       -6.10570
H          0.87160       -0.01350        3.19530
H          3.29550       -0.11670       -0.94240
H          2.14330        0.93800       -1.78010
H          1.98000       -0.82830       -1.89750
H         -0.34270        0.43750       -2.03350
H         -1.77180        0.63690       -0.97180
H         -1.85180       -1.89820       -0.58680
H         -0.42530       -2.11250       -1.65100
H         -3.22070       -1.45050       -2.40820
H         -2.11670       -0.64480       -6.46080
H         -3.72470       -1.47390       -6.46530
H         -2.20180       -2.45180       -6.39490
