rmsd36.gzmat
 OpenBabel08211713373D

 28 28  0  0  1  0  0  0  0  0999 V2000
    0.0000    0.0000    0.0000 N   0  0  0  0  0  0  0  0  0  0  0  0
    1.3858    0.0000    0.0000 C   0  0  0  0  0  0  0  0  0  0  0  0
    1.8535    0.0000    1.2814 N   0  0  0  0  0  0  0  0  0  0  0  0
    0.7746   -0.0084    2.1198 C   0  0  0  0  0  0  0  0  0  0  0  0
   -0.4075   -0.0160    1.3471 C   0  0  2  0  0  0  0  0  0  0  0  0
   -1.7520   -0.0374    1.7921 N   0  0  0  0  0  0  0  0  0  0  0  0
   -1.9554    0.0298    2.9919 O   0  0  0  0  0  0  0  0  0  0  0  0
   -2.6445   -0.1340    0.9560 O   0  0  0  0  0  0  0  0  0  0  0  0
    2.2238    0.0032   -1.2088 C   0  0  0  0  0  0  0  0  0  0  0  0
   -0.8730   -0.0186   -1.1596 C   0  0  0  0  0  0  0  0  0  0  0  0
   -1.3513   -1.4722   -1.4348 C   0  0  0  0  0  0  0  0  0  0  0  0
   -2.1870   -1.4994   -2.6327 N   0  0  0  0  0  0  0  0  0  0  0  0
   -1.6693   -1.6045   -3.8836 C   0  0  0  0  0  0  0  0  0  0  0  0
   -0.0540   -1.7282   -4.2883 S   0  0  0  0  0  0  0  0  0  0  0  0
   -2.7160   -1.5817   -4.7420 O   0  0  0  0  0  0  0  0  0  0  0  0
   -2.4547   -1.7363   -6.1364 C   0  0  0  0  0  0  0  0  0  0  0  0
    0.8752   -0.0118    3.1952 H   0  0  0  0  0  0  0  0  0  0  0  0
    3.2986   -0.0358   -0.9428 H   0  0  0  0  0  0  0  0  0  0  0  0
    2.0811    0.9090   -1.8209 H   0  0  0  0  0  0  0  0  0  0  0  0
    2.0299   -0.8681   -1.8609 H   0  0  0  0  0  0  0  0  0  0  0  0
   -0.3255    0.3865   -2.0454 H   0  0  0  0  0  0  0  0  0  0  0  0
   -1.7523    0.6530   -0.9926 H   0  0  0  0  0  0  0  0  0  0  0  0
   -1.9553   -1.8477   -0.5707 H   0  0  0  0  0  0  0  0  0  0  0  0
   -0.4758   -2.1592   -1.5320 H   0  0  0  0  0  0  0  0  0  0  0  0
   -3.1888   -1.3891   -2.4934 H   0  0  0  0  0  0  0  0  0  0  0  0
   -1.8209   -0.9242   -6.5108 H   0  0  0  0  0  0  0  0  0  0  0  0
   -3.4696   -1.6673   -6.5530 H   0  0  0  0  0  0  0  0  0  0  0  0
   -2.0099   -2.7167   -6.3423 H   0  0  0  0  0  0  0  0  0  0  0  0
  1  2  1  0  0  0  0
  1  5  1  0  0  0  0
  2  3  2  0  0  0  0
  3  4  2  0  0  0  0
  4 17  1  0  0  0  0
  5  6  1  6  0  0  0
  5  4  1  0  0  0  0
  6  7  2  0  0  0  0
  8  6  2  0  0  0  0
  9 18  1  0  0  0  0
  9  2  1  0  0  0  0
 10 22  1  0  0  0  0
 10  1  1  0  0  0  0
 11 10  1  0  0  0  0
 11 23  1  0  0  0  0
 12 25  1  0  0  0  0
 12 11  1  0  0  0  0
 13 12  1  0  0  0  0
 14 13  2  0  0  0  0
 15 13  1  0  0  0  0
 16 15  1  0  0  0  0
 19  9  1  0  0  0  0
 20  9  1  0  0  0  0
 21 10  1  0  0  0  0
 24 11  1  0  0  0  0
 26 16  1  0  0  0  0
 27 16  1  0  0  0  0
 28 16  1  0  0  0  0
M  RAD  1   5   2
M  END
$$$$
