28
rmsd36.gzmat
N          0.00000        0.00000        0.00000
C          1.38580        0.00000        0.00000
N          1.85350        0.00000        1.28140
C          0.77460       -0.00840        2.11980
C         -0.40750       -0.01600        1.34710
N         -1.75200       -0.03740        1.79210
O         -1.95540        0.02980        2.99190
O         -2.64450       -0.13400        0.95600
C          2.22380        0.00320       -1.20880
C         -0.87300       -0.01860       -1.15960
C         -1.35130       -1.47220       -1.43480
N         -2.18700       -1.49940       -2.63270
C         -1.66930       -1.60450       -3.88360
S         -0.05400       -1.72820       -4.28830
O         -2.71600       -1.58170       -4.74200
C         -2.45470       -1.73630       -6.13640
H          0.87520       -0.01180        3.19520
H          3.29860       -0.03580       -0.94280
H          2.08110        0.90900       -1.82090
H          2.02990       -0.86810       -1.86090
H         -0.32550        0.38650       -2.04540
H         -1.75230        0.65300       -0.99260
H         -1.95530       -1.84770       -0.57070
H         -0.47580       -2.15920       -1.53200
H         -3.18880       -1.38910       -2.49340
H         -1.82090       -0.92420       -6.51080
H         -3.46960       -1.66730       -6.55300
H         -2.00990       -2.71670       -6.34230
