37

C         -0.03260       -0.08020        0.07450
C          1.37250        0.04450        0.05870
C          2.09360        0.07730        1.27480
C          1.42440       -0.03760        2.48790
C          0.02720       -0.17610        2.50570
C         -0.69220       -0.19320        1.31940
O          3.43910        0.22310        1.22300
O          2.12480        0.15730       -1.05290
C         -0.75500       -0.08160       -1.19130
S         -2.51230       -0.06040       -1.30160
C         -2.38920       -0.05220       -3.02340
C         -1.07380       -0.06560       -3.40710
N         -0.17160       -0.07740       -2.36950
C         -0.64350       -0.09270       -4.84480
O         -1.45040        0.03640       -5.75640
N          0.68550       -0.28670       -4.99820
C          1.36140       -0.30640       -6.27530
C          2.69260        0.45850       -6.19460
C          3.63390       -0.09340       -5.16310
N          3.24140       -0.26210       -3.84770
C          4.27210       -0.76400       -3.20430
N          5.33240       -0.93040       -4.04210
H          6.24300       -1.29530       -3.79090
C          4.94160       -0.51050       -5.29910
H          2.00700       -0.01340        3.41060
H         -0.49370       -0.26810        3.46060
H         -1.77890       -0.30010        1.34120
H          3.66470        0.36580        0.28920
H          1.54530        0.11730       -1.85710
H         -3.25540       -0.04410       -3.68060
H          1.27990       -0.37450       -4.17280
H          0.69120        0.14410       -7.02160
H          1.55720       -1.34690       -6.59740
H          2.47260        1.51420       -5.95880
H          3.18250        0.44100       -7.18030
H          4.29130       -1.01970       -2.14600
H          5.60870       -0.54010       -6.15620
