rmsd128.gzmat
 OpenBabel08211713403D

 37 39  0  0  0  0  0  0  0  0999 V2000
    0.0000    0.0000    0.0000 C   0  0  0  0  0  0  0  0  0  0  0  0
    1.3976    0.0000    0.0000 C   0  0  0  0  0  0  0  0  0  0  0  0
    2.1100    0.0000    1.2295 C   0  0  0  0  0  0  0  0  0  0  0  0
    1.4386    0.0122    2.4390 C   0  0  0  0  0  0  0  0  0  0  0  0
    0.0370    0.0309    2.4318 C   0  0  0  0  0  0  0  0  0  0  0  0
   -0.6680    0.0286    1.2412 C   0  0  0  0  0  0  0  0  0  0  0  0
    3.4668   -0.0069    1.2579 O   0  0  0  0  0  0  0  0  0  0  0  0
    2.2010   -0.0432   -1.0762 O   0  0  0  0  0  0  0  0  0  0  0  0
   -0.7358   -0.0241   -1.2425 C   0  0  0  0  0  0  0  0  0  0  0  0
   -2.3801   -0.7014   -1.4382 S   0  0  0  0  0  0  0  0  0  0  0  0
   -2.3400   -0.3297   -3.1305 C   0  0  0  0  0  0  0  0  0  0  0  0
   -1.1438    0.2530   -3.4465 C   0  0  0  0  0  0  0  0  0  0  0  0
   -0.2554    0.4199   -2.3857 N   0  0  0  0  0  0  0  0  0  0  0  0
   -0.6986    0.6583   -4.8093 C   0  0  0  0  0  0  0  0  0  0  0  0
   -1.2239    0.2084   -5.8091 O   0  0  0  0  0  0  0  0  0  0  0  0
    0.3035    1.6050   -4.8507 N   0  0  0  0  0  0  0  0  0  0  0  0
    1.0489    1.8071   -6.0974 C   0  0  0  0  0  0  0  0  0  0  0  0
    2.5415    1.4530   -5.8959 C   0  0  0  0  0  0  0  0  0  0  0  0
    2.6844    0.0887   -5.3433 C   0  0  0  0  0  0  0  0  0  0  0  0
    2.7807   -0.1375   -3.9731 N   0  0  0  0  0  0  0  0  0  0  0  0
    2.8711   -1.4649   -3.7937 C   0  0  0  0  0  0  0  0  0  0  0  0
    2.8313   -2.1172   -5.0251 N   0  0  0  0  0  0  0  0  0  0  0  0
    2.8697   -3.0972   -5.1885 H   0  0  0  0  0  0  0  0  0  0  0  0
    2.7135   -1.1374   -6.0116 C   0  0  0  0  0  0  0  0  0  0  0  0
    1.9962    0.0157    3.3733 H   0  0  0  0  0  0  0  0  0  0  0  0
   -0.4969    0.0525    3.3807 H   0  0  0  0  0  0  0  0  0  0  0  0
   -1.7561    0.0631    1.2724 H   0  0  0  0  0  0  0  0  0  0  0  0
    3.8282    0.0607    0.3291 H   0  0  0  0  0  0  0  0  0  0  0  0
    1.7692    0.2523   -1.9409 H   0  0  0  0  0  0  0  0  0  0  0  0
   -3.1477   -0.5476   -3.8134 H   0  0  0  0  0  0  0  0  0  0  0  0
    0.8144    1.8079   -3.9915 H   0  0  0  0  0  0  0  0  0  0  0  0
    0.9446    2.8745   -6.3973 H   0  0  0  0  0  0  0  0  0  0  0  0
    0.6069    1.1927   -6.9175 H   0  0  0  0  0  0  0  0  0  0  0  0
    3.0145    2.1922   -5.2104 H   0  0  0  0  0  0  0  0  0  0  0  0
    3.0812    1.5501   -6.8589 H   0  0  0  0  0  0  0  0  0  0  0  0
    2.9620   -1.9679   -2.8442 H   0  0  0  0  0  0  0  0  0  0  0  0
    2.6486   -1.3661   -7.0530 H   0  0  0  0  0  0  0  0  0  0  0  0
  1  6  1  0  0  0  0
  2  1  2  0  0  0  0
  2  3  1  0  0  0  0
  3  7  1  0  0  0  0
  3  4  2  0  0  0  0
  4 25  1  0  0  0  0
  5  4  1  0  0  0  0
  5 26  1  0  0  0  0
  6 27  1  0  0  0  0
  6  5  2  0  0  0  0
  8  2  1  0  0  0  0
  9  1  1  0  0  0  0
 10  9  1  0  0  0  0
 11 10  1  0  0  0  0
 12 11  1  0  0  0  0
 12 13  2  0  0  0  0
 13  9  2  0  0  0  0
 14 12  1  0  0  0  0
 15 14  2  0  0  0  0
 16 14  1  0  0  0  0
 16 31  1  0  0  0  0
 17 18  1  0  0  0  0
 17 16  1  0  0  0  0
 18 19  1  0  0  0  0
 18 34  1  0  0  0  0
 19 20  2  0  0  0  0
 20 21  2  0  0  0  0
 21 36  1  0  0  0  0
 22 21  1  0  0  0  0
 23 22  1  0  0  0  0
 24 19  1  0  0  0  0
 24 22  1  0  0  0  0
 28  7  1  0  0  0  0
 29  8  1  0  0  0  0
 30 11  1  0  0  0  0
 32 17  1  0  0  0  0
 33 17  1  0  0  0  0
 35 18  1  0  0  0  0
 37 24  1  0  0  0  0
M  RAD  2  11   2  24   2
M  END
$$$$
