
     RDKit          3D

 37 39  0  0  0  0  0  0  0  0999 V2000
   -0.0326   -0.0802    0.0745 C   0  0  0  0  0  0  0  0  0  0  0  0
    1.3725    0.0445    0.0587 C   0  0  0  0  0  0  0  0  0  0  0  0
    2.0936    0.0773    1.2748 C   0  0  0  0  0  0  0  0  0  0  0  0
    1.4244   -0.0376    2.4879 C   0  0  0  0  0  0  0  0  0  0  0  0
    0.0272   -0.1761    2.5057 C   0  0  0  0  0  0  0  0  0  0  0  0
   -0.6922   -0.1932    1.3194 C   0  0  0  0  0  0  0  0  0  0  0  0
    3.4391    0.2231    1.2230 O   0  0  0  0  0  0  0  0  0  0  0  0
    2.1248    0.1573   -1.0529 O   0  0  0  0  0  0  0  0  0  0  0  0
   -0.7550   -0.0816   -1.1913 C   0  0  0  0  0  0  0  0  0  0  0  0
   -2.5123   -0.0604   -1.3016 S   0  0  0  0  0  0  0  0  0  0  0  0
   -2.3892   -0.0522   -3.0234 C   0  0  0  0  0  0  0  0  0  0  0  0
   -1.0738   -0.0656   -3.4071 C   0  0  0  0  0  0  0  0  0  0  0  0
   -0.1716   -0.0774   -2.3695 N   0  0  0  0  0  0  0  0  0  0  0  0
   -0.6435   -0.0927   -4.8448 C   0  0  0  0  0  0  0  0  0  0  0  0
   -1.4504    0.0364   -5.7564 O   0  0  0  0  0  0  0  0  0  0  0  0
    0.6855   -0.2867   -4.9982 N   0  0  0  0  0  0  0  0  0  0  0  0
    1.3614   -0.3064   -6.2753 C   0  0  0  0  0  0  0  0  0  0  0  0
    2.6926    0.4585   -6.1946 C   0  0  0  0  0  0  0  0  0  0  0  0
    3.6339   -0.0934   -5.1631 C   0  0  0  0  0  0  0  0  0  0  0  0
    3.2414   -0.2621   -3.8477 N   0  0  0  0  0  0  0  0  0  0  0  0
    4.2721   -0.7640   -3.2043 C   0  0  0  0  0  0  0  0  0  0  0  0
    5.3324   -0.9304   -4.0421 N   0  0  0  0  0  0  0  0  0  0  0  0
    6.2430   -1.2953   -3.7909 H   0  0  0  0  0  0  0  0  0  0  0  0
    4.9416   -0.5105   -5.2991 C   0  0  0  0  0  0  0  0  0  0  0  0
    2.0070   -0.0134    3.4106 H   0  0  0  0  0  0  0  0  0  0  0  0
   -0.4937   -0.2681    3.4606 H   0  0  0  0  0  0  0  0  0  0  0  0
   -1.7789   -0.3001    1.3412 H   0  0  0  0  0  0  0  0  0  0  0  0
    3.6647    0.3658    0.2892 H   0  0  0  0  0  0  0  0  0  0  0  0
    1.5453    0.1173   -1.8571 H   0  0  0  0  0  0  0  0  0  0  0  0
   -3.2554   -0.0441   -3.6806 H   0  0  0  0  0  0  0  0  0  0  0  0
    1.2799   -0.3745   -4.1728 H   0  0  0  0  0  0  0  0  0  0  0  0
    0.6912    0.1441   -7.0216 H   0  0  0  0  0  0  0  0  0  0  0  0
    1.5572   -1.3469   -6.5974 H   0  0  0  0  0  0  0  0  0  0  0  0
    2.4726    1.5142   -5.9588 H   0  0  0  0  0  0  0  0  0  0  0  0
    3.1825    0.4410   -7.1803 H   0  0  0  0  0  0  0  0  0  0  0  0
    4.2913   -1.0197   -2.1460 H   0  0  0  0  0  0  0  0  0  0  0  0
    5.6087   -0.5401   -6.1562 H   0  0  0  0  0  0  0  0  0  0  0  0
  1  2  2  0
  1  6  1  0
  1  9  1  0
  2  3  1  0
  2  8  1  0
  3  4  2  0
  3  7  1  0
  4  5  1  0
  4 25  1  0
  5  6  2  0
  5 26  1  0
  6 27  1  0
  7 28  1  0
  8 29  1  0
  9 10  1  0
  9 13  2  0
 10 11  1  0
 11 12  2  0
 11 30  1  0
 12 13  1  0
 12 14  1  0
 14 15  2  0
 14 16  1  0
 16 17  1  0
 16 31  1  0
 17 18  1  0
 17 32  1  0
 17 33  1  0
 18 19  1  0
 18 34  1  0
 18 35  1  0
 19 20  1  0
 19 24  2  0
 20 21  2  0
 21 22  1  0
 21 36  1  0
 22 23  1  0
 22 24  1  0
 24 37  1  0
M  END

