37
rmsd74.gzmat
C          0.00000        0.00000        0.00000
C          1.39800        0.00000        0.00000
C          2.11340        0.00000        1.22970
C          1.44510        0.00100        2.43990
C          0.04240        0.01090        2.43460
C         -0.66370        0.01610        1.24570
O          3.47030       -0.00180        1.25650
O          2.20430       -0.03410       -1.07210
C         -0.74250       -0.02230       -1.23800
S         -2.46020       -0.50300       -1.38180
C         -2.39270       -0.26880       -3.09560
C         -1.13720        0.13650       -3.45690
N         -0.22530        0.27610       -2.41380
C         -0.66950        0.35720       -4.85370
O         -1.26740       -0.12040       -5.79920
N          0.43960        1.16320       -5.00310
C          1.17400        1.12870       -6.27310
C          2.59850        0.56000       -6.06510
C          2.55540       -0.68710       -5.27090
N          2.73060       -0.67100       -3.89000
C          2.60890       -1.93570       -3.45700
N          2.34980       -2.78500       -4.53130
H          2.20120       -3.76760       -4.49850
C          2.31490       -1.99930       -5.68440
H          2.00370        0.00100        3.37370
H         -0.48980        0.02020        3.38460
H         -1.75190        0.04230        1.28320
H          3.83200        0.04780        0.32670
H          1.74970        0.16000       -1.95450
H         -3.22710       -0.43720       -3.75990
H          0.99060        1.39300       -4.17730
H          1.22980        2.16690       -6.67240
H          0.61670        0.51950       -7.02440
H          3.23380        1.31510       -5.54860
H          3.07720        0.38770       -7.04980
H          2.69490       -2.26250       -2.43290
H          2.11780       -2.40070       -6.65460
