87

C          0.19350       -0.21020        0.12970
C          1.51500       -0.61350       -0.11000
C          2.35570       -0.96660        0.94850
C          1.87820       -0.93350        2.26600
C          0.55970       -0.53870        2.51130
C         -0.27540       -0.17920        1.44880
C         -0.70130        0.15620       -1.04040
O         -0.56140       -0.75390       -2.11870
C         -1.25500       -1.99560       -2.07020
H         -0.58030       -2.72490       -2.54770
C         -2.54740       -1.93270       -2.91700
H         -2.24740       -1.39890       -3.83440
C         -3.04020       -3.32320       -3.34860
C         -3.39270       -4.30140       -2.23090
H         -2.55220       -4.33620       -1.52080
O         -4.49350       -3.96100       -1.40280
C         -5.71430       -3.54360       -2.01630
C         -6.46670       -4.67230       -2.68080
C         -7.23280       -5.55300       -1.90360
C         -7.87140       -6.64760       -2.48560
C         -7.74800       -6.88040       -3.85950
C         -6.99140       -6.00720       -4.64510
C         -6.36000       -4.90770       -4.05760
C         -3.41420       -5.76400       -2.72010
O         -2.76320       -6.13450       -3.68890
N         -4.07670       -6.59460       -1.89060
C         -4.03450       -8.02860       -2.00910
H         -4.05550       -8.28460       -3.08230
C         -2.82770       -8.68860       -1.36000
C         -3.21470       -9.85820       -0.69180
C         -2.26850      -10.62080       -0.00510
C         -0.93100      -10.20550       -0.00860
C         -0.54740       -9.04440       -0.69240
C         -1.49680       -8.27410       -1.37300
C         -4.69810      -10.09110       -0.87840
C         -5.23010       -8.69540       -1.26890
H         -6.12340       -8.73630       -1.90450
O         -5.60450       -7.94160       -0.13000
O         -3.54500       -1.14270       -2.30800
C         -1.54580       -2.46510       -0.63710
O         -2.50170       -2.02490        0.00560
N         -0.70990       -3.39350       -0.13470
C         -0.80850       -3.82710        1.25200
H         -1.00590       -2.93440        1.86430
C         -1.85000       -4.90270        1.49130
C         -1.23560       -6.15290        1.66700
C         -2.00540       -7.27850        1.95790
C         -3.39300       -7.13510        2.07240
C         -4.00710       -5.89270        1.85900
C         -3.23680       -4.76340        1.55870
C          0.25720       -6.04040        1.48860
C          0.52530       -4.53430        1.65880
H          0.69540       -4.31620        2.72850
O          1.63270       -4.13840        0.88290
H          1.87430       -0.66040       -1.14050
H          3.38940       -1.26100        0.74750
H          2.53370       -1.20850        3.09590
H          0.17660       -0.51700        3.53440
H         -1.31430        0.09800        1.63980
H         -0.39010        1.13000       -1.45210
H         -1.74890        0.24790       -0.71910
H         -2.26340       -3.82100       -3.94760
H         -3.89280       -3.18520       -4.02860
H         -5.52500       -2.71520       -2.71460
H         -6.30680       -3.13960       -1.18250
H         -7.31080       -5.39170       -0.82580
H         -8.45930       -7.32580       -1.86270
H         -8.24410       -7.73970       -4.31750
H         -6.89120       -6.18190       -5.71890
H         -5.76840       -4.23070       -4.67830
H         -4.58920       -6.19460       -1.11100
H         -2.56350      -11.52920        0.52700
H         -0.17960      -10.79340        0.52450
H          0.50140       -8.73780       -0.69130
H         -1.20840       -7.37200       -1.91520
H         -4.87180      -10.81080       -1.69850
H         -5.21560      -10.47820        0.01260
H         -4.83620       -7.87940        0.45930
H         -3.57190       -1.40910       -1.36830
H          0.16780       -3.60100       -0.60430
H         -1.53960       -8.25610        2.09280
H         -4.00010       -8.00440        2.34260
H         -5.09370       -5.80490        1.92960
H         -3.69860       -3.79400        1.37150
H          0.83930       -6.65690        2.18940
H          0.55140       -6.34360        0.46830
H          1.86280       -3.22410        1.11470
