87
rmsd16.gzmat
C          0.00000        0.00000        0.00000
C          1.39580        0.00000        0.00000
C          2.08870        0.00000        1.20800
C          1.38850        0.01540        2.41310
C         -0.00530        0.03140        2.41060
C         -0.70210        0.01840        1.20470
C         -0.73530       -0.06790       -1.30470
O         -0.11750       -1.12370       -2.04760
C         -0.93750       -2.17560       -2.47150
H         -0.19620       -2.80460       -3.03370
C         -2.06170       -1.69150       -3.42140
H         -1.70020       -0.81510       -4.01540
C         -2.51340       -2.84480       -4.32540
C         -3.91060       -2.61640       -4.90990
H         -4.02150       -1.57630       -5.30950
O         -3.92740       -3.48460       -6.03420
C         -5.18150       -4.01080       -6.43130
C         -5.46670       -5.26470       -5.65630
C         -6.71270       -5.47860       -5.06730
C         -6.94070       -6.64090       -4.33280
C         -5.92860       -7.58850       -4.18910
C         -4.68560       -7.37640       -4.78390
C         -4.45240       -6.21360       -5.51310
C         -5.08580       -2.86910       -3.95740
O         -6.18010       -2.37890       -4.20120
N         -4.91910       -3.65650       -2.85050
C         -6.04940       -3.86020       -1.94940
H         -6.93210       -4.21350       -2.54910
C         -5.70300       -4.84410       -0.86560
C         -5.94340       -4.31060        0.41170
C         -5.71960       -5.07580        1.54470
C         -5.20830       -6.36930        1.38810
C         -4.94200       -6.88360        0.12190
C         -5.20000       -6.12210       -1.02300
C         -6.40080       -2.89090        0.34330
C         -6.44260       -2.54490       -1.16340
H         -7.42500       -2.16150       -1.49630
O         -5.46770       -1.54710       -1.35410
O         -3.11930       -1.13150       -2.69910
C         -1.49780       -3.00820       -1.31900
O         -2.48620       -3.71880       -1.46340
N         -0.79550       -3.04470       -0.14990
C         -1.37470       -3.75850        0.98920
H         -1.49750       -4.83780        0.70630
C         -0.50380       -3.59380        2.20450
C         -1.22610       -3.06380        3.28630
C         -0.59400       -2.79690        4.48930
C          0.77350       -3.06960        4.60250
C          1.48560       -3.60420        3.53190
C          0.84600       -3.87420        2.31650
C         -2.66010       -2.83540        2.94080
C         -2.78220       -3.18580        1.43710
H         -3.57960       -3.92230        1.22190
O         -3.05900       -1.97440        0.78620
H          1.93640       -0.00630       -0.94590
H          3.17600       -0.01220        1.20970
H          1.92870        0.00590        3.35700
H         -0.55150        0.03090        3.35160
H         -1.79490       -0.00580        1.20360
H         -0.57120        0.83590       -1.92370
H         -1.82550       -0.21470       -1.18020
H         -2.47130       -3.82280       -3.80200
H         -1.79740       -2.95790       -5.17010
H         -5.00180       -4.23000       -7.50520
H         -5.98280       -3.25070       -6.35830
H         -7.49780       -4.72870       -5.16310
H         -7.90910       -6.80820       -3.86660
H         -6.10820       -8.49140       -3.61050
H         -3.89540       -8.11580       -4.68040
H         -3.47710       -6.03150       -5.96280
H         -4.00440       -3.94610       -2.50530
H         -5.92550       -4.68290        2.53560
H         -5.01190       -6.97550        2.27030
H         -4.52940       -7.88400        0.01490
H         -5.00540       -6.52460       -2.01730
H         -7.38110       -2.73770        0.82360
H         -5.69530       -2.20740        0.86780
H         -5.59710       -1.10730       -2.22930
H         -3.63360       -1.79730       -2.18700
H         -0.08910       -2.34170        0.05870
H         -1.14300       -2.37840        5.32700
H          1.28540       -2.86070        5.53980
H          2.54820       -3.81100        3.63720
H          1.40110       -4.29000        1.47870
H         -3.33700       -3.45420        3.55430
H         -2.96250       -1.78060        3.10710
H         -3.59220       -2.11960       -0.03120
