87
rmsd130.gzmat
C          0.00000        0.00000        0.00000
C          1.39600        0.00000        0.00000
C          2.09240        0.00000        1.20670
C          1.39490       -0.00250        2.41420
C          0.00130        0.00550        2.41400
C         -0.69720        0.00720        1.20830
C         -0.73510       -0.03240       -1.30800
O         -0.28900       -1.16720       -2.04470
C         -1.08230       -2.32550       -1.95940
H         -0.41160       -3.07190       -2.45910
C         -2.38230       -2.17380       -2.79180
H         -2.15180       -1.54310       -3.68870
C         -2.93280       -3.54120       -3.22660
C         -3.51720       -4.36560       -2.08820
H         -2.84270       -4.37990       -1.18890
O         -4.69360       -3.87530       -1.49620
C         -5.72010       -3.35570       -2.32430
C         -6.46760       -4.44660       -3.02960
C         -7.42050       -5.19160       -2.33240
C         -8.10940       -6.21850       -2.97390
C         -7.84150       -6.51090       -4.31040
C         -6.89260       -5.76600       -5.00790
C         -6.21210       -4.73000       -4.37140
C         -3.70080       -5.82470       -2.54240
O         -3.08990       -6.29810       -3.48070
N         -4.49580       -6.59150       -1.72690
C         -4.73480       -7.99110       -2.05410
H         -4.78120       -8.12050       -3.17160
C         -3.68560       -8.92260       -1.49510
C         -4.28480      -10.03870       -0.88490
C         -3.50760      -11.03290       -0.31870
C         -2.11430      -10.90240       -0.37150
C         -1.52360       -9.80120       -0.98460
C         -2.31090       -8.79640       -1.55920
C         -5.77750       -9.96320       -0.95610
C         -6.07130       -8.50910       -1.39860
H         -6.94520       -8.39860       -2.06740
O         -6.41690       -7.72000       -0.28960
O         -3.36560       -1.42330       -2.14540
C         -1.34000       -2.68650       -0.49570
O         -2.26440       -2.23040        0.15710
N         -0.47360       -3.59520        0.05630
C         -0.56760       -3.93650        1.47240
H         -1.38380       -3.33850        1.96020
C         -0.80360       -5.41280        1.66340
C          0.24170       -6.01010        2.38560
C          0.20920       -7.36280        2.68060
C         -0.88490       -8.11660        2.24180
C         -1.92090       -7.52080        1.52690
C         -1.88920       -6.15380        1.23220
C          1.30340       -5.02460        2.75080
C          0.81280       -3.66760        2.19600
H          0.71020       -2.89010        2.97550
O          1.79350       -3.26680        1.27010
H          1.93630       -0.00560       -0.94640
H          3.18100        0.00510        1.20690
H          1.94010       -0.00700        3.35610
H         -0.54510        0.00930        3.35540
H         -1.78930       -0.00820        1.20990
H         -0.44580        0.80920       -1.96960
H         -1.83710       -0.02390       -1.19260
H         -2.13980       -4.12960       -3.74220
H         -3.70060       -3.38510       -4.01240
H         -5.31810       -2.58360       -3.00820
H         -6.34760       -2.83830       -1.56600
H         -7.62000       -4.97960       -1.28210
H         -8.85560       -6.79260       -2.42740
H         -8.37460       -7.31680       -4.80970
H         -6.67820       -5.99520       -6.05000
H         -5.47610       -4.15090       -4.92610
H         -5.12270       -6.16060       -1.05150
H         -3.96140      -11.89730        0.15560
H         -1.48880      -11.67470        0.07150
H         -0.43920       -9.71480       -1.01870
H         -1.85260       -7.93690       -2.05150
H         -6.18240      -10.69260       -1.68180
H         -6.26870      -10.19270        0.00610
H         -5.77180       -7.83670        0.44210
H         -3.54310       -1.78550       -1.23680
H          0.34100       -3.95040       -0.43080
H          1.01390       -7.83150        3.23800
H         -0.92420       -9.18200        2.46100
H         -2.75830       -8.12600        1.18230
H         -2.70100       -5.68900        0.67640
H          1.48100       -4.97910        3.83840
H          2.28100       -5.28770        2.29180
H          1.60970       -2.35830        0.93550
