rmsd195.gzmat
 OpenBabel08211713413D

 87 92  0  0  1  0  0  0  0  0999 V2000
    0.0000    0.0000    0.0000 C   0  0  0  0  0  0  0  0  0  0  0  0
    1.3962    0.0000    0.0000 C   0  0  0  0  0  0  0  0  0  0  0  0
    2.0922    0.0000    1.2061 C   0  0  0  0  0  0  0  0  0  0  0  0
    1.3943    0.0034    2.4135 C   0  0  0  0  0  0  0  0  0  0  0  0
    0.0006   -0.0002    2.4126 C   0  0  0  0  0  0  0  0  0  0  0  0
   -0.6988   -0.0042    1.2067 C   0  0  0  0  0  0  0  0  0  0  0  0
   -0.7344   -0.0002   -1.3081 C   0  0  0  0  0  0  0  0  0  0  0  0
   -0.1063   -0.8657   -2.2405 O   0  0  0  0  0  0  0  0  0  0  0  0
   -0.2708   -2.2403   -1.9419 C   0  0  2  0  0  0  0  0  0  0  0  0
   -0.2936   -2.4154   -0.8371 H   0  0  0  0  0  0  0  0  0  0  0  0
    0.9619   -2.9314   -2.5779 C   0  0  1  0  0  0  0  0  0  0  0  0
    1.8639   -2.2860   -2.4326 H   0  0  0  0  0  0  0  0  0  0  0  0
    1.1524   -4.3401   -2.0057 C   0  0  0  0  0  0  0  0  0  0  0  0
    1.8593   -4.2976   -0.6509 C   0  0  1  0  0  0  0  0  0  0  0  0
    2.7152   -3.5881   -0.6492 H   0  0  0  0  0  0  0  0  0  0  0  0
    0.8498   -3.8762    0.2471 O   0  0  0  0  0  0  0  0  0  0  0  0
    1.2884   -3.3312    1.4780 C   0  0  0  0  0  0  0  0  0  0  0  0
    1.3510   -4.3929    2.5327 C   0  0  0  0  0  0  0  0  0  0  0  0
    2.2064   -4.2473    3.6245 C   0  0  0  0  0  0  0  0  0  0  0  0
    2.2567   -5.2407    4.6007 C   0  0  0  0  0  0  0  0  0  0  0  0
    1.4574   -6.3768    4.4847 C   0  0  0  0  0  0  0  0  0  0  0  0
    0.5976   -6.5161    3.3961 C   0  0  0  0  0  0  0  0  0  0  0  0
    0.5386   -5.5225    2.4227 C   0  0  0  0  0  0  0  0  0  0  0  0
    2.3087   -5.7184   -0.2664 C   0  0  0  0  0  0  0  0  0  0  0  0
    1.8204   -6.7238   -0.7340 O   0  0  0  0  0  0  0  0  0  0  0  0
    3.3760   -5.7808    0.6068 N   0  0  0  0  0  0  0  0  0  0  0  0
    3.8095   -7.0743    1.1224 C   0  0  1  0  0  0  0  0  0  0  0  0
    2.9159   -7.7450    1.2667 H   0  0  0  0  0  0  0  0  0  0  0  0
    4.8155   -7.7794    0.2452 C   0  0  0  0  0  0  0  0  0  0  0  0
    5.8627   -8.3088    1.0210 C   0  0  0  0  0  0  0  0  0  0  0  0
    6.8888   -9.0200    0.4266 C   0  0  0  0  0  0  0  0  0  0  0  0
    6.8591   -9.1999   -0.9620 C   0  0  0  0  0  0  0  0  0  0  0  0
    5.8189   -8.6803   -1.7266 C   0  0  0  0  0  0  0  0  0  0  0  0
    4.7779   -7.9641   -1.1234 C   0  0  0  0  0  0  0  0  0  0  0  0
    5.6797   -7.9894    2.4723 C   0  0  0  0  0  0  0  0  0  0  0  0
    4.5791   -6.9024    2.4872 C   0  0  1  0  0  0  0  0  0  0  0  0
    3.9090   -6.9250    3.3675 H   0  0  0  0  0  0  0  0  0  0  0  0
    5.1591   -5.6228    2.5580 O   0  0  0  0  0  0  0  0  0  0  0  0
    0.8710   -2.9781   -3.9721 O   0  0  0  0  0  0  0  0  0  0  0  0
   -1.5604   -2.7615   -2.5655 C   0  0  0  0  0  0  0  0  0  0  0  0
   -2.1997   -3.6757   -2.0872 O   0  0  0  0  0  0  0  0  0  0  0  0
   -1.9673   -2.1349   -3.7271 N   0  0  0  0  0  0  0  0  0  0  0  0
   -3.0308   -2.7443   -4.5074 C   0  0  1  0  0  0  0  0  0  0  0  0
   -3.8302   -3.1208   -3.8071 H   0  0  0  0  0  0  0  0  0  0  0  0
   -3.6259   -1.8083   -5.5229 C   0  0  0  0  0  0  0  0  0  0  0  0
   -3.7589   -2.4440   -6.7705 C   0  0  0  0  0  0  0  0  0  0  0  0
   -4.3131   -1.7714   -7.8453 C   0  0  0  0  0  0  0  0  0  0  0  0
   -4.7321   -0.4479   -7.6629 C   0  0  0  0  0  0  0  0  0  0  0  0
   -4.5952    0.1803   -6.4280 C   0  0  0  0  0  0  0  0  0  0  0  0
   -4.0398   -0.5023   -5.3392 C   0  0  0  0  0  0  0  0  0  0  0  0
   -3.2389   -3.8460   -6.7310 C   0  0  0  0  0  0  0  0  0  0  0  0
   -2.5041   -3.9581   -5.3740 C   0  0  1  0  0  0  0  0  0  0  0  0
   -2.6256   -4.9298   -4.8571 H   0  0  0  0  0  0  0  0  0  0  0  0
   -1.1150   -3.8774   -5.5624 O   0  0  0  0  0  0  0  0  0  0  0  0
    1.9334   -0.0048   -0.9492 H   0  0  0  0  0  0  0  0  0  0  0  0
    3.1800    0.0051    1.2068 H   0  0  0  0  0  0  0  0  0  0  0  0
    1.9370    0.0106    3.3566 H   0  0  0  0  0  0  0  0  0  0  0  0
   -0.5437   -0.0009    3.3554 H   0  0  0  0  0  0  0  0  0  0  0  0
   -1.7874   -0.0144    1.2118 H   0  0  0  0  0  0  0  0  0  0  0  0
   -0.6531    0.9828   -1.8195 H   0  0  0  0  0  0  0  0  0  0  0  0
   -1.8041   -0.2610   -1.2073 H   0  0  0  0  0  0  0  0  0  0  0  0
    1.7308   -4.9594   -2.7246 H   0  0  0  0  0  0  0  0  0  0  0  0
    0.1766   -4.8700   -1.9022 H   0  0  0  0  0  0  0  0  0  0  0  0
    0.4779   -2.5980    1.7038 H   0  0  0  0  0  0  0  0  0  0  0  0
    2.2325   -2.7709    1.3664 H   0  0  0  0  0  0  0  0  0  0  0  0
    2.8405   -3.3687    3.7149 H   0  0  0  0  0  0  0  0  0  0  0  0
    2.9264   -5.1299    5.4507 H   0  0  0  0  0  0  0  0  0  0  0  0
    1.5003   -7.1517    5.2462 H   0  0  0  0  0  0  0  0  0  0  0  0
   -0.0290   -7.4015    3.3049 H   0  0  0  0  0  0  0  0  0  0  0  0
   -0.1309   -5.6277    1.5642 H   0  0  0  0  0  0  0  0  0  0  0  0
    3.7141   -4.9714    1.1122 H   0  0  0  0  0  0  0  0  0  0  0  0
    7.7009   -9.4325    1.0170 H   0  0  0  0  0  0  0  0  0  0  0  0
    7.6603   -9.7561   -1.4449 H   0  0  0  0  0  0  0  0  0  0  0  0
    5.8081   -8.8327   -2.8041 H   0  0  0  0  0  0  0  0  0  0  0  0
    3.9504   -7.5700   -1.7155 H   0  0  0  0  0  0  0  0  0  0  0  0
    5.3693   -8.8835    3.0441 H   0  0  0  0  0  0  0  0  0  0  0  0
    6.6042   -7.6268    2.9554 H   0  0  0  0  0  0  0  0  0  0  0  0
    5.8883   -5.5327    1.9070 H   0  0  0  0  0  0  0  0  0  0  0  0
    0.1011   -3.4872   -4.3079 H   0  0  0  0  0  0  0  0  0  0  0  0
   -1.3806   -1.4404   -4.1701 H   0  0  0  0  0  0  0  0  0  0  0  0
   -4.4236   -2.2544   -8.8121 H   0  0  0  0  0  0  0  0  0  0  0  0
   -5.1700    0.0944   -8.4997 H   0  0  0  0  0  0  0  0  0  0  0  0
   -4.9231    1.2105   -6.3046 H   0  0  0  0  0  0  0  0  0  0  0  0
   -3.9382   -0.0158   -4.3713 H   0  0  0  0  0  0  0  0  0  0  0  0
   -4.0602   -4.5838   -6.8037 H   0  0  0  0  0  0  0  0  0  0  0  0
   -2.5582   -4.0748   -7.5720 H   0  0  0  0  0  0  0  0  0  0  0  0
   -0.8686   -3.1029   -6.1142 H   0  0  0  0  0  0  0  0  0  0  0  0
  1  6  1  0  0  0  0
  2  1  2  0  0  0  0
  2  3  1  0  0  0  0
  3 56  1  0  0  0  0
  3  4  2  0  0  0  0
  4 57  1  0  0  0  0
  5  4  1  0  0  0  0
  5 58  1  0  0  0  0
  6 59  1  0  0  0  0
  6  5  2  0  0  0  0
  7 61  1  0  0  0  0
  7  1  1  0  0  0  0
  8  9  1  0  0  0  0
  8  7  1  0  0  0  0
  9 10  1  1  0  0  0
 11 12  1  1  0  0  0
 11 13  1  0  0  0  0
 11  9  1  0  0  0  0
 13 63  1  0  0  0  0
 13 14  1  0  0  0  0
 14 15  1  6  0  0  0
 14 24  1  0  0  0  0
 14 16  1  0  0  0  0
 16 17  1  0  0  0  0
 17 64  1  0  0  0  0
 17 18  1  0  0  0  0
 18 19  1  0  0  0  0
 19 66  1  0  0  0  0
 19 20  2  0  0  0  0
 20 67  1  0  0  0  0
 21 20  1  0  0  0  0
 21 68  1  0  0  0  0
 22 21  2  0  0  0  0
 23 18  2  0  0  0  0
 23 22  1  0  0  0  0
 24 26  1  0  0  0  0
 25 24  2  0  0  0  0
 26 71  1  0  0  0  0
 26 27  1  0  0  0  0
 27 28  1  1  0  0  0
 27 36  1  0  0  0  0
 29 30  2  0  0  0  0
 29 27  1  0  0  0  0
 30 35  1  0  0  0  0
 31 72  1  0  0  0  0
 31 30  1  0  0  0  0
 32 31  2  0  0  0  0
 33 34  2  0  0  0  0
 33 32  1  0  0  0  0
 34 29  1  0  0  0  0
 35 36  1  0  0  0  0
 35 77  1  0  0  0  0
 35 76  1  0  0  0  0
 36 38  1  0  0  0  0
 36 37  1  1  0  0  0
 39 11  1  0  0  0  0
 40 41  2  0  0  0  0
 40  9  1  0  0  0  0
 42 40  1  0  0  0  0
 43 52  1  0  0  0  0
 43 44  1  1  0  0  0
 43 42  1  0  0  0  0
 45 50  1  0  0  0  0
 45 43  1  0  0  0  0
 46 51  1  0  0  0  0
 46 45  2  0  0  0  0
 47 48  2  0  0  0  0
 47 46  1  0  0  0  0
 48 49  1  0  0  0  0
 49 83  1  0  0  0  0
 49 50  2  0  0  0  0
 50 84  1  0  0  0  0
 51 52  1  0  0  0  0
 52 53  1  1  0  0  0
 54 52  1  0  0  0  0
 55  2  1  0  0  0  0
 60  7  1  0  0  0  0
 62 13  1  0  0  0  0
 65 17  1  0  0  0  0
 69 22  1  0  0  0  0
 70 23  1  0  0  0  0
 73 32  1  0  0  0  0
 74 33  1  0  0  0  0
 75 34  1  0  0  0  0
 78 38  1  0  0  0  0
 79 39  1  0  0  0  0
 80 42  1  0  0  0  0
 81 47  1  0  0  0  0
 82 48  1  0  0  0  0
 85 51  1  0  0  0  0
 86 51  1  0  0  0  0
 87 54  1  0  0  0  0
M  END
$$$$
