87

C         -0.35250       -0.95310       -0.48630
C          0.67150       -1.87810       -0.23330
C          0.42170       -3.02780        0.51570
C         -0.86140       -3.27160        1.02040
C         -1.88950       -2.36140        0.76360
C         -1.63490       -1.20980        0.01110
C         -0.05860        0.29310       -1.29590
O          0.71050        0.01150       -2.46100
C          0.02390       -0.37000       -3.64360
H          0.78530       -0.86850       -4.25920
C         -0.50610        0.84010       -4.43640
H          0.33440        1.55450       -4.48680
C         -0.92620        0.48850       -5.87420
C          0.20220        0.01440       -6.78440
H          1.08670        0.64810       -6.59200
O          0.67980       -1.30620       -6.54050
C         -0.24870       -2.36320       -6.68490
C          0.43990       -3.68290       -6.44550
C         -0.31240       -4.86600       -6.49880
C          0.29420       -6.10160       -6.26340
C          1.66270       -6.17180       -5.97310
C          2.41410       -4.99580       -5.91830
C          1.80700       -3.75800       -6.15350
C         -0.12060        0.22950       -8.28050
O         -0.89830        1.08800       -8.66710
N          0.58060       -0.57990       -9.11000
C          0.46270       -0.53810      -10.54650
H         -0.59570       -0.34740      -10.79710
C          1.32880        0.48190      -11.26720
C          1.83130       -0.07210      -12.45460
C          2.65230        0.68490      -13.29100
C          2.95950        2.00140      -12.92610
C          2.44620        2.55310      -11.74530
C          1.62110        1.79570      -10.90550
C          1.32840       -1.49190      -12.61490
C          0.94050       -1.87770      -11.17480
H          0.16600       -2.65590      -11.12420
O          2.04900       -2.39200      -10.45300
O         -1.55490        1.49980       -3.76110
C         -1.10010       -1.38360       -3.36630
O         -2.27740       -1.03500       -3.21970
N         -0.71070       -2.66490       -3.28560
C         -1.58410       -3.74420       -2.87270
H         -2.20010       -3.38260       -2.03170
C         -2.47980       -4.31380       -3.95690
C         -2.45960       -5.71450       -3.91950
C         -3.19320       -6.45390       -4.84810
C         -3.95310       -5.77580       -5.80880
C         -3.99330       -4.37510       -5.82500
C         -3.26040       -3.63260       -4.89190
C         -1.59250       -6.19770       -2.78030
C         -0.72530       -4.97170       -2.42530
H         -0.49850       -4.90740       -1.35400
O          0.52770       -4.98690       -3.08060
H          1.66490       -1.69380       -0.64840
H          1.22860       -3.74040        0.70420
H         -1.05860       -4.17180        1.60790
H         -2.89670       -2.55020        1.14340
H         -2.44580       -0.51290       -0.21260
H          0.56840        0.97840       -0.70190
H         -0.98300        0.82940       -1.54990
H         -1.33960        1.40100       -6.32430
H         -1.75430       -0.23830       -5.86220
H         -0.69510       -2.35510       -7.69710
H         -1.08150       -2.26300       -5.97020
H         -1.38200       -4.82240       -6.71170
H         -0.30980       -7.01090       -6.30000
H          2.13570       -7.13760       -5.78220
H          3.48020       -5.03920       -5.68410
H          2.38870       -2.83750       -6.10760
H          1.23800       -1.25040       -8.72140
H          3.05330        0.25890      -14.21460
H          3.60560        2.60450      -13.56880
H          2.69070        3.58430      -11.47910
H          1.19970        2.22230       -9.99330
H          0.43930       -1.51600      -13.27000
H          2.06460       -2.19430      -13.03490
H          2.80210       -1.80230      -10.61030
H         -2.19530        0.79510       -3.54110
H          0.26820       -2.92120       -3.39530
H         -3.17320       -7.54690       -4.83080
H         -4.52590       -6.34300       -6.54650
H         -4.60420       -3.85900       -6.56950
H         -3.30030       -2.54280       -4.87770
H         -2.22010       -6.48510       -1.91830
H         -0.96440       -7.06830       -3.02560
H          0.40790       -5.26510       -4.00320
