
     RDKit          3D

 87 92  0  0  0  0  0  0  0  0999 V2000
   -0.7067   -0.2106    0.1447 C   0  0  0  0  0  0  0  0  0  0  0  0
    0.5439    0.4221    0.1659 C   0  0  0  0  0  0  0  0  0  0  0  0
    1.3306    0.4057    1.3200 C   0  0  0  0  0  0  0  0  0  0  0  0
    0.8683   -0.2358    2.4723 C   0  0  0  0  0  0  0  0  0  0  0  0
   -0.3752   -0.8749    2.4604 C   0  0  0  0  0  0  0  0  0  0  0  0
   -1.1526   -0.8655    1.3015 C   0  0  0  0  0  0  0  0  0  0  0  0
   -1.5635   -0.2014   -1.1005 C   0  0  0  0  0  0  0  0  0  0  0  0
   -1.3507   -1.2962   -1.9856 O   0  0  0  0  0  0  0  0  0  0  0  0
   -0.1831   -1.2330   -2.7821 C   0  0  2  0  0  0  0  0  0  0  0  0
    0.0840   -0.1826   -2.9929 H   0  0  0  0  0  0  0  0  0  0  0  0
   -0.5155   -1.9609   -4.1229 C   0  0  1  0  0  0  0  0  0  0  0  0
   -1.6093   -1.8647   -4.2022 H   0  0  0  0  0  0  0  0  0  0  0  0
    0.1001   -1.3231   -5.3740 C   0  0  0  0  0  0  0  0  0  0  0  0
    1.6280   -1.3470   -5.4565 C   0  0  1  0  0  0  0  0  0  0  0  0
    2.0629   -0.7074   -4.6730 H   0  0  0  0  0  0  0  0  0  0  0  0
    2.0657   -2.6927   -5.2646 O   0  0  0  0  0  0  0  0  0  0  0  0
    3.4406   -2.8259   -4.8896 C   0  0  0  0  0  0  0  0  0  0  0  0
    3.7065   -4.2600   -4.5245 C   0  0  0  0  0  0  0  0  0  0  0  0
    3.2868   -5.3049   -5.3623 C   0  0  0  0  0  0  0  0  0  0  0  0
    3.5151   -6.6340   -5.0002 C   0  0  0  0  0  0  0  0  0  0  0  0
    4.1780   -6.9343   -3.8055 C   0  0  0  0  0  0  0  0  0  0  0  0
    4.6112   -5.8986   -2.9741 C   0  0  0  0  0  0  0  0  0  0  0  0
    4.3686   -4.5691   -3.3295 C   0  0  0  0  0  0  0  0  0  0  0  0
    2.0762   -0.7986   -6.8192 C   0  0  0  0  0  0  0  0  0  0  0  0
    2.1084    0.3997   -7.0525 O   0  0  0  0  0  0  0  0  0  0  0  0
    2.3797   -1.7716   -7.7089 N   0  0  0  0  0  0  0  0  0  0  0  0
    2.8647   -1.5504   -9.0468 C   0  0  1  0  0  0  0  0  0  0  0  0
    2.2702   -0.7446   -9.5131 H   0  0  0  0  0  0  0  0  0  0  0  0
    4.3434   -1.2198   -9.1775 C   0  0  0  0  0  0  0  0  0  0  0  0
    4.8865   -1.8871  -10.2864 C   0  0  0  0  0  0  0  0  0  0  0  0
    6.2363   -1.7372  -10.6057 C   0  0  0  0  0  0  0  0  0  0  0  0
    7.0331   -0.9103   -9.8044 C   0  0  0  0  0  0  0  0  0  0  0  0
    6.4844   -0.2394   -8.7042 C   0  0  0  0  0  0  0  0  0  0  0  0
    5.1296   -0.3865   -8.3829 C   0  0  0  0  0  0  0  0  0  0  0  0
    3.8106   -2.6969  -10.9795 C   0  0  0  0  0  0  0  0  0  0  0  0
    2.7506   -2.8634   -9.8753 C   0  0  1  0  0  0  0  0  0  0  0  0
    1.7344   -3.0204  -10.2626 H   0  0  0  0  0  0  0  0  0  0  0  0
    3.0254   -3.9901   -9.0527 O   0  0  0  0  0  0  0  0  0  0  0  0
   -0.2347   -3.3524   -4.0832 O   0  0  0  0  0  0  0  0  0  0  0  0
    1.0268   -1.9045   -2.1182 C   0  0  0  0  0  0  0  0  0  0  0  0
    2.1718   -1.6042   -2.4407 O   0  0  0  0  0  0  0  0  0  0  0  0
    0.6975   -2.8899   -1.2601 N   0  0  0  0  0  0  0  0  0  0  0  0
    1.5603   -4.0139   -0.9778 C   0  0  1  0  0  0  0  0  0  0  0  0
    2.5792   -3.7127   -1.2626 H   0  0  0  0  0  0  0  0  0  0  0  0
    1.5190   -4.4901    0.4541 C   0  0  0  0  0  0  0  0  0  0  0  0
    1.4626   -5.8885    0.5072 C   0  0  0  0  0  0  0  0  0  0  0  0
    1.4274   -6.5375    1.7421 C   0  0  0  0  0  0  0  0  0  0  0  0
    1.4428   -5.7729    2.9155 C   0  0  0  0  0  0  0  0  0  0  0  0
    1.4959   -4.3746    2.8539 C   0  0  0  0  0  0  0  0  0  0  0  0
    1.5356   -3.7232    1.6161 C   0  0  0  0  0  0  0  0  0  0  0  0
    1.4611   -6.4718   -0.8862 C   0  0  0  0  0  0  0  0  0  0  0  0
    1.1165   -5.2813   -1.8003 C   0  0  1  0  0  0  0  0  0  0  0  0
    1.6677   -5.3281   -2.7540 H   0  0  0  0  0  0  0  0  0  0  0  0
   -0.2742   -5.2682   -2.0240 O   0  0  0  0  0  0  0  0  0  0  0  0
    0.9100    0.9321   -0.7289 H   0  0  0  0  0  0  0  0  0  0  0  0
    2.3047    0.9000    1.3206 H   0  0  0  0  0  0  0  0  0  0  0  0
    1.4796   -0.2435    3.3778 H   0  0  0  0  0  0  0  0  0  0  0  0
   -0.7363   -1.3882    3.3544 H   0  0  0  0  0  0  0  0  0  0  0  0
   -2.1233   -1.3688    1.2932 H   0  0  0  0  0  0  0  0  0  0  0  0
   -1.4094    0.7451   -1.6516 H   0  0  0  0  0  0  0  0  0  0  0  0
   -2.6255   -0.2622   -0.8218 H   0  0  0  0  0  0  0  0  0  0  0  0
   -0.2211   -0.2746   -5.4630 H   0  0  0  0  0  0  0  0  0  0  0  0
   -0.3054   -1.8627   -6.2456 H   0  0  0  0  0  0  0  0  0  0  0  0
    3.6422   -2.1705   -4.0315 H   0  0  0  0  0  0  0  0  0  0  0  0
    4.0754   -2.5111   -5.7398 H   0  0  0  0  0  0  0  0  0  0  0  0
    2.7742   -5.0778   -6.3005 H   0  0  0  0  0  0  0  0  0  0  0  0
    3.1747   -7.4403   -5.6543 H   0  0  0  0  0  0  0  0  0  0  0  0
    4.3536   -7.9749   -3.5229 H   0  0  0  0  0  0  0  0  0  0  0  0
    5.1249   -6.1251   -2.0368 H   0  0  0  0  0  0  0  0  0  0  0  0
    4.6832   -3.7583   -2.6682 H   0  0  0  0  0  0  0  0  0  0  0  0
    2.3363   -2.7380   -7.3986 H   0  0  0  0  0  0  0  0  0  0  0  0
    6.6686   -2.2594  -11.4633 H   0  0  0  0  0  0  0  0  0  0  0  0
    8.0934   -0.7882  -10.0389 H   0  0  0  0  0  0  0  0  0  0  0  0
    7.1192    0.4060   -8.0924 H   0  0  0  0  0  0  0  0  0  0  0  0
    4.6875    0.1473   -7.5398 H   0  0  0  0  0  0  0  0  0  0  0  0
    3.3888   -2.1339  -11.8312 H   0  0  0  0  0  0  0  0  0  0  0  0
    4.1473   -3.6715  -11.3650 H   0  0  0  0  0  0  0  0  0  0  0  0
    3.9659   -3.9652   -8.8177 H   0  0  0  0  0  0  0  0  0  0  0  0
    0.6746   -3.4581   -4.4301 H   0  0  0  0  0  0  0  0  0  0  0  0
   -0.2979   -3.0602   -1.1446 H   0  0  0  0  0  0  0  0  0  0  0  0
    1.3770   -7.6284    1.7959 H   0  0  0  0  0  0  0  0  0  0  0  0
    1.4067   -6.2718    3.8874 H   0  0  0  0  0  0  0  0  0  0  0  0
    1.5018   -3.7890    3.7769 H   0  0  0  0  0  0  0  0  0  0  0  0
    1.5652   -2.6350    1.5558 H   0  0  0  0  0  0  0  0  0  0  0  0
    2.4559   -6.8740   -1.1425 H   0  0  0  0  0  0  0  0  0  0  0  0
    0.7271   -7.2796   -1.0252 H   0  0  0  0  0  0  0  0  0  0  0  0
   -0.4431   -4.6494   -2.7607 H   0  0  0  0  0  0  0  0  0  0  0  0
  1  2  2  0
  1  6  1  0
  1  7  1  0
  2  3  1  0
  2 55  1  0
  3  4  2  0
  3 56  1  0
  4  5  1  0
  4 57  1  0
  5  6  2  0
  5 58  1  0
  6 59  1  0
  7  8  1  0
  7 60  1  0
  7 61  1  0
  8  9  1  0
  9 10  1  6
  9 11  1  0
  9 40  1  0
 11 12  1  6
 11 13  1  0
 11 39  1  0
 13 14  1  0
 13 62  1  0
 13 63  1  0
 14 15  1  1
 14 16  1  0
 14 24  1  0
 16 17  1  0
 17 18  1  0
 17 64  1  0
 17 65  1  0
 18 19  2  0
 18 23  1  0
 19 20  1  0
 19 66  1  0
 20 21  2  0
 20 67  1  0
 21 22  1  0
 21 68  1  0
 22 23  2  0
 22 69  1  0
 23 70  1  0
 24 25  2  0
 24 26  1  0
 26 27  1  0
 26 71  1  0
 27 28  1  6
 27 29  1  0
 27 36  1  0
 29 30  1  0
 29 34  2  0
 30 31  2  0
 30 35  1  0
 31 32  1  0
 31 72  1  0
 32 33  2  0
 32 73  1  0
 33 34  1  0
 33 74  1  0
 34 75  1  0
 35 36  1  0
 35 76  1  0
 35 77  1  0
 36 37  1  6
 36 38  1  0
 38 78  1  0
 39 79  1  0
 40 41  2  0
 40 42  1  0
 42 43  1  0
 42 80  1  0
 43 44  1  6
 43 45  1  0
 43 52  1  0
 45 46  1  0
 45 50  2  0
 46 47  2  0
 46 51  1  0
 47 48  1  0
 47 81  1  0
 48 49  2  0
 48 82  1  0
 49 50  1  0
 49 83  1  0
 50 84  1  0
 51 52  1  0
 51 85  1  0
 51 86  1  0
 52 53  1  6
 52 54  1  0
 54 87  1  0
M  END

