rmsd145.gzmat
 OpenBabel08211713413D

 87 92  0  0  1  0  0  0  0  0999 V2000
    0.0000    0.0000    0.0000 C   0  0  0  0  0  0  0  0  0  0  0  0
    1.3963    0.0000    0.0000 C   0  0  0  0  0  0  0  0  0  0  0  0
    2.0900    0.0000    1.2074 C   0  0  0  0  0  0  0  0  0  0  0  0
    1.3909    0.0086    2.4134 C   0  0  0  0  0  0  0  0  0  0  0  0
   -0.0032    0.0114    2.4110 C   0  0  0  0  0  0  0  0  0  0  0  0
   -0.7018    0.0019    1.2053 C   0  0  0  0  0  0  0  0  0  0  0  0
   -0.7307   -0.0091   -1.3080 C   0  0  0  0  0  0  0  0  0  0  0  0
    0.0306   -0.9237   -2.1049 O   0  0  0  0  0  0  0  0  0  0  0  0
   -0.5601   -1.3201   -3.3116 C   0  0  2  0  0  0  0  0  0  0  0  0
    0.2333   -1.9994   -3.7304 H   0  0  0  0  0  0  0  0  0  0  0  0
   -0.7901   -0.1019   -4.2354 C   0  0  1  0  0  0  0  0  0  0  0  0
    0.0099    0.6609   -4.0564 H   0  0  0  0  0  0  0  0  0  0  0  0
   -0.8596   -0.5307   -5.7047 C   0  0  0  0  0  0  0  0  0  0  0  0
   -0.4751    0.6330   -6.6185 C   0  0  1  0  0  0  0  0  0  0  0  0
    0.6117    0.8757   -6.5391 H   0  0  0  0  0  0  0  0  0  0  0  0
   -0.7722    0.1633   -7.9235 O   0  0  0  0  0  0  0  0  0  0  0  0
   -0.3426    1.0263   -8.9657 C   0  0  0  0  0  0  0  0  0  0  0  0
    1.1463    1.1991   -8.9655 C   0  0  0  0  0  0  0  0  0  0  0  0
    1.9659    0.0704   -8.9123 C   0  0  0  0  0  0  0  0  0  0  0  0
    3.3504    0.2168   -8.8923 C   0  0  0  0  0  0  0  0  0  0  0  0
    3.9173    1.4905   -8.9269 C   0  0  0  0  0  0  0  0  0  0  0  0
    3.0984    2.6170   -8.9799 C   0  0  0  0  0  0  0  0  0  0  0  0
    1.7122    2.4737   -8.9982 C   0  0  0  0  0  0  0  0  0  0  0  0
   -1.2862    1.9033   -6.3226 C   0  0  0  0  0  0  0  0  0  0  0  0
   -0.7605    2.9079   -5.8851 O   0  0  0  0  0  0  0  0  0  0  0  0
   -2.6141    1.8643   -6.6649 N   0  0  0  0  0  0  0  0  0  0  0  0
   -3.4634    3.0182   -6.4125 C   0  0  1  0  0  0  0  0  0  0  0  0
   -3.1578    3.5053   -5.4432 H   0  0  0  0  0  0  0  0  0  0  0  0
   -3.4258    4.0487   -7.5169 C   0  0  0  0  0  0  0  0  0  0  0  0
   -4.7254    4.4735   -7.8447 C   0  0  0  0  0  0  0  0  0  0  0  0
   -4.9270    5.4298   -8.8236 C   0  0  0  0  0  0  0  0  0  0  0  0
   -3.8096    5.9567   -9.4828 C   0  0  0  0  0  0  0  0  0  0  0  0
   -2.5236    5.5368   -9.1545 C   0  0  0  0  0  0  0  0  0  0  0  0
   -2.3201    4.5795   -8.1533 C   0  0  0  0  0  0  0  0  0  0  0  0
   -5.7542    3.7666   -7.0196 C   0  0  0  0  0  0  0  0  0  0  0  0
   -4.9819    2.6004   -6.3544 C   0  0  1  0  0  0  0  0  0  0  0  0
   -5.3183    2.3462   -5.3326 H   0  0  0  0  0  0  0  0  0  0  0  0
   -5.1910    1.4078   -7.0659 O   0  0  0  0  0  0  0  0  0  0  0  0
   -1.9547    0.5854   -3.8655 O   0  0  0  0  0  0  0  0  0  0  0  0
   -1.8433   -2.1223   -3.0993 C   0  0  0  0  0  0  0  0  0  0  0  0
   -2.8443   -1.9434   -3.7794 O   0  0  0  0  0  0  0  0  0  0  0  0
   -1.9038   -3.0995   -2.1339 N   0  0  0  0  0  0  0  0  0  0  0  0
   -0.7819   -3.5018   -1.2913 C   0  0  1  0  0  0  0  0  0  0  0  0
   -0.2906   -2.5988   -0.8358 H   0  0  0  0  0  0  0  0  0  0  0  0
   -1.2520   -4.4469   -0.2185 C   0  0  0  0  0  0  0  0  0  0  0  0
   -0.6687   -5.7164   -0.3580 C   0  0  0  0  0  0  0  0  0  0  0  0
   -0.9836   -6.7349    0.5262 C   0  0  0  0  0  0  0  0  0  0  0  0
   -1.8898   -6.4684    1.5584 C   0  0  0  0  0  0  0  0  0  0  0  0
   -2.4548   -5.2036    1.7037 C   0  0  0  0  0  0  0  0  0  0  0  0
   -2.1365   -4.1756    0.8101 C   0  0  0  0  0  0  0  0  0  0  0  0
    0.2693   -5.7731   -1.5184 C   0  0  0  0  0  0  0  0  0  0  0  0
    0.2953   -4.3363   -2.0976 C   0  0  1  0  0  0  0  0  0  0  0  0
    1.2967   -3.8634   -2.0278 H   0  0  0  0  0  0  0  0  0  0  0  0
    0.0495   -4.3327   -3.4722 O   0  0  0  0  0  0  0  0  0  0  0  0
    1.9384   -0.0030   -0.9462 H   0  0  0  0  0  0  0  0  0  0  0  0
    3.1778   -0.0038    1.2091 H   0  0  0  0  0  0  0  0  0  0  0  0
    1.9333    0.0141    3.3561 H   0  0  0  0  0  0  0  0  0  0  0  0
   -0.5461    0.0188    3.3537 H   0  0  0  0  0  0  0  0  0  0  0  0
   -1.7896   -0.0020    1.2079 H   0  0  0  0  0  0  0  0  0  0  0  0
   -0.7239    0.9867   -1.7988 H   0  0  0  0  0  0  0  0  0  0  0  0
   -1.7776   -0.3504   -1.2255 H   0  0  0  0  0  0  0  0  0  0  0  0
   -1.8820   -0.8991   -5.9446 H   0  0  0  0  0  0  0  0  0  0  0  0
   -0.1973   -1.3929   -5.9159 H   0  0  0  0  0  0  0  0  0  0  0  0
   -0.8893    1.9869   -8.8977 H   0  0  0  0  0  0  0  0  0  0  0  0
   -0.6948    0.4803   -9.8661 H   0  0  0  0  0  0  0  0  0  0  0  0
    1.5157   -0.9214   -8.8788 H   0  0  0  0  0  0  0  0  0  0  0  0
    3.9901   -0.6618   -8.8491 H   0  0  0  0  0  0  0  0  0  0  0  0
    4.9990    1.6041   -8.9101 H   0  0  0  0  0  0  0  0  0  0  0  0
    3.5413    3.6107   -9.0011 H   0  0  0  0  0  0  0  0  0  0  0  0
    1.0766    3.3581   -9.0254 H   0  0  0  0  0  0  0  0  0  0  0  0
   -3.0677    1.0094   -6.9612 H   0  0  0  0  0  0  0  0  0  0  0  0
   -5.9265    5.7668   -9.0801 H   0  0  0  0  0  0  0  0  0  0  0  0
   -3.9527    6.7055  -10.2593 H   0  0  0  0  0  0  0  0  0  0  0  0
   -1.6662    5.9576   -9.6761 H   0  0  0  0  0  0  0  0  0  0  0  0
   -1.3136    4.2690   -7.8688 H   0  0  0  0  0  0  0  0  0  0  0  0
   -6.1952    4.4405   -6.2622 H   0  0  0  0  0  0  0  0  0  0  0  0
   -6.6036    3.3907   -7.6180 H   0  0  0  0  0  0  0  0  0  0  0  0
   -5.0678    1.5436   -8.0303 H   0  0  0  0  0  0  0  0  0  0  0  0
   -2.7503    0.0123   -4.0015 H   0  0  0  0  0  0  0  0  0  0  0  0
   -2.7668   -3.6245   -2.0293 H   0  0  0  0  0  0  0  0  0  0  0  0
   -0.5396   -7.7209    0.4247 H   0  0  0  0  0  0  0  0  0  0  0  0
   -2.1540   -7.2618    2.2562 H   0  0  0  0  0  0  0  0  0  0  0  0
   -3.1493   -5.0107    2.5190 H   0  0  0  0  0  0  0  0  0  0  0  0
   -2.5748   -3.1864    0.9257 H   0  0  0  0  0  0  0  0  0  0  0  0
    1.2803   -6.1023   -1.2183 H   0  0  0  0  0  0  0  0  0  0  0  0
   -0.0619   -6.5007   -2.2838 H   0  0  0  0  0  0  0  0  0  0  0  0
   -0.8401   -4.6862   -3.6870 H   0  0  0  0  0  0  0  0  0  0  0  0
  1  2  2  0  0  0  0
  1  6  1  0  0  0  0
  2  3  1  0  0  0  0
  3 56  1  0  0  0  0
  3  4  2  0  0  0  0
  4 57  1  0  0  0  0
  5  4  1  0  0  0  0
  5 58  1  0  0  0  0
  6 59  1  0  0  0  0
  6  5  2  0  0  0  0
  7 61  1  0  0  0  0
  7  1  1  0  0  0  0
  8  7  1  0  0  0  0
  9 10  1  6  0  0  0
  9 40  1  0  0  0  0
  9  8  1  0  0  0  0
 11 12  1  1  0  0  0
 11 39  1  0  0  0  0
 11  9  1  0  0  0  0
 13 11  1  0  0  0  0
 14 15  1  1  0  0  0
 14 24  1  0  0  0  0
 14 13  1  0  0  0  0
 16 14  1  0  0  0  0
 17 18  1  0  0  0  0
 17 64  1  0  0  0  0
 17 16  1  0  0  0  0
 18 19  2  0  0  0  0
 19 20  1  0  0  0  0
 19 66  1  0  0  0  0
 20 67  1  0  0  0  0
 21 68  1  0  0  0  0
 21 20  2  0  0  0  0
 22 21  1  0  0  0  0
 23 22  2  0  0  0  0
 23 18  1  0  0  0  0
 24 25  2  0  0  0  0
 26 27  1  0  0  0  0
 26 24  1  0  0  0  0
 27 36  1  0  0  0  0
 27 28  1  1  0  0  0
 29 27  1  0  0  0  0
 30 29  1  0  0  0  0
 30 35  1  0  0  0  0
 31 30  2  0  0  0  0
 32 33  2  0  0  0  0
 32 31  1  0  0  0  0
 33 34  1  0  0  0  0
 34 75  1  0  0  0  0
 34 29  2  0  0  0  0
 35 36  1  0  0  0  0
 35 76  1  0  0  0  0
 36 37  1  1  0  0  0
 38 36  1  0  0  0  0
 40 42  1  0  0  0  0
 41 40  2  0  0  0  0
 42 80  1  0  0  0  0
 42 43  1  0  0  0  0
 43 52  1  0  0  0  0
 43 44  1  1  0  0  0
 43 45  1  0  0  0  0
 45 50  1  0  0  0  0
 46 45  2  0  0  0  0
 46 47  1  0  0  0  0
 47 48  2  0  0  0  0
 48 49  1  0  0  0  0
 48 82  1  0  0  0  0
 49 83  1  0  0  0  0
 50 84  1  0  0  0  0
 50 49  2  0  0  0  0
 51 85  1  0  0  0  0
 51 46  1  0  0  0  0
 52 53  1  1  0  0  0
 52 51  1  0  0  0  0
 54 52  1  0  0  0  0
 55  2  1  0  0  0  0
 60  7  1  0  0  0  0
 62 13  1  0  0  0  0
 63 13  1  0  0  0  0
 65 17  1  0  0  0  0
 69 22  1  0  0  0  0
 70 23  1  0  0  0  0
 71 26  1  0  0  0  0
 72 31  1  0  0  0  0
 73 32  1  0  0  0  0
 74 33  1  0  0  0  0
 77 35  1  0  0  0  0
 78 38  1  0  0  0  0
 79 39  1  0  0  0  0
 81 47  1  0  0  0  0
 86 51  1  0  0  0  0
 87 54  1  0  0  0  0
M  END
$$$$
