rmsd244.gzmat
 OpenBabel08211713413D

 87 92  0  0  1  0  0  0  0  0999 V2000
    0.0000    0.0000    0.0000 C   0  0  0  0  0  0  0  0  0  0  0  0
    1.3948    0.0000    0.0000 C   0  0  0  0  0  0  0  0  0  0  0  0
    2.0887    0.0000    1.2087 C   0  0  0  0  0  0  0  0  0  0  0  0
    1.3928    0.0063    2.4155 C   0  0  0  0  0  0  0  0  0  0  0  0
   -0.0015    0.0183    2.4138 C   0  0  0  0  0  0  0  0  0  0  0  0
   -0.6990    0.0129    1.2088 C   0  0  0  0  0  0  0  0  0  0  0  0
   -0.7791   -0.0138   -1.2803 C   0  0  0  0  0  0  0  0  0  0  0  0
    0.1786   -0.1415   -2.3298 O   0  0  0  0  0  0  0  0  0  0  0  0
   -0.2448   -0.8397   -3.4656 C   0  0  2  0  0  0  0  0  0  0  0  0
    0.6620   -0.7186   -4.1232 H   0  0  0  0  0  0  0  0  0  0  0  0
   -1.4776   -0.2141   -4.1496 C   0  0  1  0  0  0  0  0  0  0  0  0
   -1.4160    0.8984   -4.1148 H   0  0  0  0  0  0  0  0  0  0  0  0
   -1.6403   -0.7458   -5.5841 C   0  0  0  0  0  0  0  0  0  0  0  0
   -0.5684   -0.2246   -6.5336 C   0  0  1  0  0  0  0  0  0  0  0  0
   -0.4701    0.8846   -6.4895 H   0  0  0  0  0  0  0  0  0  0  0  0
    0.6381   -0.8586   -6.1372 O   0  0  0  0  0  0  0  0  0  0  0  0
    1.8268   -0.2564   -6.6306 C   0  0  0  0  0  0  0  0  0  0  0  0
    2.0018    1.1247   -6.0751 C   0  0  0  0  0  0  0  0  0  0  0  0
    2.2747    1.2987   -4.7177 C   0  0  0  0  0  0  0  0  0  0  0  0
    2.3796    2.5825   -4.1870 C   0  0  0  0  0  0  0  0  0  0  0  0
    2.2279    3.6935   -5.0151 C   0  0  0  0  0  0  0  0  0  0  0  0
    1.9731    3.5201   -6.3746 C   0  0  0  0  0  0  0  0  0  0  0  0
    1.8568    2.2370   -6.9053 C   0  0  0  0  0  0  0  0  0  0  0  0
   -0.8877   -0.6569   -7.9735 C   0  0  0  0  0  0  0  0  0  0  0  0
   -1.4349    0.0811   -8.7672 O   0  0  0  0  0  0  0  0  0  0  0  0
   -0.4960   -1.9312   -8.2980 N   0  0  0  0  0  0  0  0  0  0  0  0
   -0.6199   -2.4256   -9.6588 C   0  0  1  0  0  0  0  0  0  0  0  0
   -1.6150   -2.1110  -10.0802 H   0  0  0  0  0  0  0  0  0  0  0  0
    0.4816   -1.9630  -10.5857 C   0  0  0  0  0  0  0  0  0  0  0  0
    0.9577   -3.0335  -11.3635 C   0  0  0  0  0  0  0  0  0  0  0  0
    1.9667   -2.8370  -12.2891 C   0  0  0  0  0  0  0  0  0  0  0  0
    2.5060   -1.5517  -12.4263 C   0  0  0  0  0  0  0  0  0  0  0  0
    2.0265   -0.4918  -11.6621 C   0  0  0  0  0  0  0  0  0  0  0  0
    0.9963   -0.6897  -10.7352 C   0  0  0  0  0  0  0  0  0  0  0  0
    0.2432   -4.3056  -11.0296 C   0  0  0  0  0  0  0  0  0  0  0  0
   -0.4823   -3.9959   -9.6976 C   0  0  1  0  0  0  0  0  0  0  0  0
   -1.4456   -4.5188   -9.5573 H   0  0  0  0  0  0  0  0  0  0  0  0
    0.2883   -4.4436   -8.6121 O   0  0  0  0  0  0  0  0  0  0  0  0
   -2.6472   -0.4943   -3.4249 O   0  0  0  0  0  0  0  0  0  0  0  0
   -0.4547   -2.3241   -3.1532 C   0  0  0  0  0  0  0  0  0  0  0  0
   -1.4937   -2.9220   -3.3917 O   0  0  0  0  0  0  0  0  0  0  0  0
    0.6369   -2.9678   -2.6414 N   0  0  0  0  0  0  0  0  0  0  0  0
    0.6012   -4.4051   -2.4001 C   0  0  1  0  0  0  0  0  0  0  0  0
   -0.3897   -4.6900   -1.9505 H   0  0  0  0  0  0  0  0  0  0  0  0
    0.8375   -5.2281   -3.6459 C   0  0  0  0  0  0  0  0  0  0  0  0
    1.7748   -6.2461   -3.3983 C   0  0  0  0  0  0  0  0  0  0  0  0
    2.1404   -7.1271   -4.3999 C   0  0  0  0  0  0  0  0  0  0  0  0
    1.5463   -6.9886   -5.6603 C   0  0  0  0  0  0  0  0  0  0  0  0
    0.6056   -5.9911   -5.8990 C   0  0  0  0  0  0  0  0  0  0  0  0
    0.2408   -5.0974   -4.8857 C   0  0  0  0  0  0  0  0  0  0  0  0
    2.2610   -6.2077   -1.9836 C   0  0  0  0  0  0  0  0  0  0  0  0
    1.7815   -4.8377   -1.4470 C   0  0  1  0  0  0  0  0  0  0  0  0
    1.4990   -4.8327   -0.3782 H   0  0  0  0  0  0  0  0  0  0  0  0
    2.8236   -3.8965   -1.5097 O   0  0  0  0  0  0  0  0  0  0  0  0
    1.9458   -0.0007   -0.9399 H   0  0  0  0  0  0  0  0  0  0  0  0
    3.1769   -0.0067    1.2087 H   0  0  0  0  0  0  0  0  0  0  0  0
    1.9359    0.0010    3.3570 H   0  0  0  0  0  0  0  0  0  0  0  0
   -0.5453    0.0308    3.3561 H   0  0  0  0  0  0  0  0  0  0  0  0
   -1.7869    0.0187    1.2109 H   0  0  0  0  0  0  0  0  0  0  0  0
   -1.3158    0.9403   -1.4568 H   0  0  0  0  0  0  0  0  0  0  0  0
   -1.5192   -0.8372   -1.3037 H   0  0  0  0  0  0  0  0  0  0  0  0
   -2.6464   -0.4513   -5.9577 H   0  0  0  0  0  0  0  0  0  0  0  0
   -1.6500   -1.8579   -5.5758 H   0  0  0  0  0  0  0  0  0  0  0  0
    1.8229   -0.2826   -7.7364 H   0  0  0  0  0  0  0  0  0  0  0  0
    2.6001   -0.9631   -6.2634 H   0  0  0  0  0  0  0  0  0  0  0  0
    2.3965    0.4349   -4.0638 H   0  0  0  0  0  0  0  0  0  0  0  0
    2.5748    2.7172   -3.1241 H   0  0  0  0  0  0  0  0  0  0  0  0
    2.3077    4.6959   -4.5999 H   0  0  0  0  0  0  0  0  0  0  0  0
    1.8586    4.3883   -7.0205 H   0  0  0  0  0  0  0  0  0  0  0  0
    1.6469    2.1096   -7.9665 H   0  0  0  0  0  0  0  0  0  0  0  0
   -0.0303   -2.5289   -7.6226 H   0  0  0  0  0  0  0  0  0  0  0  0
    2.3365   -3.6565  -12.8984 H   0  0  0  0  0  0  0  0  0  0  0  0
    3.3086   -1.3834  -13.1426 H   0  0  0  0  0  0  0  0  0  0  0  0
    2.4483    0.5042  -11.7871 H   0  0  0  0  0  0  0  0  0  0  0  0
    0.5993    0.1445  -10.1552 H   0  0  0  0  0  0  0  0  0  0  0  0
   -0.4730   -4.5849  -11.8245 H   0  0  0  0  0  0  0  0  0  0  0  0
    0.9242   -5.1690  -10.9227 H   0  0  0  0  0  0  0  0  0  0  0  0
    1.2291   -4.1807   -8.7068 H   0  0  0  0  0  0  0  0  0  0  0  0
   -2.7645   -1.4768   -3.3525 H   0  0  0  0  0  0  0  0  0  0  0  0
    1.4668   -2.4711   -2.3353 H   0  0  0  0  0  0  0  0  0  0  0  0
    2.8702   -7.9097   -4.2182 H   0  0  0  0  0  0  0  0  0  0  0  0
    1.8216   -7.6736   -6.4598 H   0  0  0  0  0  0  0  0  0  0  0  0
    0.1420   -5.9018   -6.8834 H   0  0  0  0  0  0  0  0  0  0  0  0
   -0.5061   -4.3243   -5.0698 H   0  0  0  0  0  0  0  0  0  0  0  0
    1.8407   -7.0427   -1.3925 H   0  0  0  0  0  0  0  0  0  0  0  0
    3.3580   -6.3064   -1.9018 H   0  0  0  0  0  0  0  0  0  0  0  0
    3.2846   -3.9382   -2.3758 H   0  0  0  0  0  0  0  0  0  0  0  0
  1  2  2  0  0  0  0
  1  6  1  0  0  0  0
  2  3  1  0  0  0  0
  3 56  1  0  0  0  0
  3  4  2  0  0  0  0
  4 57  1  0  0  0  0
  5  4  1  0  0  0  0
  5 58  1  0  0  0  0
  6 59  1  0  0  0  0
  6  5  2  0  0  0  0
  7  1  1  0  0  0  0
  8  7  1  0  0  0  0
  9 10  1  6  0  0  0
  9 40  1  0  0  0  0
  9  8  1  0  0  0  0
 11 12  1  6  0  0  0
 11  9  1  0  0  0  0
 11 39  1  0  0  0  0
 13 63  1  0  0  0  0
 13 11  1  0  0  0  0
 14 15  1  1  0  0  0
 14 16  1  0  0  0  0
 14 13  1  0  0  0  0
 17 65  1  0  0  0  0
 17 16  1  0  0  0  0
 17 18  1  0  0  0  0
 18 19  2  0  0  0  0
 19 20  1  0  0  0  0
 19 66  1  0  0  0  0
 20 67  1  0  0  0  0
 21 68  1  0  0  0  0
 21 20  2  0  0  0  0
 22 21  1  0  0  0  0
 23 22  2  0  0  0  0
 23 18  1  0  0  0  0
 24 14  1  0  0  0  0
 25 24  2  0  0  0  0
 26 24  1  0  0  0  0
 26 71  1  0  0  0  0
 27 36  1  0  0  0  0
 27 26  1  0  0  0  0
 27 28  1  6  0  0  0
 29 27  1  0  0  0  0
 30 35  1  0  0  0  0
 30 29  2  0  0  0  0
 31 30  1  0  0  0  0
 32 31  2  0  0  0  0
 32 33  1  0  0  0  0
 33 34  2  0  0  0  0
 34 29  1  0  0  0  0
 34 75  1  0  0  0  0
 35 77  1  0  0  0  0
 35 36  1  0  0  0  0
 36 37  1  1  0  0  0
 36 38  1  0  0  0  0
 39 79  1  0  0  0  0
 40 42  1  0  0  0  0
 41 40  2  0  0  0  0
 42 43  1  0  0  0  0
 42 80  1  0  0  0  0
 43 44  1  1  0  0  0
 43 52  1  0  0  0  0
 45 46  1  0  0  0  0
 45 43  1  0  0  0  0
 46 51  1  0  0  0  0
 47 81  1  0  0  0  0
 47 46  2  0  0  0  0
 48 47  1  0  0  0  0
 49 48  2  0  0  0  0
 49 50  1  0  0  0  0
 50 45  2  0  0  0  0
 51 86  1  0  0  0  0
 51 52  1  0  0  0  0
 51 85  1  0  0  0  0
 52 53  1  1  0  0  0
 54 52  1  0  0  0  0
 55  2  1  0  0  0  0
 60  7  1  0  0  0  0
 61  7  1  0  0  0  0
 62 13  1  0  0  0  0
 64 17  1  0  0  0  0
 69 22  1  0  0  0  0
 70 23  1  0  0  0  0
 72 31  1  0  0  0  0
 73 32  1  0  0  0  0
 74 33  1  0  0  0  0
 76 35  1  0  0  0  0
 78 38  1  0  0  0  0
 82 48  1  0  0  0  0
 83 49  1  0  0  0  0
 84 50  1  0  0  0  0
 87 54  1  0  0  0  0
M  END
$$$$
