rmsd130.gzmat
 OpenBabel08211713413D

 87 91  0  0  1  0  0  0  0  0999 V2000
    0.0000    0.0000    0.0000 C   0  0  0  0  0  0  0  0  0  0  0  0
    1.3960    0.0000    0.0000 C   0  0  0  0  0  0  0  0  0  0  0  0
    2.0924    0.0000    1.2067 C   0  0  0  0  0  0  0  0  0  0  0  0
    1.3949   -0.0025    2.4142 C   0  0  0  0  0  0  0  0  0  0  0  0
    0.0013    0.0055    2.4140 C   0  0  0  0  0  0  0  0  0  0  0  0
   -0.6972    0.0072    1.2083 C   0  0  0  0  0  0  0  0  0  0  0  0
   -0.7351   -0.0324   -1.3080 C   0  0  0  0  0  0  0  0  0  0  0  0
   -0.2890   -1.1672   -2.0447 O   0  0  0  0  0  0  0  0  0  0  0  0
   -1.0823   -2.3255   -1.9594 C   0  0  2  0  0  0  0  0  0  0  0  0
   -0.4116   -3.0719   -2.4591 H   0  0  0  0  0  0  0  0  0  0  0  0
   -2.3823   -2.1738   -2.7918 C   0  0  1  0  0  0  0  0  0  0  0  0
   -2.1518   -1.5431   -3.6887 H   0  0  0  0  0  0  0  0  0  0  0  0
   -2.9328   -3.5412   -3.2266 C   0  0  0  0  0  0  0  0  0  0  0  0
   -3.5172   -4.3656   -2.0882 C   0  0  1  0  0  0  0  0  0  0  0  0
   -2.8427   -4.3799   -1.1889 H   0  0  0  0  0  0  0  0  0  0  0  0
   -4.6936   -3.8753   -1.4962 O   0  0  0  0  0  0  0  0  0  0  0  0
   -5.7201   -3.3557   -2.3243 C   0  0  0  0  0  0  0  0  0  0  0  0
   -6.4676   -4.4466   -3.0296 C   0  0  0  0  0  0  0  0  0  0  0  0
   -7.4205   -5.1916   -2.3324 C   0  0  0  0  0  0  0  0  0  0  0  0
   -8.1094   -6.2185   -2.9739 C   0  0  0  0  0  0  0  0  0  0  0  0
   -7.8415   -6.5109   -4.3104 C   0  0  0  0  0  0  0  0  0  0  0  0
   -6.8926   -5.7660   -5.0079 C   0  0  0  0  0  0  0  0  0  0  0  0
   -6.2121   -4.7300   -4.3714 C   0  0  0  0  0  0  0  0  0  0  0  0
   -3.7008   -5.8247   -2.5424 C   0  0  0  0  0  0  0  0  0  0  0  0
   -3.0899   -6.2981   -3.4807 O   0  0  0  0  0  0  0  0  0  0  0  0
   -4.4958   -6.5915   -1.7269 N   0  0  0  0  0  0  0  0  0  0  0  0
   -4.7348   -7.9911   -2.0541 C   0  0  1  0  0  0  0  0  0  0  0  0
   -4.7812   -8.1205   -3.1716 H   0  0  0  0  0  0  0  0  0  0  0  0
   -3.6856   -8.9226   -1.4951 C   0  0  0  0  0  0  0  0  0  0  0  0
   -4.2848  -10.0387   -0.8849 C   0  0  0  0  0  0  0  0  0  0  0  0
   -3.5076  -11.0329   -0.3187 C   0  0  0  0  0  0  0  0  0  0  0  0
   -2.1143  -10.9024   -0.3715 C   0  0  0  0  0  0  0  0  0  0  0  0
   -1.5236   -9.8012   -0.9846 C   0  0  0  0  0  0  0  0  0  0  0  0
   -2.3109   -8.7964   -1.5592 C   0  0  0  0  0  0  0  0  0  0  0  0
   -5.7775   -9.9632   -0.9561 C   0  0  0  0  0  0  0  0  0  0  0  0
   -6.0713   -8.5091   -1.3986 C   0  0  1  0  0  0  0  0  0  0  0  0
   -6.9452   -8.3986   -2.0674 H   0  0  0  0  0  0  0  0  0  0  0  0
   -6.4169   -7.7200   -0.2896 O   0  0  0  0  0  0  0  0  0  0  0  0
   -3.3656   -1.4233   -2.1454 O   0  0  0  0  0  0  0  0  0  0  0  0
   -1.3400   -2.6865   -0.4957 C   0  0  0  0  0  0  0  0  0  0  0  0
   -2.2644   -2.2304    0.1571 O   0  0  0  0  0  0  0  0  0  0  0  0
   -0.4736   -3.5952    0.0563 N   0  0  0  0  0  0  0  0  0  0  0  0
   -0.5676   -3.9365    1.4724 C   0  0  1  0  0  0  0  0  0  0  0  0
   -1.3838   -3.3385    1.9602 H   0  0  0  0  0  0  0  0  0  0  0  0
   -0.8036   -5.4128    1.6634 C   0  0  0  0  0  0  0  0  0  0  0  0
    0.2417   -6.0101    2.3856 C   0  0  0  0  0  0  0  0  0  0  0  0
    0.2092   -7.3628    2.6806 C   0  0  0  0  0  0  0  0  0  0  0  0
   -0.8849   -8.1166    2.2418 C   0  0  0  0  0  0  0  0  0  0  0  0
   -1.9209   -7.5208    1.5269 C   0  0  0  0  0  0  0  0  0  0  0  0
   -1.8892   -6.1538    1.2322 C   0  0  0  0  0  0  0  0  0  0  0  0
    1.3034   -5.0246    2.7508 C   0  0  0  0  0  0  0  0  0  0  0  0
    0.8128   -3.6676    2.1960 C   0  0  1  0  0  0  0  0  0  0  0  0
    0.7102   -2.8901    2.9755 H   0  0  0  0  0  0  0  0  0  0  0  0
    1.7935   -3.2668    1.2701 O   0  0  0  0  0  0  0  0  0  0  0  0
    1.9363   -0.0056   -0.9464 H   0  0  0  0  0  0  0  0  0  0  0  0
    3.1810    0.0051    1.2069 H   0  0  0  0  0  0  0  0  0  0  0  0
    1.9401   -0.0070    3.3561 H   0  0  0  0  0  0  0  0  0  0  0  0
   -0.5451    0.0093    3.3554 H   0  0  0  0  0  0  0  0  0  0  0  0
   -1.7893   -0.0082    1.2099 H   0  0  0  0  0  0  0  0  0  0  0  0
   -0.4458    0.8092   -1.9696 H   0  0  0  0  0  0  0  0  0  0  0  0
   -1.8371   -0.0239   -1.1926 H   0  0  0  0  0  0  0  0  0  0  0  0
   -2.1398   -4.1296   -3.7422 H   0  0  0  0  0  0  0  0  0  0  0  0
   -3.7006   -3.3851   -4.0124 H   0  0  0  0  0  0  0  0  0  0  0  0
   -5.3181   -2.5836   -3.0082 H   0  0  0  0  0  0  0  0  0  0  0  0
   -6.3476   -2.8383   -1.5660 H   0  0  0  0  0  0  0  0  0  0  0  0
   -7.6200   -4.9796   -1.2821 H   0  0  0  0  0  0  0  0  0  0  0  0
   -8.8556   -6.7926   -2.4274 H   0  0  0  0  0  0  0  0  0  0  0  0
   -8.3746   -7.3168   -4.8097 H   0  0  0  0  0  0  0  0  0  0  0  0
   -6.6782   -5.9952   -6.0500 H   0  0  0  0  0  0  0  0  0  0  0  0
   -5.4761   -4.1509   -4.9261 H   0  0  0  0  0  0  0  0  0  0  0  0
   -5.1227   -6.1606   -1.0515 H   0  0  0  0  0  0  0  0  0  0  0  0
   -3.9614  -11.8973    0.1556 H   0  0  0  0  0  0  0  0  0  0  0  0
   -1.4888  -11.6747    0.0715 H   0  0  0  0  0  0  0  0  0  0  0  0
   -0.4392   -9.7148   -1.0187 H   0  0  0  0  0  0  0  0  0  0  0  0
   -1.8526   -7.9369   -2.0515 H   0  0  0  0  0  0  0  0  0  0  0  0
   -6.1824  -10.6926   -1.6818 H   0  0  0  0  0  0  0  0  0  0  0  0
   -6.2687  -10.1927    0.0061 H   0  0  0  0  0  0  0  0  0  0  0  0
   -5.7718   -7.8367    0.4421 H   0  0  0  0  0  0  0  0  0  0  0  0
   -3.5431   -1.7855   -1.2368 H   0  0  0  0  0  0  0  0  0  0  0  0
    0.3410   -3.9504   -0.4308 H   0  0  0  0  0  0  0  0  0  0  0  0
    1.0139   -7.8315    3.2380 H   0  0  0  0  0  0  0  0  0  0  0  0
   -0.9242   -9.1820    2.4610 H   0  0  0  0  0  0  0  0  0  0  0  0
   -2.7583   -8.1260    1.1823 H   0  0  0  0  0  0  0  0  0  0  0  0
   -2.7010   -5.6890    0.6764 H   0  0  0  0  0  0  0  0  0  0  0  0
    1.4810   -4.9791    3.8384 H   0  0  0  0  0  0  0  0  0  0  0  0
    2.2810   -5.2877    2.2918 H   0  0  0  0  0  0  0  0  0  0  0  0
    1.6097   -2.3583    0.9355 H   0  0  0  0  0  0  0  0  0  0  0  0
  1  2  2  0  0  0  0
  1  6  1  0  0  0  0
  2  3  1  0  0  0  0
  3 56  1  0  0  0  0
  3  4  2  0  0  0  0
  4 57  1  0  0  0  0
  5  4  1  0  0  0  0
  5 58  1  0  0  0  0
  6 59  1  0  0  0  0
  6  5  2  0  0  0  0
  7 61  1  0  0  0  0
  7  1  1  0  0  0  0
  8  9  1  0  0  0  0
  8  7  1  0  0  0  0
  9 10  1  6  0  0  0
  9 40  1  0  0  0  0
 11 12  1  6  0  0  0
 11 39  1  0  0  0  0
 11  9  1  0  0  0  0
 13 11  1  0  0  0  0
 13 14  1  0  0  0  0
 14 16  1  0  0  0  0
 14 15  1  1  0  0  0
 17 65  1  0  0  0  0
 17 16  1  0  0  0  0
 18 19  2  0  0  0  0
 18 17  1  0  0  0  0
 19 66  1  0  0  0  0
 20 67  1  0  0  0  0
 20 19  1  0  0  0  0
 21 20  2  0  0  0  0
 22 23  2  0  0  0  0
 22 21  1  0  0  0  0
 23 18  1  0  0  0  0
 24 14  1  0  0  0  0
 24 26  1  0  0  0  0
 25 24  2  0  0  0  0
 26 71  1  0  0  0  0
 27 26  1  1  0  0  0
 27 29  1  0  0  0  0
 27 36  1  0  0  0  0
 29 30  1  0  0  0  0
 30 31  2  0  0  0  0
 31 72  1  0  0  0  0
 32 31  1  0  0  0  0
 32 73  1  0  0  0  0
 33 32  2  0  0  0  0
 34 29  2  0  0  0  0
 34 33  1  0  0  0  0
 35 30  1  0  0  0  0
 35 77  1  0  0  0  0
 36 37  1  6  0  0  0
 36 35  1  0  0  0  0
 36 38  1  0  0  0  0
 38 78  1  0  0  0  0
 39 79  1  0  0  0  0
 40 42  1  0  0  0  0
 40 41  2  0  0  0  0
 42 43  1  0  0  0  0
 43 45  1  0  0  0  0
 43 44  1  1  0  0  0
 43 52  1  0  0  0  0
 45 46  2  0  0  0  0
 46 47  1  0  0  0  0
 46 51  1  0  0  0  0
 47 81  1  0  0  0  0
 48 82  1  0  0  0  0
 48 47  2  0  0  0  0
 49 48  1  0  0  0  0
 50 49  2  0  0  0  0
 50 45  1  0  0  0  0
 51 85  1  0  0  0  0
 52 51  1  0  0  0  0
 52 53  1  1  0  0  0
 54 52  1  0  0  0  0
 55  2  1  0  0  0  0
 60  7  1  0  0  0  0
 62 13  1  0  0  0  0
 63 13  1  0  0  0  0
 64 17  1  0  0  0  0
 68 21  1  0  0  0  0
 69 22  1  0  0  0  0
 70 23  1  0  0  0  0
 74 33  1  0  0  0  0
 75 34  1  0  0  0  0
 76 35  1  0  0  0  0
 80 42  1  0  0  0  0
 83 49  1  0  0  0  0
 84 50  1  0  0  0  0
 86 51  1  0  0  0  0
 87 54  1  0  0  0  0
M  RAD  2  27   2  28   2
M  END
$$$$
