87

C         -0.70670       -0.21060        0.14470
C          0.54390        0.42210        0.16590
C          1.33060        0.40570        1.32000
C          0.86830       -0.23580        2.47230
C         -0.37520       -0.87490        2.46040
C         -1.15260       -0.86550        1.30150
C         -1.56350       -0.20140       -1.10050
O         -1.35070       -1.29620       -1.98560
C         -0.18310       -1.23300       -2.78210
H          0.08400       -0.18260       -2.99290
C         -0.51550       -1.96090       -4.12290
H         -1.60930       -1.86470       -4.20220
C          0.10010       -1.32310       -5.37400
C          1.62800       -1.34700       -5.45650
H          2.06290       -0.70740       -4.67300
O          2.06570       -2.69270       -5.26460
C          3.44060       -2.82590       -4.88960
C          3.70650       -4.26000       -4.52450
C          3.28680       -5.30490       -5.36230
C          3.51510       -6.63400       -5.00020
C          4.17800       -6.93430       -3.80550
C          4.61120       -5.89860       -2.97410
C          4.36860       -4.56910       -3.32950
C          2.07620       -0.79860       -6.81920
O          2.10840        0.39970       -7.05250
N          2.37970       -1.77160       -7.70890
C          2.86470       -1.55040       -9.04680
H          2.27020       -0.74460       -9.51310
C          4.34340       -1.21980       -9.17750
C          4.88650       -1.88710      -10.28640
C          6.23630       -1.73720      -10.60570
C          7.03310       -0.91030       -9.80440
C          6.48440       -0.23940       -8.70420
C          5.12960       -0.38650       -8.38290
C          3.81060       -2.69690      -10.97950
C          2.75060       -2.86340       -9.87530
H          1.73440       -3.02040      -10.26260
O          3.02540       -3.99010       -9.05270
O         -0.23470       -3.35240       -4.08320
C          1.02680       -1.90450       -2.11820
O          2.17180       -1.60420       -2.44070
N          0.69750       -2.88990       -1.26010
C          1.56030       -4.01390       -0.97780
H          2.57920       -3.71270       -1.26260
C          1.51900       -4.49010        0.45410
C          1.46260       -5.88850        0.50720
C          1.42740       -6.53750        1.74210
C          1.44280       -5.77290        2.91550
C          1.49590       -4.37460        2.85390
C          1.53560       -3.72320        1.61610
C          1.46110       -6.47180       -0.88620
C          1.11650       -5.28130       -1.80030
H          1.66770       -5.32810       -2.75400
O         -0.27420       -5.26820       -2.02400
H          0.91000        0.93210       -0.72890
H          2.30470        0.90000        1.32060
H          1.47960       -0.24350        3.37780
H         -0.73630       -1.38820        3.35440
H         -2.12330       -1.36880        1.29320
H         -1.40940        0.74510       -1.65160
H         -2.62550       -0.26220       -0.82180
H         -0.22110       -0.27460       -5.46300
H         -0.30540       -1.86270       -6.24560
H          3.64220       -2.17050       -4.03150
H          4.07540       -2.51110       -5.73980
H          2.77420       -5.07780       -6.30050
H          3.17470       -7.44030       -5.65430
H          4.35360       -7.97490       -3.52290
H          5.12490       -6.12510       -2.03680
H          4.68320       -3.75830       -2.66820
H          2.33630       -2.73800       -7.39860
H          6.66860       -2.25940      -11.46330
H          8.09340       -0.78820      -10.03890
H          7.11920        0.40600       -8.09240
H          4.68750        0.14730       -7.53980
H          3.38880       -2.13390      -11.83120
H          4.14730       -3.67150      -11.36500
H          3.96590       -3.96520       -8.81770
H          0.67460       -3.45810       -4.43010
H         -0.29790       -3.06020       -1.14460
H          1.37700       -7.62840        1.79590
H          1.40670       -6.27180        3.88740
H          1.50180       -3.78900        3.77690
H          1.56520       -2.63500        1.55580
H          2.45590       -6.87400       -1.14250
H          0.72710       -7.27960       -1.02520
H         -0.44310       -4.64940       -2.76070
