87

C         -0.15000        0.11200        0.04520
C          1.23530        0.05640        0.25790
C          1.74840       -0.02830        1.55200
C          0.88720       -0.06140        2.65580
C         -0.49520       -0.01900        2.44880
C         -1.00900        0.06400        1.14930
C         -0.68680        0.26750       -1.36350
O          0.09450       -0.42390       -2.31950
C         -0.34340       -1.71130       -2.71070
H         -1.10960       -2.10850       -2.02470
C          0.90540       -2.62560       -2.72270
H          1.73360       -1.97510       -3.02730
C          1.18140       -3.21040       -1.34270
C          2.66990       -3.40530       -1.04260
H          3.14460       -3.99610       -1.84250
O          3.27860       -2.12780       -0.90150
C          4.46800       -1.86940       -1.64220
C          4.15330       -1.32610       -3.01470
C          3.65700       -0.02070       -3.14810
C          3.23670        0.45610       -4.39170
C          3.30810       -0.36790       -5.51930
C          3.81020       -1.66570       -5.39790
C          4.23080       -2.13960       -4.15350
C          2.76230       -4.19760        0.26720
O          2.58030       -5.40250        0.30520
N          2.93430       -3.41330        1.36630
C          2.51870       -3.87690        2.66720
H          3.04230       -4.82500        2.88310
C          2.77050       -2.86860        3.76380
C          1.72100       -2.89550        4.69570
C          1.72840       -2.02360        5.78400
C          2.78810       -1.11780        5.92530
C          3.83150       -1.09180        4.99160
C          3.82980       -1.97420        3.90400
C          0.69870       -3.93360        4.29310
C          0.97640       -4.14190        2.78700
H          0.72830       -5.15230        2.43920
O          0.22810       -3.26360        1.97820
O          0.84010       -3.63580       -3.72570
C         -0.94760       -1.72220       -4.11240
O         -1.78640       -2.55790       -4.42750
N         -0.37650       -0.84800       -4.96870
C         -0.56040       -0.95180       -6.39950
H         -1.64320       -0.90300       -6.61510
C          0.18620        0.12400       -7.14970
C          0.73420       -0.40320       -8.32800
C          1.51030        0.40360       -9.15840
C          1.73620        1.73890       -8.79690
C          1.18190        2.26240       -7.62330
C          0.39710        1.45350       -6.79120
C          0.35930       -1.85970       -8.46620
C         -0.00210       -2.27950       -7.02830
H         -0.77330       -3.06720       -6.99700
O          1.18270       -2.69540       -6.40530
H          1.90440        0.03830       -0.60120
H          2.82880       -0.06840        1.70870
H          1.29500       -0.13200        3.66560
H         -1.17710       -0.06210        3.30120
H         -2.09150        0.08610        0.99540
H         -0.65330        1.33330       -1.64950
H         -1.74510       -0.04350       -1.41100
H          0.66790       -4.17970       -1.24870
H          0.77420       -2.56340       -0.55370
H          5.08700       -2.78080       -1.71130
H          5.02850       -1.12640       -1.05350
H          3.58520        0.62000       -2.26520
H          2.84550        1.47220       -4.48540
H          2.95870       -0.00590       -6.48680
H          3.83270       -2.31940       -6.26980
H          4.60430       -3.16300       -4.06030
H          2.93780       -2.41410        1.18850
H          0.91150       -2.03390        6.51030
H          2.79830       -0.42190        6.76770
H          4.64980       -0.37810        5.11240
H          4.64020       -1.95730        3.17080
H          0.86760       -4.87440        4.84710
H         -0.34450       -3.63070        4.46950
H          0.40280       -2.34790        2.24790
H         -0.01690       -4.08700       -3.66370
H          0.39720       -0.29200       -4.61600
H          1.95230       -0.00180      -10.07220
H          2.35450        2.37560       -9.43430
H          1.36630        3.30500       -7.35330
H         -0.03140        1.85720       -5.87000
H         -0.51380       -1.97110       -9.13300
H          1.16750       -2.49230       -8.86090
H          1.00920       -3.02890       -5.50350
