
     RDKit          3D

 87 92  0  0  0  0  0  0  0  0999 V2000
    0.6309    0.3353   -0.7746 C   0  0  0  0  0  0  0  0  0  0  0  0
    1.9918    0.0762   -0.5502 C   0  0  0  0  0  0  0  0  0  0  0  0
    2.4821   -0.0236    0.7522 C   0  0  0  0  0  0  0  0  0  0  0  0
    1.6211    0.1201    1.8461 C   0  0  0  0  0  0  0  0  0  0  0  0
    0.2621    0.3610    1.6299 C   0  0  0  0  0  0  0  0  0  0  0  0
   -0.2277    0.4677    0.3239 C   0  0  0  0  0  0  0  0  0  0  0  0
    0.1091    0.4421   -2.1913 C   0  0  0  0  0  0  0  0  0  0  0  0
    0.4882   -0.6614   -3.0036 O   0  0  0  0  0  0  0  0  0  0  0  0
   -0.0769   -1.8965   -2.6002 C   0  0  2  0  0  0  0  0  0  0  0  0
   -0.2538   -1.8955   -1.5140 H   0  0  0  0  0  0  0  0  0  0  0  0
    0.8886   -3.0567   -2.9684 C   0  0  1  0  0  0  0  0  0  0  0  0
    1.8726   -2.5981   -3.1269 H   0  0  0  0  0  0  0  0  0  0  0  0
    0.9666   -4.0956   -1.8484 C   0  0  0  0  0  0  0  0  0  0  0  0
    1.6590   -3.5999   -0.5709 C   0  0  1  0  0  0  0  0  0  0  0  0
    1.3017   -2.5871   -0.3201 H   0  0  0  0  0  0  0  0  0  0  0  0
    1.3422   -4.4948    0.4793 O   0  0  0  0  0  0  0  0  0  0  0  0
    1.1204   -3.9367    1.7739 C   0  0  0  0  0  0  0  0  0  0  0  0
    2.3007   -4.1340    2.6973 C   0  0  0  0  0  0  0  0  0  0  0  0
    3.3382   -3.1933    2.7515 C   0  0  0  0  0  0  0  0  0  0  0  0
    4.4707   -3.4216    3.5355 C   0  0  0  0  0  0  0  0  0  0  0  0
    4.5729   -4.5969    4.2880 C   0  0  0  0  0  0  0  0  0  0  0  0
    3.5385   -5.5393    4.2506 C   0  0  0  0  0  0  0  0  0  0  0  0
    2.4144   -5.3089    3.4539 C   0  0  0  0  0  0  0  0  0  0  0  0
    3.1703   -3.4580   -0.8046 C   0  0  0  0  0  0  0  0  0  0  0  0
    3.6164   -2.5638   -1.5204 O   0  0  0  0  0  0  0  0  0  0  0  0
    3.9208   -4.3929   -0.1966 N   0  0  0  0  0  0  0  0  0  0  0  0
    5.3638   -4.4624   -0.2537 C   0  0  1  0  0  0  0  0  0  0  0  0
    5.6821   -4.3928   -1.3094 H   0  0  0  0  0  0  0  0  0  0  0  0
    6.1207   -3.4249    0.5615 C   0  0  0  0  0  0  0  0  0  0  0  0
    7.1672   -4.0306    1.2702 C   0  0  0  0  0  0  0  0  0  0  0  0
    7.9802   -3.2717    2.1138 C   0  0  0  0  0  0  0  0  0  0  0  0
    7.7444   -1.8967    2.2280 C   0  0  0  0  0  0  0  0  0  0  0  0
    6.7204   -1.2883    1.4893 C   0  0  0  0  0  0  0  0  0  0  0  0
    5.9050   -2.0489    0.6442 C   0  0  0  0  0  0  0  0  0  0  0  0
    7.2406   -5.5031    0.9382 C   0  0  0  0  0  0  0  0  0  0  0  0
    5.8412   -5.8145    0.3708 C   0  0  1  0  0  0  0  0  0  0  0  0
    5.8570   -6.6151   -0.3820 H   0  0  0  0  0  0  0  0  0  0  0  0
    4.9498   -6.2567    1.3742 O   0  0  0  0  0  0  0  0  0  0  0  0
    0.5396   -3.6772   -4.1994 O   0  0  0  0  0  0  0  0  0  0  0  0
   -1.4247   -2.1769   -3.2660 C   0  0  0  0  0  0  0  0  0  0  0  0
   -2.1160   -3.1158   -2.8944 O   0  0  0  0  0  0  0  0  0  0  0  0
   -1.7048   -1.3648   -4.3111 N   0  0  0  0  0  0  0  0  0  0  0  0
   -2.7827   -1.6172   -5.2536 C   0  0  1  0  0  0  0  0  0  0  0  0
   -3.5373   -2.2047   -4.7140 H   0  0  0  0  0  0  0  0  0  0  0  0
   -3.2904   -0.3227   -5.8440 C   0  0  0  0  0  0  0  0  0  0  0  0
   -2.7112   -0.1032   -7.1058 C   0  0  0  0  0  0  0  0  0  0  0  0
   -3.0172    1.0555   -7.8216 C   0  0  0  0  0  0  0  0  0  0  0  0
   -3.8968    1.9900   -7.2629 C   0  0  0  0  0  0  0  0  0  0  0  0
   -4.4660    1.7707   -6.0020 C   0  0  0  0  0  0  0  0  0  0  0  0
   -4.1621    0.6097   -5.2825 C   0  0  0  0  0  0  0  0  0  0  0  0
   -1.7965   -1.2465   -7.4719 C   0  0  0  0  0  0  0  0  0  0  0  0
   -2.2633   -2.3776   -6.5207 C   0  0  1  0  0  0  0  0  0  0  0  0
   -3.1438   -2.8591   -6.9780 H   0  0  0  0  0  0  0  0  0  0  0  0
   -1.3406   -3.3923   -6.2810 O   0  0  0  0  0  0  0  0  0  0  0  0
    2.6590   -0.0882   -1.3976 H   0  0  0  0  0  0  0  0  0  0  0  0
    3.5431   -0.2229    0.9147 H   0  0  0  0  0  0  0  0  0  0  0  0
    2.0081    0.0336    2.8642 H   0  0  0  0  0  0  0  0  0  0  0  0
   -0.4196    0.4625    2.4776 H   0  0  0  0  0  0  0  0  0  0  0  0
   -1.2930    0.6489    0.1554 H   0  0  0  0  0  0  0  0  0  0  0  0
    0.5358    1.3260   -2.6906 H   0  0  0  0  0  0  0  0  0  0  0  0
   -0.9906    0.5627   -2.1819 H   0  0  0  0  0  0  0  0  0  0  0  0
    1.4969   -4.9821   -2.2298 H   0  0  0  0  0  0  0  0  0  0  0  0
   -0.0541   -4.4063   -1.5732 H   0  0  0  0  0  0  0  0  0  0  0  0
    0.2382   -4.4503    2.1874 H   0  0  0  0  0  0  0  0  0  0  0  0
    0.8801   -2.8634    1.6841 H   0  0  0  0  0  0  0  0  0  0  0  0
    3.2684   -2.2834    2.1551 H   0  0  0  0  0  0  0  0  0  0  0  0
    5.2815   -2.6915    3.5441 H   0  0  0  0  0  0  0  0  0  0  0  0
    5.4587   -4.7769    4.9018 H   0  0  0  0  0  0  0  0  0  0  0  0
    3.6152   -6.4609    4.8319 H   0  0  0  0  0  0  0  0  0  0  0  0
    1.6165   -6.0546    3.4100 H   0  0  0  0  0  0  0  0  0  0  0  0
    3.4564   -5.0635    0.4122 H   0  0  0  0  0  0  0  0  0  0  0  0
    8.7898   -3.7422    2.6780 H   0  0  0  0  0  0  0  0  0  0  0  0
    8.3699   -1.2917    2.8890 H   0  0  0  0  0  0  0  0  0  0  0  0
    6.5609   -0.2102    1.5712 H   0  0  0  0  0  0  0  0  0  0  0  0
    5.1176   -1.5905    0.0462 H   0  0  0  0  0  0  0  0  0  0  0  0
    8.0164   -5.6820    0.1725 H   0  0  0  0  0  0  0  0  0  0  0  0
    7.4728   -6.1550    1.7943 H   0  0  0  0  0  0  0  0  0  0  0  0
    4.9973   -5.6577    2.1372 H   0  0  0  0  0  0  0  0  0  0  0  0
   -0.2613   -4.2087   -4.0586 H   0  0  0  0  0  0  0  0  0  0  0  0
   -0.9951   -0.6725   -4.5339 H   0  0  0  0  0  0  0  0  0  0  0  0
   -2.5778    1.2322   -8.8068 H   0  0  0  0  0  0  0  0  0  0  0  0
   -4.1449    2.8988   -7.8170 H   0  0  0  0  0  0  0  0  0  0  0  0
   -5.1541    2.5083   -5.5817 H   0  0  0  0  0  0  0  0  0  0  0  0
   -4.6038    0.4324   -4.2985 H   0  0  0  0  0  0  0  0  0  0  0  0
   -1.8465   -1.5375   -8.5318 H   0  0  0  0  0  0  0  0  0  0  0  0
   -0.7407   -0.9928   -7.2603 H   0  0  0  0  0  0  0  0  0  0  0  0
   -0.5888   -3.0601   -5.7589 H   0  0  0  0  0  0  0  0  0  0  0  0
  1  2  2  0
  1  6  1  0
  1  7  1  0
  2  3  1  0
  2 55  1  0
  3  4  2  0
  3 56  1  0
  4  5  1  0
  4 57  1  0
  5  6  2  0
  5 58  1  0
  6 59  1  0
  7  8  1  0
  7 60  1  0
  7 61  1  0
  8  9  1  0
  9 10  1  1
  9 11  1  0
  9 40  1  0
 11 12  1  6
 11 13  1  0
 11 39  1  0
 13 14  1  0
 13 62  1  0
 13 63  1  0
 14 15  1  1
 14 16  1  0
 14 24  1  0
 16 17  1  0
 17 18  1  0
 17 64  1  0
 17 65  1  0
 18 19  2  0
 18 23  1  0
 19 20  1  0
 19 66  1  0
 20 21  2  0
 20 67  1  0
 21 22  1  0
 21 68  1  0
 22 23  2  0
 22 69  1  0
 23 70  1  0
 24 25  2  0
 24 26  1  0
 26 27  1  0
 26 71  1  0
 27 28  1  6
 27 29  1  0
 27 36  1  0
 29 30  1  0
 29 34  2  0
 30 31  2  0
 30 35  1  0
 31 32  1  0
 31 72  1  0
 32 33  2  0
 32 73  1  0
 33 34  1  0
 33 74  1  0
 34 75  1  0
 35 36  1  0
 35 76  1  0
 35 77  1  0
 36 37  1  6
 36 38  1  0
 38 78  1  0
 39 79  1  0
 40 41  2  0
 40 42  1  0
 42 43  1  0
 42 80  1  0
 43 44  1  1
 43 45  1  0
 43 52  1  0
 45 46  1  0
 45 50  2  0
 46 47  2  0
 46 51  1  0
 47 48  1  0
 47 81  1  0
 48 49  2  0
 48 82  1  0
 49 50  1  0
 49 83  1  0
 50 84  1  0
 51 52  1  0
 51 85  1  0
 51 86  1  0
 52 53  1  6
 52 54  1  0
 54 87  1  0
M  END

