87
rmsd232.gzmat
C          0.00000        0.00000        0.00000
C          1.39530        0.00000        0.00000
C          2.09150        0.00000        1.20680
C          1.39400       -0.00020        2.41340
C         -0.00010        0.00650        2.41390
C         -0.69870        0.01030        1.20870
C         -0.73830       -0.04490       -1.30420
O         -0.22210       -1.08850       -2.12290
C         -0.71090       -2.38450       -1.89330
H         -0.05680       -2.97170       -2.58720
C         -2.18930       -2.54480       -2.32690
H         -2.37110       -1.97200       -3.26730
C         -2.51460       -4.04010       -2.49430
C         -4.01400       -4.27310       -2.28340
H         -4.62100       -3.43870       -2.71250
O         -4.46610       -5.36770       -3.04840
C         -4.19910       -6.66330       -2.52640
C         -5.31290       -7.06340       -1.60210
C         -6.63560       -6.88880       -2.01100
C         -7.67890       -7.20350       -1.14310
C         -7.40150       -7.69980        0.12950
C         -6.08020       -7.88500        0.53360
C         -5.03480       -7.56570       -0.33010
C         -4.28890       -4.49810       -0.79060
O         -3.55380       -5.18150       -0.09810
N         -5.41140       -3.91600       -0.26700
C         -5.78700       -4.19670        1.11410
H         -5.55050       -5.27400        1.35070
C         -5.11760       -3.30400        2.12960
C         -6.05000       -2.83880        3.07380
C         -5.65210       -2.00440        4.10230
C         -4.30280       -1.63540        4.18090
C         -3.37940       -2.10820        3.25330
C         -3.78340       -2.95980        2.21810
C         -7.42310       -3.35960        2.78220
C         -7.32140       -3.92220        1.34290
H         -7.95170       -4.80770        1.14370
O         -7.79150       -2.97590        0.41620
O         -3.09180       -1.95730       -1.43150
C         -0.50170       -2.80290       -0.43340
O         -1.31670       -2.56980        0.44670
N          0.64820       -3.48910       -0.15160
C          0.95510       -3.83290        1.23520
H          0.64450       -2.98230        1.90770
C          0.30680       -5.10570        1.72010
C          1.23130       -5.89230        2.43040
C          0.84400       -7.08890        3.00490
C         -0.48840       -7.49820        2.86250
C         -1.40160       -6.71910        2.15910
C         -1.00730       -5.50630        1.58090
C          2.58600       -5.25500        2.45260
C          2.49510       -4.11840        1.40660
H          3.07760       -3.21300        1.65510
O          3.04670       -4.52970        0.17970
H          1.93550       -0.01420       -0.94550
H          3.17880       -0.00030        1.20450
H          1.93790       -0.00300        3.35500
H         -0.54520        0.00090        3.35540
H         -1.78910       -0.01000        1.21040
H         -0.52580        0.84700       -1.92940
H         -1.83550       -0.13830       -1.18520
H         -1.93270       -4.66420       -1.78410
H         -2.22900       -4.38630       -3.50560
H         -3.20370       -6.70230       -2.04470
H         -4.18210       -7.28540       -3.44360
H         -6.84620       -6.48920       -3.00250
H         -8.70930       -7.05620       -1.45840
H         -8.21660       -7.94350        0.80660
H         -5.86380       -8.27300        1.52620
H         -4.00030       -7.67650       -0.00160
H         -6.05970       -3.36930       -0.81530
H         -6.36470       -1.63930        4.83430
H         -3.97720       -0.97300        4.97980
H         -2.33100       -1.82020        3.32260
H         -3.05600       -3.35080        1.50200
H         -7.71520       -4.14650        3.50140
H         -8.20350       -2.58170        2.85180
H         -7.39500       -2.09290        0.58490
H         -2.83250       -2.16820       -0.49220
H          1.39040       -3.63040       -0.82430
H          1.55040       -7.70020        3.55690
H         -0.80760       -8.43620        3.31180
H         -2.43700       -7.04210        2.05340
H         -1.73020       -4.89070        1.03640
H          2.82690       -4.85900        3.45630
H          3.39770       -5.96200        2.20530
H          2.73950       -5.43100       -0.05950
