41
rmsd105.gzmat
Cl         0.00000        0.00000        0.00000
C          1.70090        0.00000        0.00000
C          2.38430        0.00000        1.22030
N          3.72460        0.01560        1.26920
C          4.42490        0.03450        0.10670
C          3.78540        0.00800       -1.14980
C          2.39670       -0.00500       -1.20270
C          5.86140        0.06800        0.21640
C          6.78110        0.70790       -0.58970
C          6.49010        1.57130       -1.73530
C          5.54020        2.59000       -1.61250
C          5.25230        3.40070       -2.70640
C          5.91440        3.20010       -3.91730
C          6.87380        2.19560       -4.03310
C          7.16930        1.38270       -2.94130
N          8.11270        0.52810       -0.25230
C          8.25990       -0.24880        0.83120
N          9.47400       -0.67670        1.27420
C          9.61480       -1.22750        2.63080
C          9.45910       -0.19300        3.74840
C         10.68060       -0.07350        0.66810
C         10.90200        1.38730        1.06590
S          6.67940       -0.78330        1.51160
H          1.86570       -0.01020        2.18750
H          4.37980       -0.00280       -2.06230
H          1.87600       -0.02040       -2.16170
H          5.03140        2.74660       -0.66140
H          4.50960        4.19090       -2.61480
H          5.68470        3.83220       -4.77220
H          7.39700        2.04750       -4.97490
H          7.93240        0.60710       -3.01540
H         10.61890       -1.70940        2.69970
H          8.88060       -2.05790        2.76220
H         10.29370        0.51730        3.76590
H          9.42330       -0.68140        4.72950
H          8.53830        0.39640        3.64740
H         10.56740       -0.14300       -0.44460
H         11.55730       -0.69680        0.94560
H         10.04480        2.00820        0.75850
H         11.78730        1.79780        0.56830
H         11.03290        1.51170        2.14370
