41

Cl        -0.03910       -0.41420        0.32170
C          1.69120       -0.25350        0.18980
C          2.50360       -0.41130        1.31720
N          3.82460       -0.28640        1.26690
C          4.42960        0.00380        0.09730
C          3.67980        0.13770       -1.09160
C          2.29670        0.01590       -1.04110
C          5.88560        0.08950        0.15040
C          6.85670        0.57320       -0.71480
C          6.64050        1.36840       -1.94390
C          5.70850        2.41940       -1.98400
C          5.53960        3.17490       -3.14480
C          6.30550        2.89790       -4.28150
C          7.25100        1.86850       -4.24440
C          7.42360        1.11500       -3.08270
N          8.15460        0.30370       -0.36020
C          8.22770       -0.32690        0.79020
N          9.40110       -0.65300        1.39090
C         10.64760       -0.32600        0.70020
C         11.03890       -1.32390       -0.38900
C          9.41880       -1.43270        2.61950
C          9.27770       -2.94350        2.42100
S          6.66700       -0.67620        1.53640
H          2.05290       -0.65010        2.28650
H          4.17650        0.32060       -2.04260
H          1.69000        0.11360       -1.94300
H          5.12300        2.65000       -1.09220
H          4.81380        3.99160       -3.15850
H          6.17310        3.49000       -5.19030
H          7.86060        1.65390       -5.12560
H          8.16940        0.31980       -3.03990
H         11.43540       -0.25830        1.46710
H         10.52470        0.67070        0.25230
H         11.20670       -2.33180        0.02030
H         11.96720       -0.99920       -0.88570
H         10.24630       -1.38100       -1.14910
H          8.60880       -1.06460        3.27350
H         10.36130       -1.20340        3.14060
H          8.34430       -3.18180        1.88920
H          9.25400       -3.45570        3.39600
H         10.11870       -3.35130        1.84070
