41

Cl        -0.09330        0.24890        0.40980
C          1.63900        0.11870        0.26990
C          2.44520        0.16030        1.41210
N          3.76740        0.05400        1.35510
C          4.38000       -0.10170        0.16400
C          3.63650       -0.11220       -1.03610
C          2.25200       -0.00930       -0.97980
C          5.83650       -0.18120        0.21520
C          6.81550       -0.56530       -0.69000
C          6.61200       -1.22590       -1.99850
C          5.68460       -2.26940       -2.15910
C          5.52950       -2.89770       -3.39520
C          6.30460       -2.49910       -4.48860
C          7.24560       -1.47660       -4.33320
C          7.40450       -0.85040       -3.09640
N          8.11020       -0.33870       -0.29560
C          8.17200        0.18470        0.90820
N          9.33850        0.51100        1.52160
C         10.59280        0.18930        0.84070
C         10.98170       -1.28680        0.90930
C          9.35020        1.02080        2.88460
C          9.31510       -0.05830        3.96920
S          6.60550        0.42590        1.68430
H          1.98820        0.28820        2.39920
H          4.13890       -0.18630       -1.99880
H          1.65000       -0.01370       -1.89010
H          5.09190       -2.59560       -1.30250
H          4.80720       -3.71060       -3.50260
H          6.18290       -2.99160       -5.45640
H          7.86240       -1.16770       -5.18080
H          8.14720       -0.06250       -2.96140
H         11.37400        0.82060        1.29210
H         10.48790        0.48780       -0.21300
H         11.12190       -1.62390        1.94770
H         11.92470       -1.45560        0.36500
H         10.20100       -1.90190        0.43950
H          8.48990        1.70130        3.00490
H         10.25150        1.64390        2.99690
H          8.42640       -0.69740        3.85570
H          9.27640        0.40520        4.96770
H         10.20830       -0.69940        3.92470
