41

Cl        -0.03300        0.45990        0.42780
C          1.69150        0.26500        0.26770
C          2.52410        0.39600        1.38380
N          3.84130        0.24470        1.31190
C          4.42230       -0.04720        0.13070
C          3.65180       -0.15510       -1.04760
C          2.27240       -0.00560       -0.97460
C          5.87680       -0.16310        0.16050
C          6.82450       -0.65800       -0.72410
C          6.57340       -1.43650       -1.95720
C          5.62010       -2.46820       -1.99290
C          5.41820       -3.20870       -3.15810
C          6.17190       -2.93580       -4.30390
C          7.13840       -1.92580       -4.27160
C          7.34390       -1.18740       -3.10560
N          8.13300       -0.41860       -0.38690
C          8.23640        0.19900        0.76820
N          9.42530        0.49500        1.35390
C          9.47770        1.26160        2.58980
C          9.36570        2.77700        2.40850
C         10.65410        0.14960        0.64100
C         11.04880        1.14980       -0.44500
S          6.69470        0.57280        1.54160
H          2.09320        0.63530        2.36190
H          4.13000       -0.33980       -2.00770
H          1.65010       -0.08280       -1.86780
H          5.04380       -2.69590       -1.09430
H          4.67600       -4.01060       -3.16840
H          6.01370       -3.51600       -5.21620
H          7.73840       -1.71460       -5.16020
H          8.10610       -0.40770       -3.06680
H         10.42280        1.00730        3.09440
H          8.67000        0.90380        3.25220
H         10.20630        3.17290        1.81940
H          9.36750        3.27950        3.38870
H          8.42960        3.04020        1.89340
H         10.50420       -0.84010        0.18580
H         11.45210        0.05870        1.39480
H         10.24600        1.23000       -1.19210
H         11.96270        0.81120       -0.95900
H         11.24320        2.15020       -0.02900
