41
rmsd119.gzmat
Cl         0.00000        0.00000        0.00000
C          1.70090        0.00000        0.00000
C          2.38430        0.00000        1.22070
N          3.72370       -0.01340        1.26920
C          4.42770       -0.02950        0.10670
C          3.78740       -0.00400       -1.14880
C          2.39800        0.00500       -1.20160
C          5.86160       -0.05810        0.23510
C          6.81360       -0.59290       -0.60980
C          6.56090       -1.31860       -1.85650
C          5.70050       -2.42090       -1.84830
C          5.43790       -3.09950       -3.03450
C          6.03400       -2.68160       -4.22430
C          6.90490       -1.59350       -4.22710
C          7.17710       -0.91280       -3.04210
N          8.13150       -0.44910       -0.21190
C          8.23760        0.19690        0.96060
N          9.43190        0.56750        1.49580
C          9.51680        0.98480        2.90360
C          9.30550       -0.14950        3.90980
C         10.66490        0.03650        0.87710
C         10.88840       -1.45380        1.14160
S          6.63330        0.64600        1.64460
H          1.86660        0.00820        2.18860
H          4.37880        0.01010       -2.06310
H          1.87830        0.01770       -2.16120
H          5.24090       -2.74370       -0.91440
H          4.76660       -3.95580       -3.03220
H          5.82160       -3.21020       -5.15100
H          7.37620       -1.27580       -5.15420
H          7.87000       -0.07140       -3.03080
H          8.78200        1.80610        3.08250
H         10.51960        1.44800        3.06280
H          8.39090       -0.72340        3.70960
H          9.21930        0.24670        4.92920
H         10.13860       -0.86180        3.90220
H         11.52440        0.63780        1.24310
H         10.58880        0.21060       -0.22750
H         10.96020       -1.68330        2.20810
H         11.80730       -1.80290        0.65750
H         10.06020       -2.05050        0.72590
