
     RDKit          3D

 41 43  0  0  0  0  0  0  0  0999 V2000
   -0.0330    0.4599    0.4278 Cl  0  0  0  0  0  0  0  0  0  0  0  0
    1.6915    0.2650    0.2677 C   0  0  0  0  0  0  0  0  0  0  0  0
    2.5241    0.3960    1.3838 C   0  0  0  0  0  0  0  0  0  0  0  0
    3.8413    0.2447    1.3119 N   0  0  0  0  0  0  0  0  0  0  0  0
    4.4223   -0.0472    0.1307 C   0  0  0  0  0  0  0  0  0  0  0  0
    3.6518   -0.1551   -1.0476 C   0  0  0  0  0  0  0  0  0  0  0  0
    2.2724   -0.0056   -0.9746 C   0  0  0  0  0  0  0  0  0  0  0  0
    5.8768   -0.1631    0.1605 C   0  0  0  0  0  0  0  0  0  0  0  0
    6.8245   -0.6580   -0.7241 C   0  0  0  0  0  0  0  0  0  0  0  0
    6.5734   -1.4365   -1.9572 C   0  0  0  0  0  0  0  0  0  0  0  0
    5.6201   -2.4682   -1.9929 C   0  0  0  0  0  0  0  0  0  0  0  0
    5.4182   -3.2087   -3.1581 C   0  0  0  0  0  0  0  0  0  0  0  0
    6.1719   -2.9358   -4.3039 C   0  0  0  0  0  0  0  0  0  0  0  0
    7.1384   -1.9258   -4.2716 C   0  0  0  0  0  0  0  0  0  0  0  0
    7.3439   -1.1874   -3.1056 C   0  0  0  0  0  0  0  0  0  0  0  0
    8.1330   -0.4186   -0.3869 N   0  0  0  0  0  0  0  0  0  0  0  0
    8.2364    0.1990    0.7682 C   0  0  0  0  0  0  0  0  0  0  0  0
    9.4253    0.4950    1.3539 N   0  0  0  0  0  0  0  0  0  0  0  0
    9.4777    1.2616    2.5898 C   0  0  0  0  0  0  0  0  0  0  0  0
    9.3657    2.7770    2.4085 C   0  0  0  0  0  0  0  0  0  0  0  0
   10.6541    0.1496    0.6410 C   0  0  0  0  0  0  0  0  0  0  0  0
   11.0488    1.1498   -0.4450 C   0  0  0  0  0  0  0  0  0  0  0  0
    6.6947    0.5728    1.5416 S   0  0  0  0  0  0  0  0  0  0  0  0
    2.0932    0.6353    2.3619 H   0  0  0  0  0  0  0  0  0  0  0  0
    4.1300   -0.3398   -2.0077 H   0  0  0  0  0  0  0  0  0  0  0  0
    1.6501   -0.0828   -1.8678 H   0  0  0  0  0  0  0  0  0  0  0  0
    5.0438   -2.6959   -1.0943 H   0  0  0  0  0  0  0  0  0  0  0  0
    4.6760   -4.0106   -3.1684 H   0  0  0  0  0  0  0  0  0  0  0  0
    6.0137   -3.5160   -5.2162 H   0  0  0  0  0  0  0  0  0  0  0  0
    7.7384   -1.7146   -5.1602 H   0  0  0  0  0  0  0  0  0  0  0  0
    8.1061   -0.4077   -3.0668 H   0  0  0  0  0  0  0  0  0  0  0  0
   10.4228    1.0073    3.0944 H   0  0  0  0  0  0  0  0  0  0  0  0
    8.6700    0.9038    3.2522 H   0  0  0  0  0  0  0  0  0  0  0  0
   10.2063    3.1729    1.8194 H   0  0  0  0  0  0  0  0  0  0  0  0
    9.3675    3.2795    3.3887 H   0  0  0  0  0  0  0  0  0  0  0  0
    8.4296    3.0402    1.8934 H   0  0  0  0  0  0  0  0  0  0  0  0
   10.5042   -0.8401    0.1858 H   0  0  0  0  0  0  0  0  0  0  0  0
   11.4521    0.0587    1.3948 H   0  0  0  0  0  0  0  0  0  0  0  0
   10.2460    1.2300   -1.1921 H   0  0  0  0  0  0  0  0  0  0  0  0
   11.9627    0.8112   -0.9590 H   0  0  0  0  0  0  0  0  0  0  0  0
   11.2432    2.1502   -0.0290 H   0  0  0  0  0  0  0  0  0  0  0  0
  1  2  1  0
  2  3  2  0
  2  7  1  0
  3  4  1  0
  3 24  1  0
  4  5  2  0
  5  6  1  0
  5  8  1  0
  6  7  2  0
  6 25  1  0
  7 26  1  0
  8  9  2  0
  8 23  1  0
  9 10  1  0
  9 16  1  0
 10 11  2  0
 10 15  1  0
 11 12  1  0
 11 27  1  0
 12 13  2  0
 12 28  1  0
 13 14  1  0
 13 29  1  0
 14 15  2  0
 14 30  1  0
 15 31  1  0
 16 17  2  0
 17 18  1  0
 17 23  1  0
 18 19  1  0
 18 21  1  0
 19 20  1  0
 19 32  1  0
 19 33  1  0
 20 34  1  0
 20 35  1  0
 20 36  1  0
 21 22  1  0
 21 37  1  0
 21 38  1  0
 22 39  1  0
 22 40  1  0
 22 41  1  0
M  END

