rmsd121.gzmat
 OpenBabel08211713383D

 41 43  0  0  1  0  0  0  0  0999 V2000
    0.0000    0.0000    0.0000 Cl  0  0  0  0  0  0  0  0  0  0  0  0
    1.7007    0.0000    0.0000 C   0  0  0  0  0  0  0  0  0  0  0  0
    2.3852    0.0000    1.2198 C   0  0  0  0  0  0  0  0  0  0  0  0
    3.7252   -0.0120    1.2673 N   0  0  0  0  0  0  0  0  0  0  0  0
    4.4265   -0.0258    0.1042 C   0  0  0  0  0  0  0  0  0  0  0  0
    3.7854   -0.0009   -1.1512 C   0  0  0  0  0  0  0  0  0  0  0  0
    2.3960    0.0059   -1.2029 C   0  0  0  0  0  0  0  0  0  0  0  0
    5.8619   -0.0479    0.2218 C   0  0  2  0  0  0  0  0  0  0  0  0
    6.8020   -0.6085   -0.6194 C   0  0  0  0  0  0  0  0  0  0  0  0
    6.5352   -1.3879   -1.8295 C   0  0  0  0  0  0  0  0  0  0  0  0
    5.6469   -2.4664   -1.7737 C   0  0  0  0  0  0  0  0  0  0  0  0
    5.3765   -3.1973   -2.9268 C   0  0  0  0  0  0  0  0  0  0  0  0
    5.9963   -2.8580   -4.1296 C   0  0  0  0  0  0  0  0  0  0  0  0
    6.8957   -1.7944   -4.1787 C   0  0  0  0  0  0  0  0  0  0  0  0
    7.1727   -1.0598   -3.0278 C   0  0  0  0  0  0  0  0  0  0  0  0
    8.1263   -0.4380   -0.2512 N   0  0  0  0  0  0  0  0  0  0  0  0
    8.2478    0.2491    0.8944 C   0  0  0  0  0  0  0  0  0  0  0  0
    9.4470    0.6614    1.3916 N   0  0  0  0  0  0  0  0  0  0  0  0
    9.5653    1.0297    2.8116 C   0  0  0  0  0  0  0  0  0  0  0  0
    9.3761   -0.1394    3.7817 C   0  0  0  0  0  0  0  0  0  0  0  0
   10.6745    0.1832    0.7198 C   0  0  0  0  0  0  0  0  0  0  0  0
   10.9876   -1.2918    0.9782 C   0  0  0  0  0  0  0  0  0  0  0  0
    6.6520    0.7109    1.5908 S   0  0  0  0  0  0  0  0  0  0  0  0
    1.8685    0.0074    2.1880 H   0  0  0  0  0  0  0  0  0  0  0  0
    4.3773    0.0152   -2.0654 H   0  0  0  0  0  0  0  0  0  0  0  0
    1.8751    0.0177   -2.1615 H   0  0  0  0  0  0  0  0  0  0  0  0
    5.1729   -2.7313   -0.8288 H   0  0  0  0  0  0  0  0  0  0  0  0
    4.6815   -4.0337   -2.8877 H   0  0  0  0  0  0  0  0  0  0  0  0
    5.7800   -3.4287   -5.0299 H   0  0  0  0  0  0  0  0  0  0  0  0
    7.3862   -1.5381   -5.1149 H   0  0  0  0  0  0  0  0  0  0  0  0
    7.8872   -0.2367   -3.0513 H   0  0  0  0  0  0  0  0  0  0  0  0
    8.8335    1.8434    3.0341 H   0  0  0  0  0  0  0  0  0  0  0  0
   10.5719    1.4864    2.9634 H   0  0  0  0  0  0  0  0  0  0  0  0
    8.4073   -0.6386    3.6525 H   0  0  0  0  0  0  0  0  0  0  0  0
    9.4266    0.2059    4.8213 H   0  0  0  0  0  0  0  0  0  0  0  0
   10.1478   -0.9073    3.6530 H   0  0  0  0  0  0  0  0  0  0  0  0
   11.5184    0.8296    1.0442 H   0  0  0  0  0  0  0  0  0  0  0  0
   10.5403    0.3471   -0.3806 H   0  0  0  0  0  0  0  0  0  0  0  0
   11.2143   -1.4939    2.0282 H   0  0  0  0  0  0  0  0  0  0  0  0
   11.8456   -1.6177    0.3790 H   0  0  0  0  0  0  0  0  0  0  0  0
   10.1358   -1.9271    0.6859 H   0  0  0  0  0  0  0  0  0  0  0  0
  1  2  1  0  0  0  0
  2  3  1  0  0  0  0
  3  4  2  0  0  0  0
  3 24  1  0  0  0  0
  5  4  2  0  0  0  0
  6  5  1  0  0  0  0
  7  6  1  0  0  0  0
  7  2  2  0  0  0  0
  8  5  1  1  0  0  0
  8 23  1  0  0  0  0
  9 16  2  0  0  0  0
  9  8  1  0  0  0  0
 10 11  1  0  0  0  0
 10  9  1  0  0  0  0
 11 27  1  0  0  0  0
 12 28  1  0  0  0  0
 12 11  2  0  0  0  0
 13 12  1  0  0  0  0
 14 13  2  0  0  0  0
 14 15  1  0  0  0  0
 15 10  2  0  0  0  0
 16 17  2  0  0  0  0
 17 18  1  0  0  0  0
 17 23  1  0  0  0  0
 18 19  1  0  0  0  0
 19 33  1  0  0  0  0
 19 32  1  0  0  0  0
 19 20  1  0  0  0  0
 20 35  1  0  0  0  0
 21 22  1  0  0  0  0
 21 37  1  0  0  0  0
 21 18  1  0  0  0  0
 22 39  1  0  0  0  0
 25  6  1  0  0  0  0
 26  7  1  0  0  0  0
 29 13  1  0  0  0  0
 30 14  1  0  0  0  0
 31 15  1  0  0  0  0
 34 20  1  0  0  0  0
 36 20  1  0  0  0  0
 38 21  1  0  0  0  0
 40 22  1  0  0  0  0
 41 22  1  0  0  0  0
M  RAD  2   6   2   8   2
M  END
$$$$
