41
rmsd3.gzmat
Cl         0.00000        0.00000        0.00000
C          1.70070        0.00000        0.00000
C          2.38390        0.00000        1.22090
N          3.72340        0.00580        1.26980
C          4.42680        0.01450        0.10740
C          3.78690       -0.00360       -1.14840
C          2.39780       -0.00630       -1.20160
C          5.86110        0.01580        0.23340
C          6.82190        0.51640       -0.62180
C          6.59050        1.26820       -1.85650
C          5.76290        2.39510       -1.83370
C          5.54070        3.11060       -3.00670
C          6.14250        2.70430       -4.19750
C          6.97660        1.58770       -4.21570
C          7.20730        0.86930       -3.04460
N          8.13820        0.28800       -0.25630
C          8.23330       -0.35140        0.91880
N          9.41370       -0.53990        1.57120
C         10.65610       -0.12150        0.88900
C         11.13860       -1.10670       -0.17720
C          9.53310       -1.60350        2.58090
C          9.35370       -3.01970        2.02710
S          6.62170       -0.71610        1.63480
H          1.86580       -0.00400        2.18850
H          4.37860       -0.01920       -2.06260
H          1.87900       -0.01490       -2.16150
H          5.29950        2.71020       -0.89890
H          4.89920        3.98930       -2.99230
H          5.96430        3.26340       -5.11320
H          7.45260        1.27740       -5.14300
H          7.87050        0.00440       -3.04470
H         11.43550        0.03510        1.66660
H         10.46410        0.87680        0.41440
H         11.45500       -2.06230        0.24970
H         11.98680       -0.69170       -0.73420
H         10.34250       -1.30820       -0.91030
H          8.79440       -1.40830        3.39540
H         10.53600       -1.51160        3.06000
H          8.34990       -3.18580        1.61600
H          9.50570       -3.76650        2.81560
H         10.06700       -3.23780        1.22370
