
     RDKit          3D

 41 43  0  0  0  0  0  0  0  0999 V2000
   -0.0391   -0.4142    0.3217 Cl  0  0  0  0  0  0  0  0  0  0  0  0
    1.6912   -0.2535    0.1898 C   0  0  0  0  0  0  0  0  0  0  0  0
    2.5036   -0.4113    1.3172 C   0  0  0  0  0  0  0  0  0  0  0  0
    3.8246   -0.2864    1.2669 N   0  0  0  0  0  0  0  0  0  0  0  0
    4.4296    0.0038    0.0973 C   0  0  0  0  0  0  0  0  0  0  0  0
    3.6798    0.1377   -1.0916 C   0  0  0  0  0  0  0  0  0  0  0  0
    2.2967    0.0159   -1.0411 C   0  0  0  0  0  0  0  0  0  0  0  0
    5.8856    0.0895    0.1504 C   0  0  0  0  0  0  0  0  0  0  0  0
    6.8567    0.5732   -0.7148 C   0  0  0  0  0  0  0  0  0  0  0  0
    6.6405    1.3684   -1.9439 C   0  0  0  0  0  0  0  0  0  0  0  0
    5.7085    2.4194   -1.9840 C   0  0  0  0  0  0  0  0  0  0  0  0
    5.5396    3.1749   -3.1448 C   0  0  0  0  0  0  0  0  0  0  0  0
    6.3055    2.8979   -4.2815 C   0  0  0  0  0  0  0  0  0  0  0  0
    7.2510    1.8685   -4.2444 C   0  0  0  0  0  0  0  0  0  0  0  0
    7.4236    1.1150   -3.0827 C   0  0  0  0  0  0  0  0  0  0  0  0
    8.1546    0.3037   -0.3602 N   0  0  0  0  0  0  0  0  0  0  0  0
    8.2277   -0.3269    0.7902 C   0  0  0  0  0  0  0  0  0  0  0  0
    9.4011   -0.6530    1.3909 N   0  0  0  0  0  0  0  0  0  0  0  0
   10.6476   -0.3260    0.7002 C   0  0  0  0  0  0  0  0  0  0  0  0
   11.0389   -1.3239   -0.3890 C   0  0  0  0  0  0  0  0  0  0  0  0
    9.4188   -1.4327    2.6195 C   0  0  0  0  0  0  0  0  0  0  0  0
    9.2777   -2.9435    2.4210 C   0  0  0  0  0  0  0  0  0  0  0  0
    6.6670   -0.6762    1.5364 S   0  0  0  0  0  0  0  0  0  0  0  0
    2.0529   -0.6501    2.2865 H   0  0  0  0  0  0  0  0  0  0  0  0
    4.1765    0.3206   -2.0426 H   0  0  0  0  0  0  0  0  0  0  0  0
    1.6900    0.1136   -1.9430 H   0  0  0  0  0  0  0  0  0  0  0  0
    5.1230    2.6500   -1.0922 H   0  0  0  0  0  0  0  0  0  0  0  0
    4.8138    3.9916   -3.1585 H   0  0  0  0  0  0  0  0  0  0  0  0
    6.1731    3.4900   -5.1903 H   0  0  0  0  0  0  0  0  0  0  0  0
    7.8606    1.6539   -5.1256 H   0  0  0  0  0  0  0  0  0  0  0  0
    8.1694    0.3198   -3.0399 H   0  0  0  0  0  0  0  0  0  0  0  0
   11.4354   -0.2583    1.4671 H   0  0  0  0  0  0  0  0  0  0  0  0
   10.5247    0.6707    0.2523 H   0  0  0  0  0  0  0  0  0  0  0  0
   11.2067   -2.3318    0.0203 H   0  0  0  0  0  0  0  0  0  0  0  0
   11.9672   -0.9992   -0.8857 H   0  0  0  0  0  0  0  0  0  0  0  0
   10.2463   -1.3810   -1.1491 H   0  0  0  0  0  0  0  0  0  0  0  0
    8.6088   -1.0646    3.2735 H   0  0  0  0  0  0  0  0  0  0  0  0
   10.3613   -1.2034    3.1406 H   0  0  0  0  0  0  0  0  0  0  0  0
    8.3443   -3.1818    1.8892 H   0  0  0  0  0  0  0  0  0  0  0  0
    9.2540   -3.4557    3.3960 H   0  0  0  0  0  0  0  0  0  0  0  0
   10.1187   -3.3513    1.8407 H   0  0  0  0  0  0  0  0  0  0  0  0
  1  2  1  0
  2  3  2  0
  2  7  1  0
  3  4  1  0
  3 24  1  0
  4  5  2  0
  5  6  1  0
  5  8  1  0
  6  7  2  0
  6 25  1  0
  7 26  1  0
  8  9  2  0
  8 23  1  0
  9 10  1  0
  9 16  1  0
 10 11  2  0
 10 15  1  0
 11 12  1  0
 11 27  1  0
 12 13  2  0
 12 28  1  0
 13 14  1  0
 13 29  1  0
 14 15  2  0
 14 30  1  0
 15 31  1  0
 16 17  2  0
 17 18  1  0
 17 23  1  0
 18 19  1  0
 18 21  1  0
 19 20  1  0
 19 32  1  0
 19 33  1  0
 20 34  1  0
 20 35  1  0
 20 36  1  0
 21 22  1  0
 21 37  1  0
 21 38  1  0
 22 39  1  0
 22 40  1  0
 22 41  1  0
M  END

