rmsd71.gzmat
 OpenBabel08211713373D

 45 48  0  0  1  0  0  0  0  0999 V2000
    0.0000    0.0000    0.0000 O   0  0  0  0  0  0  0  0  0  0  0  0
    1.4132    0.0000    0.0000 C   0  0  0  0  0  0  0  0  0  0  0  0
    1.9682    0.0000    1.3945 C   0  0  0  0  0  0  0  0  0  0  0  0
    1.2338   -0.5690    2.4336 C   0  0  0  0  0  0  0  0  0  0  0  0
    1.7514   -0.5718    3.7279 C   0  0  0  0  0  0  0  0  0  0  0  0
    3.0000   -0.0198    3.9891 C   0  0  0  0  0  0  0  0  0  0  0  0
    3.7374    0.5451    2.9335 C   0  0  0  0  0  0  0  0  0  0  0  0
    4.9827    1.1342    3.2712 N   0  0  0  0  0  0  0  0  0  0  0  0
    6.0767    1.2317    2.4517 C   0  0  0  0  0  0  0  0  0  0  0  0
    7.1698    1.8612    3.0515 N   0  0  0  0  0  0  0  0  0  0  0  0
    8.2641    2.0114    2.3190 C   0  0  0  0  0  0  0  0  0  0  0  0
    8.3600    1.5512    0.9838 C   0  0  2  0  0  0  0  0  0  0  0  0
    9.5081    1.7224    0.1614 C   0  0  0  0  0  0  0  0  0  0  0  0
    9.5125    1.2343   -1.1044 C   0  0  0  0  0  0  0  0  0  0  0  0
    8.3780    0.4921   -1.6556 C   0  0  0  0  0  0  0  0  0  0  0  0
    8.3284   -0.0236   -2.7467 O   0  0  0  0  0  0  0  0  0  0  0  0
    7.2289    0.3677   -0.8128 N   0  0  0  0  0  0  0  0  0  0  0  0
    7.2115    0.8878    0.4552 C   0  0  0  0  0  0  0  0  0  0  0  0
    6.0639    0.7446    1.1870 N   0  0  0  0  0  0  0  0  0  0  0  0
    6.0399   -0.3180   -1.3375 C   0  0  0  0  0  0  0  0  0  0  0  0
   10.6335    1.4146   -2.0187 C   0  0  0  0  0  0  0  0  0  0  0  0
   11.8534    0.7663   -1.8332 C   0  0  0  0  0  0  0  0  0  0  0  0
   12.0366   -0.2392   -0.4683 Cl  0  0  0  0  0  0  0  0  0  0  0  0
   12.9145    0.9065   -2.7183 C   0  0  0  0  0  0  0  0  0  0  0  0
   12.7546    1.7250   -3.8366 C   0  0  0  0  0  0  0  0  0  0  0  0
   11.5517    2.3964   -4.0561 C   0  0  0  0  0  0  0  0  0  0  0  0
   10.5176    2.2318   -3.1442 C   0  0  0  0  0  0  0  0  0  0  0  0
    9.0484    3.0591   -3.3917 Cl  0  0  0  0  0  0  0  0  0  0  0  0
    3.2201    0.5635    1.6355 C   0  0  0  0  0  0  0  0  0  0  0  0
   -0.3442    0.7611    0.5101 H   0  0  0  0  0  0  0  0  0  0  0  0
    1.7669    0.8590   -0.6024 H   0  0  0  0  0  0  0  0  0  0  0  0
    1.6585   -0.9442   -0.5327 H   0  0  0  0  0  0  0  0  0  0  0  0
    0.2619   -1.0186    2.2287 H   0  0  0  0  0  0  0  0  0  0  0  0
    1.1765   -1.0181    4.5390 H   0  0  0  0  0  0  0  0  0  0  0  0
    3.4041   -0.0393    4.9981 H   0  0  0  0  0  0  0  0  0  0  0  0
    5.1068    1.4498    4.2372 H   0  0  0  0  0  0  0  0  0  0  0  0
    9.1116    2.5192    2.8058 H   0  0  0  0  0  0  0  0  0  0  0  0
   10.3707    2.2605    0.5670 H   0  0  0  0  0  0  0  0  0  0  0  0
    6.2845   -0.8502   -2.2775 H   0  0  0  0  0  0  0  0  0  0  0  0
    5.2372    0.4120   -1.5433 H   0  0  0  0  0  0  0  0  0  0  0  0
    5.6600   -1.0555   -0.6050 H   0  0  0  0  0  0  0  0  0  0  0  0
   13.8560    0.3828   -2.5518 H   0  0  0  0  0  0  0  0  0  0  0  0
   13.5743    1.8384   -4.5462 H   0  0  0  0  0  0  0  0  0  0  0  0
   11.4284    3.0320   -4.9335 H   0  0  0  0  0  0  0  0  0  0  0  0
    3.7896    1.0088    0.8175 H   0  0  0  0  0  0  0  0  0  0  0  0
  1  2  1  0  0  0  0
  1 30  1  0  0  0  0
  2  3  1  0  0  0  0
  3 29  2  0  0  0  0
  3  4  1  0  0  0  0
  4  5  2  0  0  0  0
  5  6  1  0  0  0  0
  5 34  1  0  0  0  0
  6 35  1  0  0  0  0
  7  8  1  0  0  0  0
  7  6  2  0  0  0  0
  8 36  1  0  0  0  0
  9 10  2  0  0  0  0
  9  8  1  0  0  0  0
 11 37  1  0  0  0  0
 11 10  2  0  0  0  0
 12 13  1  6  0  0  0
 12 11  1  0  0  0  0
 13 38  1  0  0  0  0
 14 13  2  0  0  0  0
 15 14  1  0  0  0  0
 15 17  1  0  0  0  0
 16 15  2  0  0  0  0
 17 18  1  0  0  0  0
 18 12  1  0  0  0  0
 18 19  2  0  0  0  0
 19  9  2  0  0  0  0
 20 17  1  0  0  0  0
 20 41  1  0  0  0  0
 21 22  1  0  0  0  0
 21 14  1  0  0  0  0
 22 23  1  0  0  0  0
 24 42  1  0  0  0  0
 24 22  2  0  0  0  0
 25 24  1  0  0  0  0
 26 25  2  0  0  0  0
 26 27  1  0  0  0  0
 27 21  2  0  0  0  0
 28 27  1  0  0  0  0
 29  7  1  0  0  0  0
 31  2  1  0  0  0  0
 32  2  1  0  0  0  0
 33  4  1  0  0  0  0
 39 20  1  0  0  0  0
 40 20  1  0  0  0  0
 43 25  1  0  0  0  0
 44 26  1  0  0  0  0
 45 29  1  0  0  0  0
M  RAD  1  12   2
M  END
$$$$
