rmsd60.gzmat
 OpenBabel08211713373D

 45 48  0  0  1  0  0  0  0  0999 V2000
    0.0000    0.0000    0.0000 O   0  0  0  0  0  0  0  0  0  0  0  0
    1.4125    0.0000    0.0000 C   0  0  0  0  0  0  0  0  0  0  0  0
    1.9691    0.0000    1.3938 C   0  0  0  0  0  0  0  0  0  0  0  0
    1.2399   -0.5661    2.4371 C   0  0  0  0  0  0  0  0  0  0  0  0
    1.7647   -0.5624    3.7288 C   0  0  0  0  0  0  0  0  0  0  0  0
    3.0043    0.0105    3.9853 C   0  0  0  0  0  0  0  0  0  0  0  0
    3.7313    0.5866    2.9270 C   0  0  0  0  0  0  0  0  0  0  0  0
    4.9939    1.1410    3.2573 N   0  0  0  0  0  0  0  0  0  0  0  0
    5.6279    2.1586    2.5913 C   0  0  0  0  0  0  0  0  0  0  0  0
    6.7962    2.5968    3.2187 N   0  0  0  0  0  0  0  0  0  0  0  0
    7.4801    3.5657    2.6265 C   0  0  0  0  0  0  0  0  0  0  0  0
    7.0727    4.1538    1.4048 C   0  0  1  0  0  0  0  0  0  0  0  0
    7.8022    5.1670    0.7229 C   0  0  0  0  0  0  0  0  0  0  0  0
    7.3362    5.6604   -0.4516 C   0  0  0  0  0  0  0  0  0  0  0  0
    6.0720    5.2152   -1.0384 C   0  0  0  0  0  0  0  0  0  0  0  0
    5.5722    5.6359   -2.0545 O   0  0  0  0  0  0  0  0  0  0  0  0
    5.3697    4.1895   -0.3312 N   0  0  0  0  0  0  0  0  0  0  0  0
    5.8574    3.6651    0.8377 C   0  0  0  0  0  0  0  0  0  0  0  0
    5.1400    2.6635    1.4327 N   0  0  0  0  0  0  0  0  0  0  0  0
    4.1209    3.6679   -0.9032 C   0  0  0  0  0  0  0  0  0  0  0  0
    8.0567    6.6569   -1.2344 C   0  0  0  0  0  0  0  0  0  0  0  0
    8.6593    6.3166   -2.4462 C   0  0  0  0  0  0  0  0  0  0  0  0
    8.5737    4.6933   -2.9583 Cl  0  0  0  0  0  0  0  0  0  0  0  0
    9.3200    7.2470   -3.2371 C   0  0  0  0  0  0  0  0  0  0  0  0
    9.3832    8.5719   -2.8042 C   0  0  0  0  0  0  0  0  0  0  0  0
    8.8005    8.9510   -1.5946 C   0  0  0  0  0  0  0  0  0  0  0  0
    8.1513    7.9879   -0.8331 C   0  0  0  0  0  0  0  0  0  0  0  0
    7.4328    8.4376    0.6463 Cl  0  0  0  0  0  0  0  0  0  0  0  0
    3.2226    0.5642    1.6262 C   0  0  0  0  0  0  0  0  0  0  0  0
   -0.3442    0.7559    0.5185 H   0  0  0  0  0  0  0  0  0  0  0  0
    1.7654    0.8609   -0.6010 H   0  0  0  0  0  0  0  0  0  0  0  0
    1.6590   -0.9423   -0.5340 H   0  0  0  0  0  0  0  0  0  0  0  0
    0.2671   -1.0171    2.2401 H   0  0  0  0  0  0  0  0  0  0  0  0
    1.1970   -1.0101    4.5445 H   0  0  0  0  0  0  0  0  0  0  0  0
    3.4009    0.0176    4.9973 H   0  0  0  0  0  0  0  0  0  0  0  0
    5.4111    0.8560    4.1488 H   0  0  0  0  0  0  0  0  0  0  0  0
    8.3950    3.9015    3.1397 H   0  0  0  0  0  0  0  0  0  0  0  0
    8.7410    5.5243    1.1578 H   0  0  0  0  0  0  0  0  0  0  0  0
    3.7570    4.3361   -1.7087 H   0  0  0  0  0  0  0  0  0  0  0  0
    3.3366    3.5956   -0.1264 H   0  0  0  0  0  0  0  0  0  0  0  0
    4.2852    2.6617   -1.3287 H   0  0  0  0  0  0  0  0  0  0  0  0
    9.7762    6.9547   -4.1834 H   0  0  0  0  0  0  0  0  0  0  0  0
    9.8882    9.3175   -3.4185 H   0  0  0  0  0  0  0  0  0  0  0  0
    8.8502    9.9880   -1.2625 H   0  0  0  0  0  0  0  0  0  0  0  0
    3.7938    0.9845    0.7954 H   0  0  0  0  0  0  0  0  0  0  0  0
  1  2  1  0  0  0  0
  1 30  1  0  0  0  0
  2  3  1  0  0  0  0
  3 29  2  0  0  0  0
  3  4  1  0  0  0  0
  4  5  2  0  0  0  0
  5  6  1  0  0  0  0
  5 34  1  0  0  0  0
  6 35  1  0  0  0  0
  7  8  1  0  0  0  0
  7  6  2  0  0  0  0
  8 36  1  0  0  0  0
  9 10  2  0  0  0  0
  9  8  1  0  0  0  0
 11 37  1  0  0  0  0
 11 10  2  0  0  0  0
 12 13  1  6  0  0  0
 12 11  1  0  0  0  0
 13 38  1  0  0  0  0
 14 13  2  0  0  0  0
 15 14  1  0  0  0  0
 15 17  1  0  0  0  0
 16 15  2  0  0  0  0
 17 18  1  0  0  0  0
 18 12  1  0  0  0  0
 18 19  2  0  0  0  0
 19  9  2  0  0  0  0
 20 17  1  0  0  0  0
 20 40  1  0  0  0  0
 21 27  1  0  0  0  0
 21 14  1  0  0  0  0
 22 21  2  0  0  0  0
 23 22  1  0  0  0  0
 24 25  2  0  0  0  0
 24 22  1  0  0  0  0
 25 26  1  0  0  0  0
 26 44  1  0  0  0  0
 26 27  2  0  0  0  0
 27 28  1  0  0  0  0
 29  7  1  0  0  0  0
 31  2  1  0  0  0  0
 32  2  1  0  0  0  0
 33  4  1  0  0  0  0
 39 20  1  0  0  0  0
 41 20  1  0  0  0  0
 42 24  1  0  0  0  0
 43 25  1  0  0  0  0
 45 29  1  0  0  0  0
M  RAD  1  12   2
M  END
$$$$
