
     RDKit          3D

 45 48  0  0  0  0  0  0  0  0999 V2000
    0.0769   -0.6450   -0.0305 O   0  0  0  0  0  0  0  0  0  0  0  0
    1.4547   -0.8395    0.1926 C   0  0  0  0  0  0  0  0  0  0  0  0
    1.9386   -0.3285    1.5355 C   0  0  0  0  0  0  0  0  0  0  0  0
    1.0611   -0.2653    2.6240 C   0  0  0  0  0  0  0  0  0  0  0  0
    1.5314    0.1787    3.8629 C   0  0  0  0  0  0  0  0  0  0  0  0
    2.8622    0.5528    4.0224 C   0  0  0  0  0  0  0  0  0  0  0  0
    3.7527    0.4931    2.9321 C   0  0  0  0  0  0  0  0  0  0  0  0
    5.0728    0.8944    3.1715 N   0  0  0  0  0  0  0  0  0  0  0  0
    6.1737    0.9608    2.3669 C   0  0  0  0  0  0  0  0  0  0  0  0
    7.2844    1.4142    3.0027 N   0  0  0  0  0  0  0  0  0  0  0  0
    8.3814    1.5000    2.2750 C   0  0  0  0  0  0  0  0  0  0  0  0
    8.4378    1.1507    0.9129 C   0  0  0  0  0  0  0  0  0  0  0  0
    9.5971    1.2196    0.0836 C   0  0  0  0  0  0  0  0  0  0  0  0
    9.5395    0.8510   -1.2240 C   0  0  0  0  0  0  0  0  0  0  0  0
    8.2791    0.3910   -1.8314 C   0  0  0  0  0  0  0  0  0  0  0  0
    8.1740    0.0824   -3.0047 O   0  0  0  0  0  0  0  0  0  0  0  0
    7.1591    0.3259   -0.9629 N   0  0  0  0  0  0  0  0  0  0  0  0
    7.2149    0.6903    0.3574 C   0  0  0  0  0  0  0  0  0  0  0  0
    6.0986    0.5997    1.0841 N   0  0  0  0  0  0  0  0  0  0  0  0
    5.8898   -0.1416   -1.5154 C   0  0  0  0  0  0  0  0  0  0  0  0
   10.7194    0.9010   -2.1217 C   0  0  0  0  0  0  0  0  0  0  0  0
   11.3764   -0.2765   -2.5233 C   0  0  0  0  0  0  0  0  0  0  0  0
   10.8103   -1.8142   -1.9207 Cl  0  0  0  0  0  0  0  0  0  0  0  0
   12.4791   -0.2572   -3.3779 C   0  0  0  0  0  0  0  0  0  0  0  0
   12.9515    0.9669   -3.8522 C   0  0  0  0  0  0  0  0  0  0  0  0
   12.3306    2.1578   -3.4774 C   0  0  0  0  0  0  0  0  0  0  0  0
   11.2272    2.1126   -2.6220 C   0  0  0  0  0  0  0  0  0  0  0  0
   10.4540    3.6199   -2.1858 Cl  0  0  0  0  0  0  0  0  0  0  0  0
    3.2769    0.0535    1.6860 C   0  0  0  0  0  0  0  0  0  0  0  0
   -0.1034    0.3018    0.0480 H   0  0  0  0  0  0  0  0  0  0  0  0
    2.0744   -0.3936   -0.6115 H   0  0  0  0  0  0  0  0  0  0  0  0
    1.6157   -1.9303    0.1382 H   0  0  0  0  0  0  0  0  0  0  0  0
    0.0200   -0.5627    2.4897 H   0  0  0  0  0  0  0  0  0  0  0  0
    0.8535    0.2320    4.7183 H   0  0  0  0  0  0  0  0  0  0  0  0
    3.2228    0.8996    4.9948 H   0  0  0  0  0  0  0  0  0  0  0  0
    5.2818    1.1986    4.1163 H   0  0  0  0  0  0  0  0  0  0  0  0
    9.2871    1.8649    2.7754 H   0  0  0  0  0  0  0  0  0  0  0  0
   10.5380    1.5731    0.5133 H   0  0  0  0  0  0  0  0  0  0  0  0
    6.0634   -0.3836   -2.5681 H   0  0  0  0  0  0  0  0  0  0  0  0
    5.1244    0.6419   -1.4231 H   0  0  0  0  0  0  0  0  0  0  0  0
    5.5436   -1.0288   -0.9670 H   0  0  0  0  0  0  0  0  0  0  0  0
   12.9555   -1.1963   -3.6604 H   0  0  0  0  0  0  0  0  0  0  0  0
   13.8133    0.9926   -4.5226 H   0  0  0  0  0  0  0  0  0  0  0  0
   12.6862    3.1213   -3.8430 H   0  0  0  0  0  0  0  0  0  0  0  0
    3.9612    0.0186    0.8431 H   0  0  0  0  0  0  0  0  0  0  0  0
  1  2  1  0
  1 30  1  0
  2  3  1  0
  2 31  1  0
  2 32  1  0
  3  4  2  0
  3 29  1  0
  4  5  1  0
  4 33  1  0
  5  6  2  0
  5 34  1  0
  6  7  1  0
  6 35  1  0
  7  8  1  0
  7 29  2  0
  8  9  1  0
  8 36  1  0
  9 10  2  0
  9 19  1  0
 10 11  1  0
 11 12  2  0
 11 37  1  0
 12 13  1  0
 12 18  1  0
 13 14  2  0
 13 38  1  0
 14 15  1  0
 14 21  1  0
 15 16  2  0
 15 17  1  0
 17 18  1  0
 17 20  1  0
 18 19  2  0
 20 39  1  0
 20 40  1  0
 20 41  1  0
 21 22  2  0
 21 27  1  0
 22 23  1  0
 22 24  1  0
 24 25  2  0
 24 42  1  0
 25 26  1  0
 25 43  1  0
 26 27  2  0
 26 44  1  0
 27 28  1  0
 29 45  1  0
M  END

