rmsd62.gzmat
 OpenBabel08211713373D

 45 48  0  0  1  0  0  0  0  0999 V2000
    0.0000    0.0000    0.0000 O   0  0  0  0  0  0  0  0  0  0  0  0
    1.4127    0.0000    0.0000 C   0  0  0  0  0  0  0  0  0  0  0  0
    1.9623    0.0000    1.3967 C   0  0  0  0  0  0  0  0  0  0  0  0
    1.2195   -0.5581    2.4355 C   0  0  0  0  0  0  0  0  0  0  0  0
    1.7283   -0.5511    3.7331 C   0  0  0  0  0  0  0  0  0  0  0  0
    2.9726    0.0085    4.0007 C   0  0  0  0  0  0  0  0  0  0  0  0
    3.7164    0.5657    2.9461 C   0  0  0  0  0  0  0  0  0  0  0  0
    4.9963    1.0867    3.2676 N   0  0  0  0  0  0  0  0  0  0  0  0
    5.6202    2.1211    2.6204 C   0  0  0  0  0  0  0  0  0  0  0  0
    6.8728    2.4443    3.1454 N   0  0  0  0  0  0  0  0  0  0  0  0
    7.5486    3.4181    2.5516 C   0  0  0  0  0  0  0  0  0  0  0  0
    7.0469    4.1271    1.4337 C   0  0  1  0  0  0  0  0  0  0  0  0
    7.7554    5.1582    0.7571 C   0  0  0  0  0  0  0  0  0  0  0  0
    7.1953    5.7746   -0.3140 C   0  0  0  0  0  0  0  0  0  0  0  0
    5.8631    5.4247   -0.8064 C   0  0  0  0  0  0  0  0  0  0  0  0
    5.3014    5.9168   -1.7558 O   0  0  0  0  0  0  0  0  0  0  0  0
    5.1709    4.3982   -0.0894 N   0  0  0  0  0  0  0  0  0  0  0  0
    5.7481    3.7549    0.9746 C   0  0  0  0  0  0  0  0  0  0  0  0
    5.0384    2.7481    1.5689 N   0  0  0  0  0  0  0  0  0  0  0  0
    3.8236    4.0147   -0.5329 C   0  0  0  0  0  0  0  0  0  0  0  0
    7.8769    6.8249   -1.0611 C   0  0  0  0  0  0  0  0  0  0  0  0
    8.9614    6.5466   -1.8919 C   0  0  0  0  0  0  0  0  0  0  0  0
    9.5024    4.9328   -1.9984 Cl  0  0  0  0  0  0  0  0  0  0  0  0
    9.6065    7.5295   -2.6307 C   0  0  0  0  0  0  0  0  0  0  0  0
    9.1534    8.8458   -2.5375 C   0  0  0  0  0  0  0  0  0  0  0  0
    8.0728    9.1668   -1.7159 C   0  0  0  0  0  0  0  0  0  0  0  0
    7.4557    8.1531   -0.9944 C   0  0  0  0  0  0  0  0  0  0  0  0
    6.1393    8.5289    0.0185 Cl  0  0  0  0  0  0  0  0  0  0  0  0
    3.2176    0.5533    1.6404 C   0  0  0  0  0  0  0  0  0  0  0  0
   -0.3406    0.7759    0.4913 H   0  0  0  0  0  0  0  0  0  0  0  0
    1.7676    0.8606   -0.5990 H   0  0  0  0  0  0  0  0  0  0  0  0
    1.6612   -0.9412   -0.5344 H   0  0  0  0  0  0  0  0  0  0  0  0
    0.2470   -1.0044    2.2263 H   0  0  0  0  0  0  0  0  0  0  0  0
    1.1450   -0.9854    4.5446 H   0  0  0  0  0  0  0  0  0  0  0  0
    3.3574    0.0204    5.0172 H   0  0  0  0  0  0  0  0  0  0  0  0
    5.4605    0.7202    4.1021 H   0  0  0  0  0  0  0  0  0  0  0  0
    8.5369    3.6550    2.9761 H   0  0  0  0  0  0  0  0  0  0  0  0
    8.7518    5.4348    1.1154 H   0  0  0  0  0  0  0  0  0  0  0  0
    3.4057    4.7882   -1.2067 H   0  0  0  0  0  0  0  0  0  0  0  0
    3.1458    3.9011    0.3345 H   0  0  0  0  0  0  0  0  0  0  0  0
    3.8561    3.0537   -1.0760 H   0  0  0  0  0  0  0  0  0  0  0  0
   10.4480    7.2831   -3.2783 H   0  0  0  0  0  0  0  0  0  0  0  0
    9.6458    9.6292   -3.1138 H   0  0  0  0  0  0  0  0  0  0  0  0
    7.7191   10.1960   -1.6495 H   0  0  0  0  0  0  0  0  0  0  0  0
    3.8001    0.9751    0.8190 H   0  0  0  0  0  0  0  0  0  0  0  0
  1  2  1  0  0  0  0
  1 30  1  0  0  0  0
  2  3  1  0  0  0  0
  3 29  2  0  0  0  0
  3  4  1  0  0  0  0
  4  5  2  0  0  0  0
  5  6  1  0  0  0  0
  5 34  1  0  0  0  0
  6 35  1  0  0  0  0
  7  8  1  0  0  0  0
  7  6  2  0  0  0  0
  8 36  1  0  0  0  0
  9 10  2  0  0  0  0
  9  8  1  0  0  0  0
 11 37  1  0  0  0  0
 11 10  2  0  0  0  0
 12 13  1  6  0  0  0
 12 11  1  0  0  0  0
 13 38  1  0  0  0  0
 14 13  2  0  0  0  0
 15 14  1  0  0  0  0
 15 17  1  0  0  0  0
 16 15  2  0  0  0  0
 17 18  1  0  0  0  0
 18 12  1  0  0  0  0
 18 19  2  0  0  0  0
 19  9  2  0  0  0  0
 20 17  1  0  0  0  0
 20 40  1  0  0  0  0
 21 27  1  0  0  0  0
 21 14  1  0  0  0  0
 22 21  2  0  0  0  0
 23 22  1  0  0  0  0
 24 25  2  0  0  0  0
 24 22  1  0  0  0  0
 25 26  1  0  0  0  0
 26 44  1  0  0  0  0
 26 27  2  0  0  0  0
 27 28  1  0  0  0  0
 29  7  1  0  0  0  0
 31  2  1  0  0  0  0
 32  2  1  0  0  0  0
 33  4  1  0  0  0  0
 39 20  1  0  0  0  0
 41 20  1  0  0  0  0
 42 24  1  0  0  0  0
 43 25  1  0  0  0  0
 45 29  1  0  0  0  0
M  RAD  1  12   2
M  END
$$$$
