45

O          0.00530       -0.50240        0.00350
C          1.35910       -0.82400        0.22560
C          1.90330       -0.31710        1.54680
C          1.04620       -0.13030        2.63740
C          1.56930        0.30740        3.85720
C          2.93180        0.55340        3.99590
C          3.80220        0.36880        2.90340
N          5.15750        0.64490        3.12130
C          6.25210        0.57570        2.30820
N          7.40860        0.93400        2.92290
C          8.50170        0.88760        2.18580
C          8.51010        0.49360        0.83490
C          9.66090        0.43170       -0.00670
C          9.55310        0.04040       -1.30450
C          8.25420       -0.35230       -1.87670
O          8.11620       -0.73880       -3.02330
N          7.13880       -0.26150       -1.00450
C          7.24230        0.14080        0.30180
N          6.12940        0.18500        1.03790
C          5.82590       -0.62810       -1.53050
C         10.72030       -0.03370       -2.21700
C         11.67630       -1.06020       -2.12540
Cl        11.49860       -2.30080       -0.90520
C         12.76850       -1.13650       -2.99310
C         12.92000       -0.16790       -3.98450
C         11.99360        0.86790       -4.10950
C         10.91190        0.92350       -3.23000
Cl         9.77300        2.23770       -3.38490
C          3.27400       -0.06400        1.67610
H         -0.08030        0.45980        0.04950
H          2.01240       -0.46960       -0.59730
H          1.41150       -1.92660        0.20890
H         -0.02030       -0.32790        2.51940
H          0.90770        0.45660        4.71400
H          3.33360        0.89610        4.95360
H          5.40470        0.95580        4.05460
H          9.44410        1.17490        2.66890
H         10.63610        0.70470        0.40510
H          5.96490       -0.92050       -2.57560
H          5.13780        0.22590       -1.45760
H          5.40460       -1.46140       -0.95080
H         13.48210       -1.95360       -2.88580
H         13.76950       -0.22110       -4.66890
H         12.10000        1.63350       -4.87830
H          3.94370       -0.19520        0.83100
