rmsd61.gzmat
 OpenBabel08211713373D

 45 47  0  0  1  0  0  0  0  0999 V2000
    0.0000    0.0000    0.0000 O   0  0  0  0  0  0  0  0  0  0  0  0
    1.4116    0.0000    0.0000 C   0  0  0  0  0  0  0  0  0  0  0  0
    1.9777    0.0000    1.3899 C   0  0  0  0  0  0  0  0  0  0  0  0
    1.1971   -0.4025    2.4716 C   0  0  0  0  0  0  0  0  0  0  0  0
    1.7390   -0.4031    3.7564 C   0  0  0  0  0  0  0  0  0  0  0  0
    3.0571   -0.0156    3.9670 C   0  0  0  0  0  0  0  0  0  0  0  0
    3.8407    0.3783    2.8683 C   0  0  0  0  0  0  0  0  0  0  0  0
    5.1964    0.7026    3.1321 N   0  0  0  0  0  0  0  0  0  0  0  0
    5.9531    1.6081    2.4360 C   0  0  0  0  0  0  0  0  0  0  0  0
    7.2641    1.7213    2.9040 N   0  0  0  0  0  0  0  0  0  0  0  0
    8.0627    2.5724    2.2765 C   0  0  0  0  0  0  0  0  0  0  0  0
    7.6328    3.3592    1.1811 C   0  0  1  0  0  0  0  0  0  0  0  0
    8.4700    4.2660    0.4746 C   0  0  0  0  0  0  0  0  0  0  0  0
    7.9676    4.9848   -0.5607 C   0  0  0  0  0  0  0  0  0  0  0  0
    6.5660    4.8897   -0.9671 C   0  0  0  0  0  0  0  0  0  0  0  0
    6.0324    5.5289   -1.8420 O   0  0  0  0  0  0  0  0  0  0  0  0
    5.7579    3.9528   -0.2475 N   0  0  0  0  0  0  0  0  0  0  0  0
    6.2715    3.2039    0.7791 C   0  0  0  0  0  0  0  0  0  0  0  0
    5.4373    2.3149    1.4008 N   0  0  0  0  0  0  0  0  0  0  0  0
    4.3546    3.7854   -0.6496 C   0  0  0  0  0  0  0  0  0  0  0  0
    8.7855    5.8974   -1.3501 C   0  0  0  0  0  0  0  0  0  0  0  0
    9.1267    5.6008   -2.6701 C   0  0  0  0  0  0  0  0  0  0  0  0
    8.5764    4.1300   -3.3319 Cl  0  0  0  0  0  0  0  0  0  0  0  0
    9.8961    6.4537   -3.4505 C   0  0  0  0  0  0  0  0  0  0  0  0
   10.3421    7.6532   -2.8954 C   0  0  0  0  0  0  0  0  0  0  0  0
   10.0203    7.9879   -1.5799 C   0  0  0  0  0  0  0  0  0  0  0  0
    9.2497    7.1060   -0.8337 C   0  0  0  0  0  0  0  0  0  0  0  0
    8.8455    7.5068    0.7737 Cl  0  0  0  0  0  0  0  0  0  0  0  0
    3.3040    0.3872    1.5781 C   0  0  0  0  0  0  0  0  0  0  0  0
   -0.3444    0.7820    0.4768 H   0  0  0  0  0  0  0  0  0  0  0  0
    1.7673    0.8589   -0.6021 H   0  0  0  0  0  0  0  0  0  0  0  0
    1.6575   -0.9433   -0.5339 H   0  0  0  0  0  0  0  0  0  0  0  0
    0.1700   -0.7301    2.3106 H   0  0  0  0  0  0  0  0  0  0  0  0
    1.1255   -0.7120    4.6025 H   0  0  0  0  0  0  0  0  0  0  0  0
    3.4705   -0.0119    4.9723 H   0  0  0  0  0  0  0  0  0  0  0  0
    5.6328    0.2742    3.9523 H   0  0  0  0  0  0  0  0  0  0  0  0
    9.0956    2.6416    2.6525 H   0  0  0  0  0  0  0  0  0  0  0  0
    9.5170    4.3623    0.7790 H   0  0  0  0  0  0  0  0  0  0  0  0
    4.0219    4.6534   -1.2522 H   0  0  0  0  0  0  0  0  0  0  0  0
    3.6990    3.7031    0.2381 H   0  0  0  0  0  0  0  0  0  0  0  0
    4.2376    2.8709   -1.2571 H   0  0  0  0  0  0  0  0  0  0  0  0
   10.1456    6.1984   -4.4806 H   0  0  0  0  0  0  0  0  0  0  0  0
   10.9440    8.3362   -3.4950 H   0  0  0  0  0  0  0  0  0  0  0  0
   10.3661    8.9294   -1.1535 H   0  0  0  0  0  0  0  0  0  0  0  0
    3.9135    0.6949    0.7261 H   0  0  0  0  0  0  0  0  0  0  0  0
  1  2  1  0  0  0  0
  1 30  1  0  0  0  0
  2  3  1  0  0  0  0
  3 29  2  0  0  0  0
  3  4  1  0  0  0  0
  4  5  2  0  0  0  0
  5  6  1  0  0  0  0
  5 34  1  0  0  0  0
  6 35  1  0  0  0  0
  7  8  1  0  0  0  0
  7  6  2  0  0  0  0
  8 36  1  0  0  0  0
  9 10  2  0  0  0  0
  9  8  1  0  0  0  0
 11 37  1  0  0  0  0
 11 10  2  0  0  0  0
 12 13  1  6  0  0  0
 12 11  1  0  0  0  0
 13 38  1  0  0  0  0
 14 13  2  0  0  0  0
 15 14  1  0  0  0  0
 15 17  1  0  0  0  0
 16 15  2  0  0  0  0
 17 18  1  0  0  0  0
 18 12  1  0  0  0  0
 18 19  2  0  0  0  0
 19  9  2  0  0  0  0
 20 17  1  0  0  0  0
 20 40  1  0  0  0  0
 21 27  1  0  0  0  0
 21 14  1  0  0  0  0
 22 21  2  0  0  0  0
 23 22  1  0  0  0  0
 24 25  2  0  0  0  0
 24 22  1  0  0  0  0
 25 26  1  0  0  0  0
 26 44  1  0  0  0  0
 26 27  2  0  0  0  0
 29  7  1  0  0  0  0
 31  2  1  0  0  0  0
 32  2  1  0  0  0  0
 33  4  1  0  0  0  0
 39 20  1  0  0  0  0
 41 20  1  0  0  0  0
 42 24  1  0  0  0  0
 43 25  1  0  0  0  0
 45 29  1  0  0  0  0
M  RAD  3  12   2  27   2  28   2
M  END
$$$$
