45
rmsd62.gzmat
O          0.00000        0.00000        0.00000
C          1.41270        0.00000        0.00000
C          1.96230        0.00000        1.39670
C          1.21950       -0.55810        2.43550
C          1.72830       -0.55110        3.73310
C          2.97260        0.00850        4.00070
C          3.71640        0.56570        2.94610
N          4.99630        1.08670        3.26760
C          5.62020        2.12110        2.62040
N          6.87280        2.44430        3.14540
C          7.54860        3.41810        2.55160
C          7.04690        4.12710        1.43370
C          7.75540        5.15820        0.75710
C          7.19530        5.77460       -0.31400
C          5.86310        5.42470       -0.80640
O          5.30140        5.91680       -1.75580
N          5.17090        4.39820       -0.08940
C          5.74810        3.75490        0.97460
N          5.03840        2.74810        1.56890
C          3.82360        4.01470       -0.53290
C          7.87690        6.82490       -1.06110
C          8.96140        6.54660       -1.89190
Cl         9.50240        4.93280       -1.99840
C          9.60650        7.52950       -2.63070
C          9.15340        8.84580       -2.53750
C          8.07280        9.16680       -1.71590
C          7.45570        8.15310       -0.99440
Cl         6.13930        8.52890        0.01850
C          3.21760        0.55330        1.64040
H         -0.34060        0.77590        0.49130
H          1.76760        0.86060       -0.59900
H          1.66120       -0.94120       -0.53440
H          0.24700       -1.00440        2.22630
H          1.14500       -0.98540        4.54460
H          3.35740        0.02040        5.01720
H          5.46050        0.72020        4.10210
H          8.53690        3.65500        2.97610
H          8.75180        5.43480        1.11540
H          3.40570        4.78820       -1.20670
H          3.14580        3.90110        0.33450
H          3.85610        3.05370       -1.07600
H         10.44800        7.28310       -3.27830
H          9.64580        9.62920       -3.11380
H          7.71910       10.19600       -1.64950
H          3.80010        0.97510        0.81900
