rmsd205.gzmat
 OpenBabel08211713373D

 45 48  0  0  1  0  0  0  0  0999 V2000
    0.0000    0.0000    0.0000 O   0  0  0  0  0  0  0  0  0  0  0  0
    1.4126    0.0000    0.0000 C   0  0  0  0  0  0  0  0  0  0  0  0
    1.9694    0.0000    1.3941 C   0  0  0  0  0  0  0  0  0  0  0  0
    1.2072    0.4940    2.4496 C   0  0  0  0  0  0  0  0  0  0  0  0
    1.7257    0.4739    3.7439 C   0  0  0  0  0  0  0  0  0  0  0  0
    2.9994   -0.0233    3.9856 C   0  0  0  0  0  0  0  0  0  0  0  0
    3.7729   -0.5052    2.9099 C   0  0  0  0  0  0  0  0  0  0  0  0
    5.0705   -0.9595    3.2443 N   0  0  0  0  0  0  0  0  0  0  0  0
    5.9495   -1.6573    2.4560 C   0  0  0  0  0  0  0  0  0  0  0  0
    7.1540   -1.9393    3.1075 N   0  0  0  0  0  0  0  0  0  0  0  0
    8.0770   -2.6027    2.4278 C   0  0  0  0  0  0  0  0  0  0  0  0
    7.8814   -3.0298    1.0921 C   0  0  1  0  0  0  0  0  0  0  0  0
    8.8557   -3.7322    0.3307 C   0  0  0  0  0  0  0  0  0  0  0  0
    8.5746   -4.1158   -0.9399 C   0  0  0  0  0  0  0  0  0  0  0  0
    7.2797   -3.8476   -1.5649 C   0  0  0  0  0  0  0  0  0  0  0  0
    6.9400   -4.1867   -2.6732 O   0  0  0  0  0  0  0  0  0  0  0  0
    6.3328   -3.1178   -0.7777 N   0  0  0  0  0  0  0  0  0  0  0  0
    6.6192   -2.7220    0.5032 C   0  0  0  0  0  0  0  0  0  0  0  0
    5.6562   -2.0288    1.1875 N   0  0  0  0  0  0  0  0  0  0  0  0
    5.0236   -2.7964   -1.3625 C   0  0  0  0  0  0  0  0  0  0  0  0
    9.5329   -4.8268   -1.7771 C   0  0  0  0  0  0  0  0  0  0  0  0
    9.8958   -6.1474   -1.5160 C   0  0  0  0  0  0  0  0  0  0  0  0
    9.2109   -6.9235   -0.1607 Cl  0  0  0  0  0  0  0  0  0  0  0  0
   10.7851   -6.8493   -2.3187 C   0  0  0  0  0  0  0  0  0  0  0  0
   11.3363   -6.2106   -3.4298 C   0  0  0  0  0  0  0  0  0  0  0  0
   11.0016   -4.8889   -3.7252 C   0  0  0  0  0  0  0  0  0  0  0  0
   10.1113   -4.2214   -2.8938 C   0  0  0  0  0  0  0  0  0  0  0  0
    9.7075   -2.6008   -3.2300 Cl  0  0  0  0  0  0  0  0  0  0  0  0
    3.2566   -0.4911    1.6121 C   0  0  0  0  0  0  0  0  0  0  0  0
   -0.3422   -0.7740    0.4929 H   0  0  0  0  0  0  0  0  0  0  0  0
    1.6599    0.9416   -0.5353 H   0  0  0  0  0  0  0  0  0  0  0  0
    1.7663   -0.8620   -0.5989 H   0  0  0  0  0  0  0  0  0  0  0  0
    0.2156    0.9057    2.2620 H   0  0  0  0  0  0  0  0  0  0  0  0
    1.1261    0.8527    4.5715 H   0  0  0  0  0  0  0  0  0  0  0  0
    3.3912   -0.0390    4.9996 H   0  0  0  0  0  0  0  0  0  0  0  0
    5.3912   -0.7727    4.2025 H   0  0  0  0  0  0  0  0  0  0  0  0
    9.0193   -2.8120    2.9578 H   0  0  0  0  0  0  0  0  0  0  0  0
    9.8255   -3.9503    0.7892 H   0  0  0  0  0  0  0  0  0  0  0  0
    4.9635   -3.1661   -2.4053 H   0  0  0  0  0  0  0  0  0  0  0  0
    4.8620   -1.7032   -1.3682 H   0  0  0  0  0  0  0  0  0  0  0  0
    4.2139   -3.2671   -0.7746 H   0  0  0  0  0  0  0  0  0  0  0  0
   11.0456   -7.8838   -2.0942 H   0  0  0  0  0  0  0  0  0  0  0  0
   12.0327   -6.7489   -4.0732 H   0  0  0  0  0  0  0  0  0  0  0  0
   11.4309   -4.3967   -4.5983 H   0  0  0  0  0  0  0  0  0  0  0  0
    3.8453   -0.8569    0.7680 H   0  0  0  0  0  0  0  0  0  0  0  0
  1  2  1  0  0  0  0
  1 30  1  0  0  0  0
  2  3  1  0  0  0  0
  3 29  2  0  0  0  0
  3  4  1  0  0  0  0
  4  5  2  0  0  0  0
  5  6  1  0  0  0  0
  5 34  1  0  0  0  0
  6 35  1  0  0  0  0
  7  8  1  0  0  0  0
  7  6  2  0  0  0  0
  8 36  1  0  0  0  0
  9 10  2  0  0  0  0
  9  8  1  0  0  0  0
 11 37  1  0  0  0  0
 11 10  2  0  0  0  0
 12 13  1  1  0  0  0
 12 11  1  0  0  0  0
 13 38  1  0  0  0  0
 14 13  2  0  0  0  0
 15 14  1  0  0  0  0
 15 17  1  0  0  0  0
 16 15  2  0  0  0  0
 17 18  1  0  0  0  0
 18 12  1  0  0  0  0
 18 19  2  0  0  0  0
 19  9  2  0  0  0  0
 20 17  1  0  0  0  0
 20 41  1  0  0  0  0
 21 22  1  0  0  0  0
 21 14  1  0  0  0  0
 22 23  1  0  0  0  0
 24 42  1  0  0  0  0
 24 22  2  0  0  0  0
 25 24  1  0  0  0  0
 26 25  2  0  0  0  0
 26 27  1  0  0  0  0
 27 21  2  0  0  0  0
 28 27  1  0  0  0  0
 29  7  1  0  0  0  0
 31  2  1  0  0  0  0
 32  2  1  0  0  0  0
 33  4  1  0  0  0  0
 39 20  1  0  0  0  0
 40 20  1  0  0  0  0
 43 25  1  0  0  0  0
 44 26  1  0  0  0  0
 45 29  1  0  0  0  0
M  RAD  1  12   2
M  END
$$$$
