rmsd95.gzmat
 OpenBabel08211713373D

 45 48  0  0  1  0  0  0  0  0999 V2000
    0.0000    0.0000    0.0000 O   0  0  0  0  0  0  0  0  0  0  0  0
    1.4125    0.0000    0.0000 C   0  0  0  0  0  0  0  0  0  0  0  0
    1.9697    0.0000    1.3939 C   0  0  0  0  0  0  0  0  0  0  0  0
    1.2113    0.4957    2.4518 C   0  0  0  0  0  0  0  0  0  0  0  0
    1.7338    0.4790    3.7446 C   0  0  0  0  0  0  0  0  0  0  0  0
    3.0040   -0.0293    3.9855 C   0  0  0  0  0  0  0  0  0  0  0  0
    3.7675   -0.5205    2.9095 C   0  0  0  0  0  0  0  0  0  0  0  0
    5.0638   -0.9967    3.2281 N   0  0  0  0  0  0  0  0  0  0  0  0
    5.7912   -1.9195    2.5209 C   0  0  0  0  0  0  0  0  0  0  0  0
    6.9663   -2.3101    3.1678 N   0  0  0  0  0  0  0  0  0  0  0  0
    7.7220   -3.2173    2.5665 C   0  0  0  0  0  0  0  0  0  0  0  0
    7.3826   -3.7884    1.3162 C   0  0  1  0  0  0  0  0  0  0  0  0
    8.1547   -4.7856    0.6583 C   0  0  0  0  0  0  0  0  0  0  0  0
    7.7409   -5.2845   -0.5336 C   0  0  0  0  0  0  0  0  0  0  0  0
    6.5174   -4.8222   -1.1889 C   0  0  0  0  0  0  0  0  0  0  0  0
    6.0811   -5.2197   -2.2429 O   0  0  0  0  0  0  0  0  0  0  0  0
    5.7733   -3.8097   -0.5052 N   0  0  0  0  0  0  0  0  0  0  0  0
    6.1780   -3.3219    0.7104 C   0  0  0  0  0  0  0  0  0  0  0  0
    5.3854   -2.3838    1.3150 N   0  0  0  0  0  0  0  0  0  0  0  0
    4.5397   -3.3002   -1.1195 C   0  0  0  0  0  0  0  0  0  0  0  0
    8.4641   -6.3288   -1.2491 C   0  0  0  0  0  0  0  0  0  0  0  0
    8.4873   -7.6450   -0.7893 C   0  0  0  0  0  0  0  0  0  0  0  0
    7.6807   -8.0062    0.6694 Cl  0  0  0  0  0  0  0  0  0  0  0  0
    9.1309   -8.6647   -1.4775 C   0  0  0  0  0  0  0  0  0  0  0  0
    9.7777   -8.3623   -2.6759 C   0  0  0  0  0  0  0  0  0  0  0  0
    9.7825   -7.0571   -3.1681 C   0  0  0  0  0  0  0  0  0  0  0  0
    9.1302   -6.0659   -2.4460 C   0  0  0  0  0  0  0  0  0  0  0  0
    9.1366   -4.4657   -3.0290 Cl  0  0  0  0  0  0  0  0  0  0  0  0
    3.2559   -0.4934    1.6103 C   0  0  0  0  0  0  0  0  0  0  0  0
   -0.3417   -0.7803    0.4834 H   0  0  0  0  0  0  0  0  0  0  0  0
    1.6616    0.9407   -0.5357 H   0  0  0  0  0  0  0  0  0  0  0  0
    1.7670   -0.8620   -0.5980 H   0  0  0  0  0  0  0  0  0  0  0  0
    0.2183    0.9048    2.2658 H   0  0  0  0  0  0  0  0  0  0  0  0
    1.1398    0.8650    4.5729 H   0  0  0  0  0  0  0  0  0  0  0  0
    3.3974   -0.0502    4.9986 H   0  0  0  0  0  0  0  0  0  0  0  0
    5.4452   -0.7309    4.1423 H   0  0  0  0  0  0  0  0  0  0  0  0
    8.6402   -3.5174    3.0953 H   0  0  0  0  0  0  0  0  0  0  0  0
    9.0759   -5.1372    1.1337 H   0  0  0  0  0  0  0  0  0  0  0  0
    4.3621   -3.7914   -2.0964 H   0  0  0  0  0  0  0  0  0  0  0  0
    4.6141   -2.2099   -1.2832 H   0  0  0  0  0  0  0  0  0  0  0  0
    3.6717   -3.4968   -0.4631 H   0  0  0  0  0  0  0  0  0  0  0  0
    9.1272   -9.6868   -1.0984 H   0  0  0  0  0  0  0  0  0  0  0  0
   10.2796   -9.1532   -3.2335 H   0  0  0  0  0  0  0  0  0  0  0  0
   10.2836   -6.8270   -4.1086 H   0  0  0  0  0  0  0  0  0  0  0  0
    3.8504   -0.8540    0.7679 H   0  0  0  0  0  0  0  0  0  0  0  0
  1 30  1  0  0  0  0
  2  1  1  0  0  0  0
  2  3  1  0  0  0  0
  3 29  2  0  0  0  0
  3  4  1  0  0  0  0
  4  5  2  0  0  0  0
  5  6  1  0  0  0  0
  5 34  1  0  0  0  0
  6 35  1  0  0  0  0
  7  8  1  0  0  0  0
  7  6  2  0  0  0  0
  8 36  1  0  0  0  0
  9 10  2  0  0  0  0
  9  8  1  0  0  0  0
 11 37  1  0  0  0  0
 11 10  2  0  0  0  0
 12 13  1  1  0  0  0
 12 11  1  0  0  0  0
 13 38  1  0  0  0  0
 14 13  2  0  0  0  0
 15 14  1  0  0  0  0
 15 17  1  0  0  0  0
 16 15  2  0  0  0  0
 17 18  1  0  0  0  0
 18 19  2  0  0  0  0
 18 12  1  0  0  0  0
 19  9  2  0  0  0  0
 20 17  1  0  0  0  0
 20 41  1  0  0  0  0
 21 22  1  0  0  0  0
 21 14  1  0  0  0  0
 22 23  1  0  0  0  0
 24 42  1  0  0  0  0
 24 22  2  0  0  0  0
 25 24  1  0  0  0  0
 26 25  2  0  0  0  0
 26 27  1  0  0  0  0
 27 21  2  0  0  0  0
 28 27  1  0  0  0  0
 29  7  1  0  0  0  0
 31  2  1  0  0  0  0
 32  2  1  0  0  0  0
 33  4  1  0  0  0  0
 39 20  1  0  0  0  0
 40 20  1  0  0  0  0
 43 25  1  0  0  0  0
 44 26  1  0  0  0  0
 45 29  1  0  0  0  0
M  RAD  1  12   2
M  END
$$$$
