45
rmsd71.gzmat
O          0.00000        0.00000        0.00000
C          1.41320        0.00000        0.00000
C          1.96820        0.00000        1.39450
C          1.23380       -0.56900        2.43360
C          1.75140       -0.57180        3.72790
C          3.00000       -0.01980        3.98910
C          3.73740        0.54510        2.93350
N          4.98270        1.13420        3.27120
C          6.07670        1.23170        2.45170
N          7.16980        1.86120        3.05150
C          8.26410        2.01140        2.31900
C          8.36000        1.55120        0.98380
C          9.50810        1.72240        0.16140
C          9.51250        1.23430       -1.10440
C          8.37800        0.49210       -1.65560
O          8.32840       -0.02360       -2.74670
N          7.22890        0.36770       -0.81280
C          7.21150        0.88780        0.45520
N          6.06390        0.74460        1.18700
C          6.03990       -0.31800       -1.33750
C         10.63350        1.41460       -2.01870
C         11.85340        0.76630       -1.83320
Cl        12.03660       -0.23920       -0.46830
C         12.91450        0.90650       -2.71830
C         12.75460        1.72500       -3.83660
C         11.55170        2.39640       -4.05610
C         10.51760        2.23180       -3.14420
Cl         9.04840        3.05910       -3.39170
C          3.22010        0.56350        1.63550
H         -0.34420        0.76110        0.51010
H          1.76690        0.85900       -0.60240
H          1.65850       -0.94420       -0.53270
H          0.26190       -1.01860        2.22870
H          1.17650       -1.01810        4.53900
H          3.40410       -0.03930        4.99810
H          5.10680        1.44980        4.23720
H          9.11160        2.51920        2.80580
H         10.37070        2.26050        0.56700
H          6.28450       -0.85020       -2.27750
H          5.23720        0.41200       -1.54330
H          5.66000       -1.05550       -0.60500
H         13.85600        0.38280       -2.55180
H         13.57430        1.83840       -4.54620
H         11.42840        3.03200       -4.93350
H          3.78960        1.00880        0.81750
