44

O          0.01050        0.18960        0.04510
C          1.22900        0.08550        0.05850
N          1.95360       -0.03520        1.22660
C          1.49940       -0.10450        2.56710
O          2.31980       -0.15770        3.46420
N          0.14580       -0.12010        2.71350
C         -0.49950       -0.04450        3.94700
C         -1.67090        0.81760        4.10010
O         -2.24470        1.49710        3.26740
N         -2.06170        0.63200        5.43980
N         -1.23540       -0.31320        6.06490
C         -0.27310       -0.69700        5.12300
C          0.78690       -1.67620        5.49490
C         -0.76090        0.10410        7.38620
C         -3.35000        0.88700        5.95590
C         -3.96950       -0.03120        6.81850
C         -5.24010        0.24290        7.32720
C         -5.91020        1.41470        6.96750
C         -5.29540        2.31530        6.09200
C         -4.01840        2.06610        5.58940
C          2.02940        0.09550       -1.20820
C          1.39670        0.58960       -2.35940
C          2.07770        0.62770       -3.57490
C          3.39320        0.15940       -3.65610
C          4.02410       -0.35090       -2.51810
C          3.34620       -0.38270       -1.29840
H          2.96550       -0.00960        1.18120
H         -0.40530        0.09320        1.87420
H          1.09980       -2.23890        4.60670
H          0.41530       -2.38260        6.25150
H          1.68830       -1.17090        5.87490
H         -0.16740       -0.70950        7.82130
H         -1.62070        0.29410        8.04100
H         -0.14280        1.01770        7.32210
H         -3.45810       -0.96140        7.06710
H         -5.71380       -0.47600        8.00020
H         -6.90670        1.62320        7.36300
H         -5.81310        3.23160        5.79850
H         -3.53900        2.75950        4.90140
H          0.36690        0.93970       -2.27330
H          1.58120        1.02190       -4.46440
H          3.92630        0.18650       -4.60940
H          5.04560       -0.73240       -2.58100
H          3.84750       -0.81400       -0.42880
