
     RDKit          3D

 44 46  0  0  0  0  0  0  0  0999 V2000
    0.0250   -0.0841    0.0953 O   0  0  0  0  0  0  0  0  0  0  0  0
    1.2468   -0.0291    0.0846 C   0  0  0  0  0  0  0  0  0  0  0  0
    2.0001    0.0074    1.2395 N   0  0  0  0  0  0  0  0  0  0  0  0
    1.5796    0.0465    2.5923 C   0  0  0  0  0  0  0  0  0  0  0  0
    2.4217    0.1236    3.4673 O   0  0  0  0  0  0  0  0  0  0  0  0
    0.2329   -0.0230    2.7768 N   0  0  0  0  0  0  0  0  0  0  0  0
   -0.3928    0.1592    4.0094 C   0  0  0  0  0  0  0  0  0  0  0  0
   -1.6106    0.9656    4.0896 C   0  0  0  0  0  0  0  0  0  0  0  0
   -2.2385    1.5083    3.1978 O   0  0  0  0  0  0  0  0  0  0  0  0
   -1.9659    0.9175    5.4509 N   0  0  0  0  0  0  0  0  0  0  0  0
   -1.0745    0.1006    6.1614 N   0  0  0  0  0  0  0  0  0  0  0  0
   -0.1078   -0.3365    5.2477 C   0  0  0  0  0  0  0  0  0  0  0  0
    1.0133   -1.2043    5.7076 C   0  0  0  0  0  0  0  0  0  0  0  0
   -0.6028    0.6957    7.4137 C   0  0  0  0  0  0  0  0  0  0  0  0
   -3.2576    1.1587    5.9651 C   0  0  0  0  0  0  0  0  0  0  0  0
   -3.8073    0.3148    6.9431 C   0  0  0  0  0  0  0  0  0  0  0  0
   -5.0827    0.5752    7.4471 C   0  0  0  0  0  0  0  0  0  0  0  0
   -5.8262    1.6575    6.9702 C   0  0  0  0  0  0  0  0  0  0  0  0
   -5.2804    2.4821    5.9815 C   0  0  0  0  0  0  0  0  0  0  0  0
   -4.0001    2.2475    5.4806 C   0  0  0  0  0  0  0  0  0  0  0  0
    2.0175   -0.0139   -1.2010 C   0  0  0  0  0  0  0  0  0  0  0  0
    1.3307   -0.4081   -2.3598 C   0  0  0  0  0  0  0  0  0  0  0  0
    1.9789   -0.4177   -3.5936 C   0  0  0  0  0  0  0  0  0  0  0  0
    3.3166   -0.0196   -3.6855 C   0  0  0  0  0  0  0  0  0  0  0  0
    4.0023    0.3920   -2.5393 C   0  0  0  0  0  0  0  0  0  0  0  0
    3.3568    0.3947   -1.3018 C   0  0  0  0  0  0  0  0  0  0  0  0
    3.0106   -0.0016    1.1687 H   0  0  0  0  0  0  0  0  0  0  0  0
   -0.3477    0.0381    1.9329 H   0  0  0  0  0  0  0  0  0  0  0  0
    1.3526   -1.8415    4.8819 H   0  0  0  0  0  0  0  0  0  0  0  0
    0.6914   -1.8431    6.5431 H   0  0  0  0  0  0  0  0  0  0  0  0
    1.8855   -0.6078    6.0171 H   0  0  0  0  0  0  0  0  0  0  0  0
    0.0450   -0.0265    7.9259 H   0  0  0  0  0  0  0  0  0  0  0  0
   -1.4609    0.9122    8.0625 H   0  0  0  0  0  0  0  0  0  0  0  0
   -0.0408    1.6291    7.2296 H   0  0  0  0  0  0  0  0  0  0  0  0
   -3.2384   -0.5499    7.2855 H   0  0  0  0  0  0  0  0  0  0  0  0
   -5.5018   -0.0852    8.2103 H   0  0  0  0  0  0  0  0  0  0  0  0
   -6.8260    1.8548    7.3629 H   0  0  0  0  0  0  0  0  0  0  0  0
   -5.8557    3.3274    5.5962 H   0  0  0  0  0  0  0  0  0  0  0  0
   -3.5741    2.8812    4.7053 H   0  0  0  0  0  0  0  0  0  0  0  0
    0.2846   -0.7027   -2.2649 H   0  0  0  0  0  0  0  0  0  0  0  0
    1.4391   -0.7338   -4.4890 H   0  0  0  0  0  0  0  0  0  0  0  0
    3.8241   -0.0237   -4.6530 H   0  0  0  0  0  0  0  0  0  0  0  0
    5.0419    0.7195   -2.6092 H   0  0  0  0  0  0  0  0  0  0  0  0
    3.9050    0.7496   -0.4259 H   0  0  0  0  0  0  0  0  0  0  0  0
  1  2  2  0
  2  3  1  0
  2 21  1  0
  3  4  1  0
  3 27  1  0
  4  5  2  0
  4  6  1  0
  6  7  1  0
  6 28  1  0
  7  8  1  0
  7 12  2  0
  8  9  2  0
  8 10  1  0
 10 11  1  0
 10 15  1  0
 11 12  1  0
 11 14  1  0
 12 13  1  0
 13 29  1  0
 13 30  1  0
 13 31  1  0
 14 32  1  0
 14 33  1  0
 14 34  1  0
 15 16  2  0
 15 20  1  0
 16 17  1  0
 16 35  1  0
 17 18  2  0
 17 36  1  0
 18 19  1  0
 18 37  1  0
 19 20  2  0
 19 38  1  0
 20 39  1  0
 21 22  2  0
 21 26  1  0
 22 23  1  0
 22 40  1  0
 23 24  2  0
 23 41  1  0
 24 25  1  0
 24 42  1  0
 25 26  2  0
 25 43  1  0
 26 44  1  0
M  END

