rmsd173.gzmat
 OpenBabel08211713413D

 44 46  0  0  0  0  0  0  0  0999 V2000
    0.0000    0.0000    0.0000 O   0  0  0  0  0  0  0  0  0  0  0  0
    1.2117    0.0000    0.0000 C   0  0  0  0  0  0  0  0  0  0  0  0
    1.9371    0.0000    1.1950 N   0  0  0  0  0  0  0  0  0  0  0  0
    1.4005    0.0168    2.5181 C   0  0  0  0  0  0  0  0  0  0  0  0
    2.1929    0.0628    3.4401 O   0  0  0  0  0  0  0  0  0  0  0  0
    0.0331   -0.0757    2.6567 N   0  0  0  0  0  0  0  0  0  0  0  0
   -0.5414    0.0452    3.9226 C   0  0  0  0  0  0  0  0  0  0  0  0
   -1.7776    0.8343    4.1242 C   0  0  0  0  0  0  0  0  0  0  0  0
   -2.4588    1.4543    3.3561 O   0  0  0  0  0  0  0  0  0  0  0  0
   -2.0332    0.7797    5.5452 N   0  0  0  0  0  0  0  0  0  0  0  0
   -1.1595   -0.2064    6.1292 N   0  0  0  0  0  0  0  0  0  0  0  0
   -0.1787   -0.5088    5.1237 C   0  0  0  0  0  0  0  0  0  0  0  0
    0.9598   -1.3797    5.4491 C   0  0  0  0  0  0  0  0  0  0  0  0
   -0.6189    0.2882    7.4148 C   0  0  0  0  0  0  0  0  0  0  0  0
   -3.3715    0.7976    6.0379 C   0  0  0  0  0  0  0  0  0  0  0  0
   -3.8781   -0.1902    6.8906 C   0  0  0  0  0  0  0  0  0  0  0  0
   -5.1741   -0.0652    7.3830 C   0  0  0  0  0  0  0  0  0  0  0  0
   -5.9634    1.0253    7.0247 C   0  0  0  0  0  0  0  0  0  0  0  0
   -5.4574    1.9975    6.1622 C   0  0  0  0  0  0  0  0  0  0  0  0
   -4.1633    1.8952    5.6651 C   0  0  0  0  0  0  0  0  0  0  0  0
    2.0328    0.0179   -1.2367 C   0  0  0  0  0  0  0  0  0  0  0  0
    1.7761    1.0089   -2.1840 C   0  0  0  0  0  0  0  0  0  0  0  0
    2.5230    1.0422   -3.3600 C   0  0  0  0  0  0  0  0  0  0  0  0
    3.5074    0.0818   -3.5882 C   0  0  0  0  0  0  0  0  0  0  0  0
    3.7465   -0.9174   -2.6447 C   0  0  0  0  0  0  0  0  0  0  0  0
    3.0090   -0.9521   -1.4637 C   0  0  0  0  0  0  0  0  0  0  0  0
    2.9592    0.0348    1.1625 H   0  0  0  0  0  0  0  0  0  0  0  0
   -0.5866   -0.0031    1.8369 H   0  0  0  0  0  0  0  0  0  0  0  0
    1.2051   -2.0519    4.6066 H   0  0  0  0  0  0  0  0  0  0  0  0
    0.7932   -2.0092    6.3338 H   0  0  0  0  0  0  0  0  0  0  0  0
    1.8802   -0.7830    5.6180 H   0  0  0  0  0  0  0  0  0  0  0  0
   -0.0185   -0.5139    7.8746 H   0  0  0  0  0  0  0  0  0  0  0  0
   -1.4575    0.5245    8.0957 H   0  0  0  0  0  0  0  0  0  0  0  0
   -0.0002    1.1955    7.3146 H   0  0  0  0  0  0  0  0  0  0  0  0
   -3.2730   -1.0562    7.1530 H   0  0  0  0  0  0  0  0  0  0  0  0
   -5.5739   -0.8306    8.0458 H   0  0  0  0  0  0  0  0  0  0  0  0
   -6.9750    1.1156    7.4123 H   0  0  0  0  0  0  0  0  0  0  0  0
   -6.0780    2.8453    5.8744 H   0  0  0  0  0  0  0  0  0  0  0  0
   -3.7668    2.6524    4.9860 H   0  0  0  0  0  0  0  0  0  0  0  0
    0.9906    1.7468   -2.0064 H   0  0  0  0  0  0  0  0  0  0  0  0
    2.3341    1.8160   -4.1024 H   0  0  0  0  0  0  0  0  0  0  0  0
    4.0903    0.1090   -4.5084 H   0  0  0  0  0  0  0  0  0  0  0  0
    4.5090   -1.6716   -2.8323 H   0  0  0  0  0  0  0  0  0  0  0  0
    3.1882   -1.7405   -0.7329 H   0  0  0  0  0  0  0  0  0  0  0  0
  1  2  2  0  0  0  0
  2  3  1  0  0  0  0
  3  4  1  0  0  0  0
  4  6  1  0  0  0  0
  4  5  2  0  0  0  0
  6  7  1  0  0  0  0
  7  8  1  0  0  0  0
  7 12  2  0  0  0  0
  8 10  1  0  0  0  0
  9  8  2  0  0  0  0
 10 15  1  0  0  0  0
 10 11  1  0  0  0  0
 11 14  1  0  0  0  0
 12 13  1  0  0  0  0
 12 11  1  0  0  0  0
 13 31  1  0  0  0  0
 13 30  1  0  0  0  0
 14 32  1  0  0  0  0
 14 33  1  0  0  0  0
 15 16  1  0  0  0  0
 16 35  1  0  0  0  0
 16 17  2  0  0  0  0
 17 36  1  0  0  0  0
 18 17  1  0  0  0  0
 18 37  1  0  0  0  0
 19 18  2  0  0  0  0
 20 15  2  0  0  0  0
 20 19  1  0  0  0  0
 21  2  1  0  0  0  0
 22 40  1  0  0  0  0
 22 21  2  0  0  0  0
 23 22  1  0  0  0  0
 24 23  2  0  0  0  0
 24 25  1  0  0  0  0
 25 26  2  0  0  0  0
 26 21  1  0  0  0  0
 26 44  1  0  0  0  0
 27  3  1  0  0  0  0
 28  6  1  0  0  0  0
 29 13  1  0  0  0  0
 34 14  1  0  0  0  0
 38 19  1  0  0  0  0
 39 20  1  0  0  0  0
 41 23  1  0  0  0  0
 42 24  1  0  0  0  0
 43 25  1  0  0  0  0
M  END
$$$$
