44
rmsd209.gzmat
O          0.00000        0.00000        0.00000
C          1.21200        0.00000        0.00000
N          1.93760        0.00000        1.19480
C          1.40010       -0.00440        2.51790
O          2.19260       -0.01040        3.44120
N          0.03060       -0.05830        2.65130
C         -0.54260       -0.00670        3.92220
C         -1.75200        0.80430        4.18570
O         -2.41090        1.50750        3.47210
N         -2.01590        0.64090        5.59830
N         -1.17250       -0.41420        6.10110
C         -0.20000       -0.66560        5.07550
C          0.90880       -1.59830        5.32310
C         -0.62380       -0.04270        7.42390
C         -3.35810        0.64490        6.08210
C         -3.89180       -0.40290        6.84170
C         -5.18880       -0.29490        7.33530
C         -5.95260        0.83940        7.07070
C         -5.41930        1.87360        6.30160
C         -4.12410        1.78810        5.80380
C          2.03270       -0.02610       -1.23690
C          3.00250        0.94600       -1.47860
C          3.73730        0.89980       -2.66110
C          3.50100       -0.11250       -3.59140
C          2.52280       -1.07580       -3.34800
C          1.77980       -1.03150       -2.17040
H          2.96010       -0.01520        1.16280
H         -0.58710        0.05950        1.83650
H          1.11590       -2.22090        4.43340
H          0.73040       -2.28000        6.16580
H          1.85380       -1.04840        5.51570
H         -0.04420       -0.89510        7.81480
H         -1.45880        0.15560        8.12120
H          0.01700        0.85480        7.40130
H         -3.30590       -1.29990        7.03410
H         -5.60730       -1.10630        7.92820
H         -6.96480        0.91690        7.45940
H         -6.02020        2.75640        6.08670
H         -3.70800        2.59320        5.19520
H          3.17820        1.74530       -0.75810
H          4.49490        1.65600       -2.86070
H          4.08000       -0.14780       -4.51370
H          2.33540       -1.85980       -4.07990
H          0.99930       -1.77120       -1.98090
