rmsd246.gzmat
 OpenBabel08211713413D

 44 46  0  0  0  0  0  0  0  0999 V2000
    0.0000    0.0000    0.0000 O   0  0  0  0  0  0  0  0  0  0  0  0
    1.2127    0.0000    0.0000 C   0  0  0  0  0  0  0  0  0  0  0  0
    1.9349    0.0000    1.1967 N   0  0  0  0  0  0  0  0  0  0  0  0
    1.3926    0.0214    2.5184 C   0  0  0  0  0  0  0  0  0  0  0  0
    2.1815    0.0379    3.4443 O   0  0  0  0  0  0  0  0  0  0  0  0
    0.0230   -0.0304    2.6463 N   0  0  0  0  0  0  0  0  0  0  0  0
   -0.5650    0.0780    3.9065 C   0  0  0  0  0  0  0  0  0  0  0  0
   -1.7950    0.8787    4.0987 C   0  0  0  0  0  0  0  0  0  0  0  0
   -2.4487    1.5257    3.3288 O   0  0  0  0  0  0  0  0  0  0  0  0
   -2.0901    0.7885    5.5111 N   0  0  0  0  0  0  0  0  0  0  0  0
   -1.2361   -0.2178    6.0915 N   0  0  0  0  0  0  0  0  0  0  0  0
   -0.2370   -0.5091    5.1012 C   0  0  0  0  0  0  0  0  0  0  0  0
    0.8802   -1.4079    5.4245 C   0  0  0  0  0  0  0  0  0  0  0  0
   -0.7177    0.2471    7.3972 C   0  0  0  0  0  0  0  0  0  0  0  0
   -3.4477    0.7824    5.9516 C   0  0  0  0  0  0  0  0  0  0  0  0
   -4.2358    1.8810    5.5739 C   0  0  0  0  0  0  0  0  0  0  0  0
   -5.5515    1.9565    6.0161 C   0  0  0  0  0  0  0  0  0  0  0  0
   -6.0828    0.9573    6.8315 C   0  0  0  0  0  0  0  0  0  0  0  0
   -5.2965   -0.1333    7.1959 C   0  0  0  0  0  0  0  0  0  0  0  0
   -3.9788   -0.2313    6.7577 C   0  0  0  0  0  0  0  0  0  0  0  0
    2.0232   -0.0293   -1.2429 C   0  0  0  0  0  0  0  0  0  0  0  0
    3.0953    0.8406   -1.4396 C   0  0  0  0  0  0  0  0  0  0  0  0
    3.8102    0.7872   -2.6340 C   0  0  0  0  0  0  0  0  0  0  0  0
    3.4537   -0.1303   -3.6222 C   0  0  0  0  0  0  0  0  0  0  0  0
    2.3723   -0.9883   -3.4263 C   0  0  0  0  0  0  0  0  0  0  0  0
    1.6489   -0.9351   -2.2369 C   0  0  0  0  0  0  0  0  0  0  0  0
    2.9566   -0.0231    1.1692 H   0  0  0  0  0  0  0  0  0  0  0  0
   -0.5884    0.0628    1.8216 H   0  0  0  0  0  0  0  0  0  0  0  0
    1.1127   -2.0779    4.5762 H   0  0  0  0  0  0  0  0  0  0  0  0
    0.6957   -2.0422    6.3018 H   0  0  0  0  0  0  0  0  0  0  0  0
    1.8139   -0.8348    5.6018 H   0  0  0  0  0  0  0  0  0  0  0  0
   -0.1528   -0.5773    7.8629 H   0  0  0  0  0  0  0  0  0  0  0  0
   -1.5668    0.5000    8.0587 H   0  0  0  0  0  0  0  0  0  0  0  0
   -0.0705    1.1369    7.3245 H   0  0  0  0  0  0  0  0  0  0  0  0
   -3.8203    2.6599    4.9315 H   0  0  0  0  0  0  0  0  0  0  0  0
   -6.1706    2.8027    5.7198 H   0  0  0  0  0  0  0  0  0  0  0  0
   -7.1106    1.0280    7.1784 H   0  0  0  0  0  0  0  0  0  0  0  0
   -5.7139   -0.9194    7.8227 H   0  0  0  0  0  0  0  0  0  0  0  0
   -3.3746   -1.0957    7.0274 H   0  0  0  0  0  0  0  0  0  0  0  0
    3.3662    1.5704   -0.6765 H   0  0  0  0  0  0  0  0  0  0  0  0
    4.6464    1.4648   -2.7990 H   0  0  0  0  0  0  0  0  0  0  0  0
    4.0191   -0.1721   -4.5528 H   0  0  0  0  0  0  0  0  0  0  0  0
    2.0894   -1.6964   -4.2035 H   0  0  0  0  0  0  0  0  0  0  0  0
    0.7882   -1.5899   -2.0822 H   0  0  0  0  0  0  0  0  0  0  0  0
  1  2  2  0  0  0  0
  2  3  1  0  0  0  0
  3  4  1  0  0  0  0
  4  6  1  0  0  0  0
  4  5  2  0  0  0  0
  6  7  1  0  0  0  0
  7  8  1  0  0  0  0
  7 12  2  0  0  0  0
  8 10  1  0  0  0  0
  9  8  2  0  0  0  0
 10 15  1  0  0  0  0
 10 11  1  0  0  0  0
 11 14  1  0  0  0  0
 12 13  1  0  0  0  0
 12 11  1  0  0  0  0
 13 31  1  0  0  0  0
 13 30  1  0  0  0  0
 14 32  1  0  0  0  0
 14 33  1  0  0  0  0
 15 20  1  0  0  0  0
 16 15  2  0  0  0  0
 16 17  1  0  0  0  0
 17 18  2  0  0  0  0
 18 37  1  0  0  0  0
 18 19  1  0  0  0  0
 19 38  1  0  0  0  0
 20 39  1  0  0  0  0
 20 19  2  0  0  0  0
 21  2  1  0  0  0  0
 22 21  1  0  0  0  0
 22 40  1  0  0  0  0
 23 22  2  0  0  0  0
 24 25  2  0  0  0  0
 24 23  1  0  0  0  0
 25 26  1  0  0  0  0
 26 44  1  0  0  0  0
 26 21  2  0  0  0  0
 27  3  1  0  0  0  0
 28  6  1  0  0  0  0
 29 13  1  0  0  0  0
 34 14  1  0  0  0  0
 35 16  1  0  0  0  0
 36 17  1  0  0  0  0
 41 23  1  0  0  0  0
 42 24  1  0  0  0  0
 43 25  1  0  0  0  0
M  END
$$$$
