rmsd172.gzmat
 OpenBabel08211713413D

 44 46  0  0  0  0  0  0  0  0999 V2000
    0.0000    0.0000    0.0000 O   0  0  0  0  0  0  0  0  0  0  0  0
    1.2123    0.0000    0.0000 C   0  0  0  0  0  0  0  0  0  0  0  0
    1.9367    0.0000    1.1952 N   0  0  0  0  0  0  0  0  0  0  0  0
    1.3982   -0.0070    2.5174 C   0  0  0  0  0  0  0  0  0  0  0  0
    2.1894   -0.0347    3.4415 O   0  0  0  0  0  0  0  0  0  0  0  0
    0.0282   -0.0299    2.6522 N   0  0  0  0  0  0  0  0  0  0  0  0
   -0.5336    0.0599    3.9265 C   0  0  0  0  0  0  0  0  0  0  0  0
   -1.6643    0.9688    4.2117 C   0  0  0  0  0  0  0  0  0  0  0  0
   -2.2764    1.7281    3.5138 O   0  0  0  0  0  0  0  0  0  0  0  0
   -1.9113    0.8256    5.6296 N   0  0  0  0  0  0  0  0  0  0  0  0
   -1.1632   -0.3079    6.1114 N   0  0  0  0  0  0  0  0  0  0  0  0
   -0.2267   -0.6283    5.0736 C   0  0  0  0  0  0  0  0  0  0  0  0
    0.8203   -1.6357    5.2969 C   0  0  0  0  0  0  0  0  0  0  0  0
   -0.5796   -0.0147    7.4381 C   0  0  0  0  0  0  0  0  0  0  0  0
   -3.2308    0.9722    6.1503 C   0  0  0  0  0  0  0  0  0  0  0  0
   -3.8694   -0.0269    6.8941 C   0  0  0  0  0  0  0  0  0  0  0  0
   -5.1303    0.2228    7.4287 C   0  0  0  0  0  0  0  0  0  0  0  0
   -5.7568    1.4488    7.2166 C   0  0  0  0  0  0  0  0  0  0  0  0
   -5.1228    2.4325    6.4576 C   0  0  0  0  0  0  0  0  0  0  0  0
   -3.8598    2.2067    5.9228 C   0  0  0  0  0  0  0  0  0  0  0  0
    2.0298    0.0223   -1.2382 C   0  0  0  0  0  0  0  0  0  0  0  0
    1.6804    0.9379   -2.2312 C   0  0  0  0  0  0  0  0  0  0  0  0
    2.4217    0.9873   -3.4099 C   0  0  0  0  0  0  0  0  0  0  0  0
    3.4965    0.1186   -3.5928 C   0  0  0  0  0  0  0  0  0  0  0  0
    3.8286   -0.8079   -2.6038 C   0  0  0  0  0  0  0  0  0  0  0  0
    3.0936   -0.8606   -1.4222 C   0  0  0  0  0  0  0  0  0  0  0  0
    2.9587    0.0334    1.1641 H   0  0  0  0  0  0  0  0  0  0  0  0
   -0.5893    0.0854    1.8382 H   0  0  0  0  0  0  0  0  0  0  0  0
    0.9823   -2.2523    4.3940 H   0  0  0  0  0  0  0  0  0  0  0  0
    0.6054   -2.3201    6.1277 H   0  0  0  0  0  0  0  0  0  0  0  0
    1.7986   -1.1494    5.4934 H   0  0  0  0  0  0  0  0  0  0  0  0
   -0.0922   -0.9291    7.8149 H   0  0  0  0  0  0  0  0  0  0  0  0
   -1.3894    0.2588    8.1400 H   0  0  0  0  0  0  0  0  0  0  0  0
    0.1515    0.8109    7.4287 H   0  0  0  0  0  0  0  0  0  0  0  0
   -3.3933   -0.9947    7.0409 H   0  0  0  0  0  0  0  0  0  0  0  0
   -5.6306   -0.5501    8.0095 H   0  0  0  0  0  0  0  0  0  0  0  0
   -6.7409    1.6369    7.6381 H   0  0  0  0  0  0  0  0  0  0  0  0
   -5.6188    3.3859    6.2796 H   0  0  0  0  0  0  0  0  0  0  0  0
   -3.3630    2.9729    5.3249 H   0  0  0  0  0  0  0  0  0  0  0  0
    0.8275    1.6054   -2.0844 H   0  0  0  0  0  0  0  0  0  0  0  0
    2.1588    1.7031   -4.1873 H   0  0  0  0  0  0  0  0  0  0  0  0
    4.0794    0.1603   -4.5121 H   0  0  0  0  0  0  0  0  0  0  0  0
    4.6626   -1.4909   -2.7580 H   0  0  0  0  0  0  0  0  0  0  0  0
    3.3446   -1.5962   -0.6579 H   0  0  0  0  0  0  0  0  0  0  0  0
  1  2  2  0  0  0  0
  2  3  1  0  0  0  0
  3  4  1  0  0  0  0
  4  6  1  0  0  0  0
  4  5  2  0  0  0  0
  6  7  1  0  0  0  0
  7  8  1  0  0  0  0
  7 12  2  0  0  0  0
  8 10  1  0  0  0  0
  9  8  2  0  0  0  0
 10 11  1  0  0  0  0
 10 15  1  0  0  0  0
 11 14  1  0  0  0  0
 12 13  1  0  0  0  0
 12 11  1  0  0  0  0
 13 31  1  0  0  0  0
 13 30  1  0  0  0  0
 14 32  1  0  0  0  0
 14 33  1  0  0  0  0
 15 16  1  0  0  0  0
 16 35  1  0  0  0  0
 16 17  2  0  0  0  0
 17 36  1  0  0  0  0
 18 17  1  0  0  0  0
 18 37  1  0  0  0  0
 19 18  2  0  0  0  0
 20 15  2  0  0  0  0
 20 19  1  0  0  0  0
 21  2  1  0  0  0  0
 22 40  1  0  0  0  0
 22 21  2  0  0  0  0
 23 22  1  0  0  0  0
 24 23  2  0  0  0  0
 24 25  1  0  0  0  0
 25 26  2  0  0  0  0
 26 21  1  0  0  0  0
 26 44  1  0  0  0  0
 27  3  1  0  0  0  0
 28  6  1  0  0  0  0
 29 13  1  0  0  0  0
 34 14  1  0  0  0  0
 38 19  1  0  0  0  0
 39 20  1  0  0  0  0
 41 23  1  0  0  0  0
 42 24  1  0  0  0  0
 43 25  1  0  0  0  0
M  END
$$$$
