44
rmsd173.gzmat
O          0.00000        0.00000        0.00000
C          1.21170        0.00000        0.00000
N          1.93710        0.00000        1.19500
C          1.40050        0.01680        2.51810
O          2.19290        0.06280        3.44010
N          0.03310       -0.07570        2.65670
C         -0.54140        0.04520        3.92260
C         -1.77760        0.83430        4.12420
O         -2.45880        1.45430        3.35610
N         -2.03320        0.77970        5.54520
N         -1.15950       -0.20640        6.12920
C         -0.17870       -0.50880        5.12370
C          0.95980       -1.37970        5.44910
C         -0.61890        0.28820        7.41480
C         -3.37150        0.79760        6.03790
C         -3.87810       -0.19020        6.89060
C         -5.17410       -0.06520        7.38300
C         -5.96340        1.02530        7.02470
C         -5.45740        1.99750        6.16220
C         -4.16330        1.89520        5.66510
C          2.03280        0.01790       -1.23670
C          1.77610        1.00890       -2.18400
C          2.52300        1.04220       -3.36000
C          3.50740        0.08180       -3.58820
C          3.74650       -0.91740       -2.64470
C          3.00900       -0.95210       -1.46370
H          2.95920        0.03480        1.16250
H         -0.58660       -0.00310        1.83690
H          1.20510       -2.05190        4.60660
H          0.79320       -2.00920        6.33380
H          1.88020       -0.78300        5.61800
H         -0.01850       -0.51390        7.87460
H         -1.45750        0.52450        8.09570
H         -0.00020        1.19550        7.31460
H         -3.27300       -1.05620        7.15300
H         -5.57390       -0.83060        8.04580
H         -6.97500        1.11560        7.41230
H         -6.07800        2.84530        5.87440
H         -3.76680        2.65240        4.98600
H          0.99060        1.74680       -2.00640
H          2.33410        1.81600       -4.10240
H          4.09030        0.10900       -4.50840
H          4.50900       -1.67160       -2.83230
H          3.18820       -1.74050       -0.73290
