rmsd167.gzmat
 OpenBabel08211713373D

 50 53  0  0  1  0  0  0  0  0999 V2000
    0.0000    0.0000    0.0000 C   0  0  0  0  0  0  0  0  0  0  0  0
    1.4207    0.0000    0.0000 O   0  0  0  0  0  0  0  0  0  0  0  0
    2.0476    0.0000    1.2043 C   0  0  0  0  0  0  0  0  0  0  0  0
    1.4206    0.0638    2.4485 C   0  0  0  0  0  0  0  0  0  0  0  0
    2.2123    0.1010    3.5940 C   0  0  0  0  0  0  0  0  0  0  0  0
    3.6043    0.0781    3.4920 C   0  0  0  0  0  0  0  0  0  0  0  0
    4.2173   -0.0149    2.2340 C   0  0  0  0  0  0  0  0  0  0  0  0
    3.4471   -0.0501    1.0836 C   0  0  0  0  0  0  0  0  0  0  0  0
    4.4254    0.1805    4.6809 C   0  0  0  0  0  0  0  0  0  0  0  0
    5.2284    1.3268    5.0219 C   0  0  1  0  0  0  0  0  0  0  0  0
    5.5094    2.6125    4.4988 C   0  0  0  0  0  0  0  0  0  0  0  0
    4.8949    3.0781    3.3786 N   0  0  0  0  0  0  0  0  0  0  0  0
    5.1690    4.4004    2.8117 C   0  0  0  0  0  0  0  0  0  0  0  0
    6.5142    4.4433    2.0550 C   0  0  0  0  0  0  0  0  0  0  0  0
    7.5230    4.9960    2.8647 O   0  0  0  0  0  0  0  0  0  0  0  0
    6.4057    3.4129    5.1658 N   0  0  0  0  0  0  0  0  0  0  0  0
    6.9478    2.9784    6.3263 C   0  0  0  0  0  0  0  0  0  0  0  0
    6.7146    1.7890    6.9298 N   0  0  0  0  0  0  0  0  0  0  0  0
    5.8620    1.0003    6.2482 C   0  0  0  0  0  0  0  0  0  0  0  0
    5.4955   -0.2465    6.6744 O   0  0  0  0  0  0  0  0  0  0  0  0
    4.6066   -0.7325    5.6884 C   0  0  0  0  0  0  0  0  0  0  0  0
    4.1076   -2.0520    5.9694 C   0  0  0  0  0  0  0  0  0  0  0  0
    3.6476   -2.8601    4.9162 C   0  0  0  0  0  0  0  0  0  0  0  0
    3.1615   -4.1304    5.1706 C   0  0  0  0  0  0  0  0  0  0  0  0
    3.1439   -4.5964    6.4973 C   0  0  0  0  0  0  0  0  0  0  0  0
    2.6505   -5.8561    6.6036 O   0  0  0  0  0  0  0  0  0  0  0  0
    2.6641   -6.4570    7.8913 C   0  0  0  0  0  0  0  0  0  0  0  0
    3.5928   -3.8077    7.5574 C   0  0  0  0  0  0  0  0  0  0  0  0
    4.0764   -2.5317    7.2828 C   0  0  0  0  0  0  0  0  0  0  0  0
   -0.3921    0.9088    0.4665 H   0  0  0  0  0  0  0  0  0  0  0  0
   -0.3910   -0.9013    0.4827 H   0  0  0  0  0  0  0  0  0  0  0  0
   -0.2304   -0.0096   -1.0747 H   0  0  0  0  0  0  0  0  0  0  0  0
    0.3401    0.0871    2.5379 H   0  0  0  0  0  0  0  0  0  0  0  0
    1.7444    0.1524    4.5791 H   0  0  0  0  0  0  0  0  0  0  0  0
    5.3062   -0.0644    2.1681 H   0  0  0  0  0  0  0  0  0  0  0  0
    3.8997   -0.1209    0.0977 H   0  0  0  0  0  0  0  0  0  0  0  0
    4.3045    2.4495    2.8453 H   0  0  0  0  0  0  0  0  0  0  0  0
    5.1884    5.1660    3.6293 H   0  0  0  0  0  0  0  0  0  0  0  0
    4.3257    4.6702    2.1391 H   0  0  0  0  0  0  0  0  0  0  0  0
    6.4742    5.1288    1.1890 H   0  0  0  0  0  0  0  0  0  0  0  0
    6.8359    3.4410    1.7195 H   0  0  0  0  0  0  0  0  0  0  0  0
    7.4833    4.5911    3.7665 H   0  0  0  0  0  0  0  0  0  0  0  0
    7.6524    3.6643    6.8285 H   0  0  0  0  0  0  0  0  0  0  0  0
    3.6794   -2.4815    3.8912 H   0  0  0  0  0  0  0  0  0  0  0  0
    2.8017   -4.7717    4.3699 H   0  0  0  0  0  0  0  0  0  0  0  0
    2.2883   -7.4677    7.6794 H   0  0  0  0  0  0  0  0  0  0  0  0
    1.9873   -5.9310    8.5714 H   0  0  0  0  0  0  0  0  0  0  0  0
    3.6811   -6.5067    8.2925 H   0  0  0  0  0  0  0  0  0  0  0  0
    3.5709   -4.1683    8.5798 H   0  0  0  0  0  0  0  0  0  0  0  0
    4.4323   -1.9014    8.1016 H   0  0  0  0  0  0  0  0  0  0  0  0
  1 30  1  0  0  0  0
  1 31  1  0  0  0  0
  2  1  1  0  0  0  0
  2  3  1  0  0  0  0
  3  4  1  0  0  0  0
  4 33  1  0  0  0  0
  4  5  2  0  0  0  0
  5 34  1  0  0  0  0
  6  5  1  0  0  0  0
  6  9  1  0  0  0  0
  7  6  2  0  0  0  0
  8  3  2  0  0  0  0
  8  7  1  0  0  0  0
  9 21  2  0  0  0  0
 10  9  1  1  0  0  0
 10 11  1  0  0  0  0
 10 19  1  0  0  0  0
 11 16  2  0  0  0  0
 12 11  1  0  0  0  0
 13 12  1  0  0  0  0
 13 38  1  0  0  0  0
 14 13  1  0  0  0  0
 14 15  1  0  0  0  0
 15 42  1  0  0  0  0
 16 17  2  0  0  0  0
 17 43  1  0  0  0  0
 17 18  2  0  0  0  0
 19 20  1  0  0  0  0
 19 18  2  0  0  0  0
 21 22  1  0  0  0  0
 21 20  1  0  0  0  0
 22 29  2  0  0  0  0
 23 24  2  0  0  0  0
 23 22  1  0  0  0  0
 24 25  1  0  0  0  0
 25 26  1  0  0  0  0
 25 28  2  0  0  0  0
 26 27  1  0  0  0  0
 27 48  1  0  0  0  0
 27 47  1  0  0  0  0
 28 49  1  0  0  0  0
 29 28  1  0  0  0  0
 29 50  1  0  0  0  0
 32  1  1  0  0  0  0
 35  7  1  0  0  0  0
 36  8  1  0  0  0  0
 37 12  1  0  0  0  0
 39 13  1  0  0  0  0
 40 14  1  0  0  0  0
 41 14  1  0  0  0  0
 44 23  1  0  0  0  0
 45 24  1  0  0  0  0
 46 27  1  0  0  0  0
M  RAD  1  10   2
M  END
$$$$
