50
rmsd122.gzmat
C          0.00000        0.00000        0.00000
O          1.42090        0.00000        0.00000
C          2.04650        0.00000        1.20530
C          1.41750        0.08260        2.44750
C          2.20660        0.09940        3.59480
C          3.59830        0.03890        3.49740
C          4.21300       -0.05740        2.24100
C          3.44480       -0.07520        1.08820
C          4.40710        0.08050        4.69830
C          5.26870        1.16610        5.08880
C          5.66010        2.43470        4.59720
N          5.23360        2.89600        3.38910
C          5.61620        4.20970        2.86580
C          4.84500        5.36370        3.54120
O          5.62680        5.95850        4.54870
N          6.52020        3.19670        5.34960
C          6.99630        2.70520        6.51670
N          6.69050        1.50860        7.07060
C          5.82890        0.78110        6.33440
O          5.37540       -0.45070        6.71960
C          4.49630       -0.86060        5.69290
C          3.89840       -2.14860        5.92180
C          3.49380       -2.92870        4.83370
C          2.89030       -4.16580        5.03630
C          2.71020       -4.61530        6.34520
O          2.14230       -5.79460        6.70280
C          1.71220       -6.65590        5.65710
C          3.11840       -3.85020        7.45230
C          3.71140       -2.61900        7.23170
H         -0.38950        0.92400        0.43820
H         -0.39290       -0.88410        0.51150
H         -0.23170       -0.04290       -1.07340
H          0.33810        0.13470        2.53400
H          1.73690        0.16010        4.57870
H          5.30070       -0.12680        2.17780
H          3.89750       -0.15020        0.10290
H          4.48480        2.40170        2.91650
H          5.44720        4.20620        1.76730
H          6.71470        4.36920        3.02100
H          3.89030        5.02730        3.98360
H          4.65320        6.19670        2.83990
H          6.04590        5.25410        5.10250
H          7.69720        3.35080        7.07440
H          3.65330       -2.56440        3.81580
H          2.57340       -4.75660        4.18470
H          1.31830       -7.51800        6.21330
H          2.55530       -6.96050        5.02920
H          0.91890       -6.18660        5.06710
H          2.96340       -4.23360        8.45750
H          4.03380       -2.00670        8.07770
