rmsd239.gzmat
 OpenBabel08211713373D

 50 53  0  0  1  0  0  0  0  0999 V2000
    0.0000    0.0000    0.0000 C   0  0  0  0  0  0  0  0  0  0  0  0
    1.4209    0.0000    0.0000 O   0  0  0  0  0  0  0  0  0  0  0  0
    2.0445    0.0000    1.2062 C   0  0  0  0  0  0  0  0  0  0  0  0
    1.4118    0.0510    2.4480 C   0  0  0  0  0  0  0  0  0  0  0  0
    2.1982    0.0788    3.5970 C   0  0  0  0  0  0  0  0  0  0  0  0
    3.5906    0.0589    3.5007 C   0  0  0  0  0  0  0  0  0  0  0  0
    4.2101   -0.0127    2.2451 C   0  0  0  0  0  0  0  0  0  0  0  0
    3.4450   -0.0387    1.0907 C   0  0  0  0  0  0  0  0  0  0  0  0
    4.4016    0.1241    4.6990 C   0  0  0  0  0  0  0  0  0  0  0  0
    5.1898    1.2591    5.1029 C   0  0  1  0  0  0  0  0  0  0  0  0
    5.4703    2.5673    4.6398 C   0  0  0  0  0  0  0  0  0  0  0  0
    4.8602    3.0783    3.5366 N   0  0  0  0  0  0  0  0  0  0  0  0
    5.1523    4.4162    3.0177 C   0  0  0  0  0  0  0  0  0  0  0  0
    6.4944    4.4627    2.2560 C   0  0  0  0  0  0  0  0  0  0  0  0
    7.5149    4.9740    3.0786 O   0  0  0  0  0  0  0  0  0  0  0  0
    6.3573    3.3411    5.3487 N   0  0  0  0  0  0  0  0  0  0  0  0
    6.8869    2.8592    6.4965 C   0  0  0  0  0  0  0  0  0  0  0  0
    6.6518    1.6440    7.0457 N   0  0  0  0  0  0  0  0  0  0  0  0
    5.8109    0.8812    6.3210 C   0  0  0  0  0  0  0  0  0  0  0  0
    5.4488   -0.3870    6.6851 O   0  0  0  0  0  0  0  0  0  0  0  0
    4.5788   -0.8336    5.6647 C   0  0  0  0  0  0  0  0  0  0  0  0
    4.0764   -2.1655    5.8726 C   0  0  0  0  0  0  0  0  0  0  0  0
    3.6996   -2.9467    4.7670 C   0  0  0  0  0  0  0  0  0  0  0  0
    3.1854   -4.2179    4.9523 C   0  0  0  0  0  0  0  0  0  0  0  0
    3.0538   -4.7113    6.2625 C   0  0  0  0  0  0  0  0  0  0  0  0
    2.5284   -5.9619    6.2997 O   0  0  0  0  0  0  0  0  0  0  0  0
    2.3822   -6.5724    7.5746 C   0  0  0  0  0  0  0  0  0  0  0  0
    3.4330   -3.9551    7.3724 C   0  0  0  0  0  0  0  0  0  0  0  0
    3.9470   -2.6778    7.1668 C   0  0  0  0  0  0  0  0  0  0  0  0
   -0.3900    0.9062    0.4735 H   0  0  0  0  0  0  0  0  0  0  0  0
   -0.3900   -0.9043    0.4780 H   0  0  0  0  0  0  0  0  0  0  0  0
   -0.2326   -0.0032   -1.0740 H   0  0  0  0  0  0  0  0  0  0  0  0
    0.3311    0.0672    2.5341 H   0  0  0  0  0  0  0  0  0  0  0  0
    1.7252    0.1183    4.5802 H   0  0  0  0  0  0  0  0  0  0  0  0
    5.2991   -0.0565    2.1835 H   0  0  0  0  0  0  0  0  0  0  0  0
    3.9016   -0.0958    0.1061 H   0  0  0  0  0  0  0  0  0  0  0  0
    4.2862    2.4663    2.9670 H   0  0  0  0  0  0  0  0  0  0  0  0
    5.1882    5.1504    3.8634 H   0  0  0  0  0  0  0  0  0  0  0  0
    4.3102    4.7257    2.3616 H   0  0  0  0  0  0  0  0  0  0  0  0
    6.4619    5.1735    1.4104 H   0  0  0  0  0  0  0  0  0  0  0  0
    6.8005    3.4666    1.8882 H   0  0  0  0  0  0  0  0  0  0  0  0
    7.4664    4.5483    3.9705 H   0  0  0  0  0  0  0  0  0  0  0  0
    7.5827    3.5257    7.0357 H   0  0  0  0  0  0  0  0  0  0  0  0
    3.8134   -2.5449    3.7568 H   0  0  0  0  0  0  0  0  0  0  0  0
    2.8858   -4.8384    4.1116 H   0  0  0  0  0  0  0  0  0  0  0  0
    1.9692   -7.5569    7.3144 H   0  0  0  0  0  0  0  0  0  0  0  0
    1.6759   -6.0137    8.1963 H   0  0  0  0  0  0  0  0  0  0  0  0
    3.3523   -6.6850    8.0682 H   0  0  0  0  0  0  0  0  0  0  0  0
    3.3309   -4.3402    8.3804 H   0  0  0  0  0  0  0  0  0  0  0  0
    4.2462   -2.0700    8.0241 H   0  0  0  0  0  0  0  0  0  0  0  0
  1 30  1  0  0  0  0
  1 31  1  0  0  0  0
  2  1  1  0  0  0  0
  2  3  1  0  0  0  0
  3  4  1  0  0  0  0
  4 33  1  0  0  0  0
  4  5  2  0  0  0  0
  5 34  1  0  0  0  0
  6  5  1  0  0  0  0
  6  9  1  0  0  0  0
  7  6  2  0  0  0  0
  8  3  2  0  0  0  0
  8  7  1  0  0  0  0
  9 21  2  0  0  0  0
 10  9  1  1  0  0  0
 10 11  1  0  0  0  0
 10 19  1  0  0  0  0
 11 16  2  0  0  0  0
 12 11  1  0  0  0  0
 13 12  1  0  0  0  0
 13 38  1  0  0  0  0
 14 13  1  0  0  0  0
 14 15  1  0  0  0  0
 15 42  1  0  0  0  0
 16 17  2  0  0  0  0
 17 43  1  0  0  0  0
 17 18  2  0  0  0  0
 19 20  1  0  0  0  0
 19 18  2  0  0  0  0
 21 22  1  0  0  0  0
 21 20  1  0  0  0  0
 22 29  2  0  0  0  0
 23 24  2  0  0  0  0
 23 22  1  0  0  0  0
 24 25  1  0  0  0  0
 25 26  1  0  0  0  0
 25 28  2  0  0  0  0
 26 27  1  0  0  0  0
 27 48  1  0  0  0  0
 27 47  1  0  0  0  0
 28 49  1  0  0  0  0
 29 28  1  0  0  0  0
 29 50  1  0  0  0  0
 32  1  1  0  0  0  0
 35  7  1  0  0  0  0
 36  8  1  0  0  0  0
 37 12  1  0  0  0  0
 39 13  1  0  0  0  0
 40 14  1  0  0  0  0
 41 14  1  0  0  0  0
 44 23  1  0  0  0  0
 45 24  1  0  0  0  0
 46 27  1  0  0  0  0
M  RAD  1  10   2
M  END
$$$$
