50
rmsd239.gzmat
C          0.00000        0.00000        0.00000
O          1.42090        0.00000        0.00000
C          2.04450        0.00000        1.20620
C          1.41180        0.05100        2.44800
C          2.19820        0.07880        3.59700
C          3.59060        0.05890        3.50070
C          4.21010       -0.01270        2.24510
C          3.44500       -0.03870        1.09070
C          4.40160        0.12410        4.69900
C          5.18980        1.25910        5.10290
C          5.47030        2.56730        4.63980
N          4.86020        3.07830        3.53660
C          5.15230        4.41620        3.01770
C          6.49440        4.46270        2.25600
O          7.51490        4.97400        3.07860
N          6.35730        3.34110        5.34870
C          6.88690        2.85920        6.49650
N          6.65180        1.64400        7.04570
C          5.81090        0.88120        6.32100
O          5.44880       -0.38700        6.68510
C          4.57880       -0.83360        5.66470
C          4.07640       -2.16550        5.87260
C          3.69960       -2.94670        4.76700
C          3.18540       -4.21790        4.95230
C          3.05380       -4.71130        6.26250
O          2.52840       -5.96190        6.29970
C          2.38220       -6.57240        7.57460
C          3.43300       -3.95510        7.37240
C          3.94700       -2.67780        7.16680
H         -0.39000        0.90620        0.47350
H         -0.39000       -0.90430        0.47800
H         -0.23260       -0.00320       -1.07400
H          0.33110        0.06720        2.53410
H          1.72520        0.11830        4.58020
H          5.29910       -0.05650        2.18350
H          3.90160       -0.09580        0.10610
H          4.28620        2.46630        2.96700
H          5.18820        5.15040        3.86340
H          4.31020        4.72570        2.36160
H          6.46190        5.17350        1.41040
H          6.80050        3.46660        1.88820
H          7.46640        4.54830        3.97050
H          7.58270        3.52570        7.03570
H          3.81340       -2.54490        3.75680
H          2.88580       -4.83840        4.11160
H          1.96920       -7.55690        7.31440
H          1.67590       -6.01370        8.19630
H          3.35230       -6.68500        8.06820
H          3.33090       -4.34020        8.38040
H          4.24620       -2.07000        8.02410
