
     RDKit          3D

 50 53  0  0  0  0  0  0  0  0999 V2000
   -0.0661   -0.3237    0.0003 C   0  0  0  0  0  0  0  0  0  0  0  0
    1.3252   -0.0989   -0.0468 O   0  0  0  0  0  0  0  0  0  0  0  0
    2.0257   -0.0613    1.1109 C   0  0  0  0  0  0  0  0  0  0  0  0
    1.4638   -0.2295    2.3864 C   0  0  0  0  0  0  0  0  0  0  0  0
    2.2788   -0.1655    3.5188 C   0  0  0  0  0  0  0  0  0  0  0  0
    3.6599    0.0536    3.4177 C   0  0  0  0  0  0  0  0  0  0  0  0
    4.2093    0.2151    2.1294 C   0  0  0  0  0  0  0  0  0  0  0  0
    3.4082    0.1640    0.9937 C   0  0  0  0  0  0  0  0  0  0  0  0
    4.5128    0.1427    4.6207 C   0  0  0  0  0  0  0  0  0  0  0  0
    5.2902    1.2899    5.0307 C   0  0  0  0  0  0  0  0  0  0  0  0
    5.5351    2.6178    4.5841 C   0  0  0  0  0  0  0  0  0  0  0  0
    4.9778    3.1127    3.4529 N   0  0  0  0  0  0  0  0  0  0  0  0
    4.9942    4.5095    3.0296 C   0  0  0  0  0  0  0  0  0  0  0  0
    6.3689    5.0820    2.6518 C   0  0  0  0  0  0  0  0  0  0  0  0
    7.1091    5.5436    3.7400 O   0  0  0  0  0  0  0  0  0  0  0  0
    6.3526    3.3942    5.3209 N   0  0  0  0  0  0  0  0  0  0  0  0
    6.8745    2.9143    6.4606 C   0  0  0  0  0  0  0  0  0  0  0  0
    6.6825    1.7104    6.9913 N   0  0  0  0  0  0  0  0  0  0  0  0
    5.8943    0.9489    6.2462 C   0  0  0  0  0  0  0  0  0  0  0  0
    5.5445   -0.3102    6.5916 O   0  0  0  0  0  0  0  0  0  0  0  0
    4.7141   -0.8066    5.6048 C   0  0  0  0  0  0  0  0  0  0  0  0
    4.2592   -2.1786    5.7931 C   0  0  0  0  0  0  0  0  0  0  0  0
    3.7581   -2.9480    4.7291 C   0  0  0  0  0  0  0  0  0  0  0  0
    3.3264   -4.2600    4.9234 C   0  0  0  0  0  0  0  0  0  0  0  0
    3.3948   -4.8389    6.2006 C   0  0  0  0  0  0  0  0  0  0  0  0
    3.0005   -6.1007    6.4922 O   0  0  0  0  0  0  0  0  0  0  0  0
    2.4866   -6.9140    5.4622 C   0  0  0  0  0  0  0  0  0  0  0  0
    3.9085   -4.0843    7.2697 C   0  0  0  0  0  0  0  0  0  0  0  0
    4.3341   -2.7799    7.0687 C   0  0  0  0  0  0  0  0  0  0  0  0
   -0.5901    0.4686    0.5641 H   0  0  0  0  0  0  0  0  0  0  0  0
   -0.3074   -1.3015    0.4544 H   0  0  0  0  0  0  0  0  0  0  0  0
   -0.4197   -0.3158   -1.0389 H   0  0  0  0  0  0  0  0  0  0  0  0
    0.3951   -0.4012    2.5105 H   0  0  0  0  0  0  0  0  0  0  0  0
    1.8328   -0.2915    4.5074 H   0  0  0  0  0  0  0  0  0  0  0  0
    5.2849    0.3745    2.0226 H   0  0  0  0  0  0  0  0  0  0  0  0
    3.8305    0.2848   -0.0054 H   0  0  0  0  0  0  0  0  0  0  0  0
    4.3416    2.4915    2.9692 H   0  0  0  0  0  0  0  0  0  0  0  0
    4.5637    5.1561    3.8161 H   0  0  0  0  0  0  0  0  0  0  0  0
    4.3290    4.5615    2.1547 H   0  0  0  0  0  0  0  0  0  0  0  0
    6.1971    5.9410    1.9787 H   0  0  0  0  0  0  0  0  0  0  0  0
    6.9044    4.3115    2.0523 H   0  0  0  0  0  0  0  0  0  0  0  0
    7.0110    4.8668    4.4454 H   0  0  0  0  0  0  0  0  0  0  0  0
    7.5303    3.5998    7.0086 H   0  0  0  0  0  0  0  0  0  0  0  0
    3.7150   -2.5248    3.7262 H   0  0  0  0  0  0  0  0  0  0  0  0
    2.9494   -4.8235    4.0706 H   0  0  0  0  0  0  0  0  0  0  0  0
    2.2350   -7.8792    5.9209 H   0  0  0  0  0  0  0  0  0  0  0  0
    3.2298   -7.0798    4.6618 H   0  0  0  0  0  0  0  0  0  0  0  0
    1.5742   -6.4804    5.0146 H   0  0  0  0  0  0  0  0  0  0  0  0
    3.9619   -4.5518    8.2544 H   0  0  0  0  0  0  0  0  0  0  0  0
    4.7338   -2.2046    7.9045 H   0  0  0  0  0  0  0  0  0  0  0  0
  1  2  1  0
  1 30  1  0
  1 31  1  0
  1 32  1  0
  2  3  1  0
  3  4  2  0
  3  8  1  0
  4  5  1  0
  4 33  1  0
  5  6  2  0
  5 34  1  0
  6  7  1  0
  6  9  1  0
  7  8  2  0
  7 35  1  0
  8 36  1  0
  9 10  1  0
  9 21  2  0
 10 11  2  0
 10 19  1  0
 11 12  1  0
 11 16  1  0
 12 13  1  0
 12 37  1  0
 13 14  1  0
 13 38  1  0
 13 39  1  0
 14 15  1  0
 14 40  1  0
 14 41  1  0
 15 42  1  0
 16 17  2  0
 17 18  1  0
 17 43  1  0
 18 19  2  0
 19 20  1  0
 20 21  1  0
 21 22  1  0
 22 23  2  0
 22 29  1  0
 23 24  1  0
 23 44  1  0
 24 25  2  0
 24 45  1  0
 25 26  1  0
 25 28  1  0
 26 27  1  0
 27 46  1  0
 27 47  1  0
 27 48  1  0
 28 29  2  0
 28 49  1  0
 29 50  1  0
M  END

