50
rmsd167.gzmat
C          0.00000        0.00000        0.00000
O          1.42070        0.00000        0.00000
C          2.04760        0.00000        1.20430
C          1.42060        0.06380        2.44850
C          2.21230        0.10100        3.59400
C          3.60430        0.07810        3.49200
C          4.21730       -0.01490        2.23400
C          3.44710       -0.05010        1.08360
C          4.42540        0.18050        4.68090
C          5.22840        1.32680        5.02190
C          5.50940        2.61250        4.49880
N          4.89490        3.07810        3.37860
C          5.16900        4.40040        2.81170
C          6.51420        4.44330        2.05500
O          7.52300        4.99600        2.86470
N          6.40570        3.41290        5.16580
C          6.94780        2.97840        6.32630
N          6.71460        1.78900        6.92980
C          5.86200        1.00030        6.24820
O          5.49550       -0.24650        6.67440
C          4.60660       -0.73250        5.68840
C          4.10760       -2.05200        5.96940
C          3.64760       -2.86010        4.91620
C          3.16150       -4.13040        5.17060
C          3.14390       -4.59640        6.49730
O          2.65050       -5.85610        6.60360
C          2.66410       -6.45700        7.89130
C          3.59280       -3.80770        7.55740
C          4.07640       -2.53170        7.28280
H         -0.39210        0.90880        0.46650
H         -0.39100       -0.90130        0.48270
H         -0.23040       -0.00960       -1.07470
H          0.34010        0.08710        2.53790
H          1.74440        0.15240        4.57910
H          5.30620       -0.06440        2.16810
H          3.89970       -0.12090        0.09770
H          4.30450        2.44950        2.84530
H          5.18840        5.16600        3.62930
H          4.32570        4.67020        2.13910
H          6.47420        5.12880        1.18900
H          6.83590        3.44100        1.71950
H          7.48330        4.59110        3.76650
H          7.65240        3.66430        6.82850
H          3.67940       -2.48150        3.89120
H          2.80170       -4.77170        4.36990
H          2.28830       -7.46770        7.67940
H          1.98730       -5.93100        8.57140
H          3.68110       -6.50670        8.29250
H          3.57090       -4.16830        8.57980
H          4.43230       -1.90140        8.10160
