50

C         -0.06610       -0.32370        0.00030
O          1.32520       -0.09890       -0.04680
C          2.02570       -0.06130        1.11090
C          1.46380       -0.22950        2.38640
C          2.27880       -0.16550        3.51880
C          3.65990        0.05360        3.41770
C          4.20930        0.21510        2.12940
C          3.40820        0.16400        0.99370
C          4.51280        0.14270        4.62070
C          5.29020        1.28990        5.03070
C          5.53510        2.61780        4.58410
N          4.97780        3.11270        3.45290
C          4.99420        4.50950        3.02960
C          6.36890        5.08200        2.65180
O          7.10910        5.54360        3.74000
N          6.35260        3.39420        5.32090
C          6.87450        2.91430        6.46060
N          6.68250        1.71040        6.99130
C          5.89430        0.94890        6.24620
O          5.54450       -0.31020        6.59160
C          4.71410       -0.80660        5.60480
C          4.25920       -2.17860        5.79310
C          3.75810       -2.94800        4.72910
C          3.32640       -4.26000        4.92340
C          3.39480       -4.83890        6.20060
O          3.00050       -6.10070        6.49220
C          2.48660       -6.91400        5.46220
C          3.90850       -4.08430        7.26970
C          4.33410       -2.77990        7.06870
H         -0.59010        0.46860        0.56410
H         -0.30740       -1.30150        0.45440
H         -0.41970       -0.31580       -1.03890
H          0.39510       -0.40120        2.51050
H          1.83280       -0.29150        4.50740
H          5.28490        0.37450        2.02260
H          3.83050        0.28480       -0.00540
H          4.34160        2.49150        2.96920
H          4.56370        5.15610        3.81610
H          4.32900        4.56150        2.15470
H          6.19710        5.94100        1.97870
H          6.90440        4.31150        2.05230
H          7.01100        4.86680        4.44540
H          7.53030        3.59980        7.00860
H          3.71500       -2.52480        3.72620
H          2.94940       -4.82350        4.07060
H          2.23500       -7.87920        5.92090
H          3.22980       -7.07980        4.66180
H          1.57420       -6.48040        5.01460
H          3.96190       -4.55180        8.25440
H          4.73380       -2.20460        7.90450
