50

C         -0.02050        0.19970       -0.12560
O          1.38070        0.04080       -0.10790
C          2.02360       -0.00040        1.08230
C          3.42020       -0.15130        1.02940
C          4.16520       -0.19980        2.20260
C          3.54470       -0.10950        3.46530
C          2.15090        0.03540        3.50210
C          1.39090        0.09610        2.33180
C          4.34110       -0.19860        4.70660
C          5.13820       -1.32940        5.12450
C          5.46080       -2.63070        4.65030
N          4.97370       -3.11430        3.48290
C          5.40810       -4.33390        2.80980
C          5.08500       -5.65330        3.52760
O          6.01910       -6.01010        4.50030
N          6.27100       -3.39800        5.40480
C          6.73050       -2.92710        6.57460
N          6.46810       -1.74670        7.12820
C          5.67430       -0.99980        6.37430
O          5.26330        0.23640        6.73490
C          4.45930        0.72910        5.72410
C          3.94100        2.07570        5.92890
C          3.95550        2.64930        7.21190
C          3.46790        3.93650        7.43950
C          2.95180        4.68690        6.37240
O          2.45240        5.94000        6.48550
C          2.44430        6.56240        7.75050
C          2.94470        4.12910        5.08100
C          3.43270        2.85010        4.86250
H         -0.33020        1.14940        0.34600
H         -0.53360       -0.63460        0.38520
H         -0.32080        0.21050       -1.18140
H          3.89720       -0.21520        0.04980
H          5.25200       -0.29750        2.14680
H          1.65030        0.10520        4.46990
H          0.31000        0.21020        2.40610
H          4.34990       -2.49960        2.97570
H          6.49870       -4.30500        2.63360
H          4.91250       -4.32380        1.82740
H          5.07640       -6.45310        2.76550
H          4.04680       -5.58040        3.92300
H          6.22870       -5.18790        4.99560
H          7.38620       -3.60310        7.13440
H          4.35740        2.07300        8.04600
H          3.49560        4.34190        8.45040
H          2.00470        7.55810        7.60700
H          3.46500        6.67540        8.15750
H          1.83220        6.00100        8.47900
H          2.55610        4.73300        4.25920
H          3.43420        2.44870        3.84990
