
     RDKit          3D

 50 53  0  0  0  0  0  0  0  0999 V2000
   -0.1372   -0.2468    0.0581 C   0  0  0  0  0  0  0  0  0  0  0  0
    1.2638   -0.1037   -0.0160 O   0  0  0  0  0  0  0  0  0  0  0  0
    1.9835   -0.0676    1.1296 C   0  0  0  0  0  0  0  0  0  0  0  0
    1.4325   -0.1525    2.4181 C   0  0  0  0  0  0  0  0  0  0  0  0
    2.2679   -0.0989    3.5360 C   0  0  0  0  0  0  0  0  0  0  0  0
    3.6583    0.0273    3.4080 C   0  0  0  0  0  0  0  0  0  0  0  0
    4.1962    0.1066    2.1072 C   0  0  0  0  0  0  0  0  0  0  0  0
    3.3754    0.0653    0.9853 C   0  0  0  0  0  0  0  0  0  0  0  0
    4.5344    0.1037    4.5950 C   0  0  0  0  0  0  0  0  0  0  0  0
    5.3899    1.2129    4.9512 C   0  0  0  0  0  0  0  0  0  0  0  0
    5.7118    2.5051    4.4516 C   0  0  0  0  0  0  0  0  0  0  0  0
    5.1699    2.9927    3.3101 N   0  0  0  0  0  0  0  0  0  0  0  0
    5.2687    4.3690    2.8341 C   0  0  0  0  0  0  0  0  0  0  0  0
    6.6713    4.8382    2.4181 C   0  0  0  0  0  0  0  0  0  0  0  0
    7.4549    5.2920    3.4789 O   0  0  0  0  0  0  0  0  0  0  0  0
    6.5880    3.2542    5.1483 N   0  0  0  0  0  0  0  0  0  0  0  0
    7.0960    2.7841    6.2982 C   0  0  0  0  0  0  0  0  0  0  0  0
    6.8365    1.6149    6.8761 N   0  0  0  0  0  0  0  0  0  0  0  0
    5.9902    0.8788    6.1703 C   0  0  0  0  0  0  0  0  0  0  0  0
    5.5666   -0.3419    6.5675 O   0  0  0  0  0  0  0  0  0  0  0  0
    4.6903   -0.8200    5.6114 C   0  0  0  0  0  0  0  0  0  0  0  0
    4.1523   -2.1519    5.8579 C   0  0  0  0  0  0  0  0  0  0  0  0
    3.5693   -2.9239    4.8287 C   0  0  0  0  0  0  0  0  0  0  0  0
    3.0656   -4.1893    5.0862 C   0  0  0  0  0  0  0  0  0  0  0  0
    3.1305   -4.7357    6.3810 C   0  0  0  0  0  0  0  0  0  0  0  0
    2.6102   -5.9759    6.5337 O   0  0  0  0  0  0  0  0  0  0  0  0
    2.6580   -6.5872    7.8033 C   0  0  0  0  0  0  0  0  0  0  0  0
    3.7208   -3.9878    7.4108 C   0  0  0  0  0  0  0  0  0  0  0  0
    4.2239   -2.7141    7.1440 C   0  0  0  0  0  0  0  0  0  0  0  0
   -0.6067    0.5949    0.5981 H   0  0  0  0  0  0  0  0  0  0  0  0
   -0.4261   -1.1914    0.5525 H   0  0  0  0  0  0  0  0  0  0  0  0
   -0.5058   -0.2574   -0.9758 H   0  0  0  0  0  0  0  0  0  0  0  0
    0.3573   -0.2524    2.5630 H   0  0  0  0  0  0  0  0  0  0  0  0
    1.8305   -0.1605    4.5346 H   0  0  0  0  0  0  0  0  0  0  0  0
    5.2779    0.1921    1.9797 H   0  0  0  0  0  0  0  0  0  0  0  0
    3.7885    0.1215   -0.0233 H   0  0  0  0  0  0  0  0  0  0  0  0
    4.4891    2.3957    2.8576 H   0  0  0  0  0  0  0  0  0  0  0  0
    4.8917    5.0704    3.6009 H   0  0  0  0  0  0  0  0  0  0  0  0
    4.5953    4.4311    1.9662 H   0  0  0  0  0  0  0  0  0  0  0  0
    6.5444    5.6807    1.7148 H   0  0  0  0  0  0  0  0  0  0  0  0
    7.1482    4.0132    1.8420 H   0  0  0  0  0  0  0  0  0  0  0  0
    7.3248    4.6493    4.2105 H   0  0  0  0  0  0  0  0  0  0  0  0
    7.8022    3.4459    6.8116 H   0  0  0  0  0  0  0  0  0  0  0  0
    3.5249   -2.5317    3.8134 H   0  0  0  0  0  0  0  0  0  0  0  0
    2.6195   -4.7916    4.2928 H   0  0  0  0  0  0  0  0  0  0  0  0
    2.1894   -7.5740    7.6938 H   0  0  0  0  0  0  0  0  0  0  0  0
    2.0994   -6.0060    8.5587 H   0  0  0  0  0  0  0  0  0  0  0  0
    3.6968   -6.7195    8.1548 H   0  0  0  0  0  0  0  0  0  0  0  0
    3.7945   -4.3848    8.4227 H   0  0  0  0  0  0  0  0  0  0  0  0
    4.6838   -2.1400    7.9491 H   0  0  0  0  0  0  0  0  0  0  0  0
  1  2  1  0
  1 30  1  0
  1 31  1  0
  1 32  1  0
  2  3  1  0
  3  4  2  0
  3  8  1  0
  4  5  1  0
  4 33  1  0
  5  6  2  0
  5 34  1  0
  6  7  1  0
  6  9  1  0
  7  8  2  0
  7 35  1  0
  8 36  1  0
  9 10  1  0
  9 21  2  0
 10 11  2  0
 10 19  1  0
 11 12  1  0
 11 16  1  0
 12 13  1  0
 12 37  1  0
 13 14  1  0
 13 38  1  0
 13 39  1  0
 14 15  1  0
 14 40  1  0
 14 41  1  0
 15 42  1  0
 16 17  2  0
 17 18  1  0
 17 43  1  0
 18 19  2  0
 19 20  1  0
 20 21  1  0
 21 22  1  0
 22 23  2  0
 22 29  1  0
 23 24  1  0
 23 44  1  0
 24 25  2  0
 24 45  1  0
 25 26  1  0
 25 28  1  0
 26 27  1  0
 27 46  1  0
 27 47  1  0
 27 48  1  0
 28 29  2  0
 28 49  1  0
 29 50  1  0
M  END

