50
rmsd145.gzmat
C          0.00000        0.00000        0.00000
O          1.42070        0.00000        0.00000
C          2.04930        0.00000        1.20340
C          3.44850        0.05850        1.07950
C          4.22070        0.03860        2.22870
C          3.61100       -0.05010        3.48890
C          2.21960       -0.09050        3.59350
C          1.42560       -0.06670        2.44890
C          4.43870       -0.11380        4.67560
C          5.33030       -1.19810        4.99890
C          5.69800       -2.45820        4.46720
N          5.09180       -2.97330        3.36430
C          5.45400       -4.27140        2.79120
C          6.77160       -4.20570        1.98880
O          7.84620       -4.68010        2.76310
N          6.67000       -3.18660        5.11000
C          7.20060       -2.71370        6.26090
N          6.88220       -1.55110        6.87770
C          5.95500       -0.83060        6.21850
O          5.49520        0.37870        6.66190
C          4.55850        0.80140        5.69050
C          3.95590        2.07240        5.99220
C          3.87070        2.51770        7.31530
C          3.28040        3.74280        7.61170
C          2.77630        4.51520        6.56440
O          2.17080        5.72290        6.69240
C          2.07220        6.27020        8.00010
C          2.85420        4.08610        5.22750
C          3.44720        2.86670        4.95130
H         -0.39360        0.89050        0.49970
H         -0.39010       -0.91910        0.44710
H         -0.23000        0.03190       -1.07420
H          3.89840        0.12670        0.09240
H          5.30850        0.10200        2.16080
H          1.75340       -0.14340        4.57960
H          0.34580       -0.10040        2.54060
H          4.44060       -2.39410        2.84630
H          4.61350       -4.61330        2.14940
H          5.56590       -5.02860        3.60990
H          7.00270       -3.17980        1.64950
H          6.75720       -4.88770        1.11940
H          7.80000       -4.28430        3.66880
H          7.97070       -3.34080        6.74310
H          4.26690        1.90010        8.12550
H          3.22080        4.07670        8.64140
H          1.58570        7.23700        7.81010
H          3.06330        6.42160        8.43950
H          1.44130        5.64340        8.63760
H          2.45460        4.71510        4.43620
H          3.52180        2.51720        3.91800
