50
rmsd244.gzmat
C          0.00000        0.00000        0.00000
O          1.42100        0.00000        0.00000
C          2.04810        0.00000        1.20420
C          1.42300        0.10660        2.44650
C          2.21410        0.12770        3.59270
C          3.60400        0.04580        3.49310
C          4.21510       -0.07860        2.23750
C          3.44540       -0.09810        1.08610
C          4.42320        0.11960        4.68550
C          5.21220        1.26630        5.05600
C          5.49210        2.56080        4.55480
N          4.89490        3.03430        3.42830
C          5.19090        4.35460        2.86830
C          6.55460        4.38880        2.14450
O          7.53840        4.96000        2.97230
N          6.36980        3.35950        5.24770
C          6.89860        2.91120        6.40920
N          6.67390        1.70700        6.98660
C          5.83880        0.92140        6.28010
O          5.48710       -0.34020        6.67350
C          4.61110       -0.81720        5.67010
C          4.13600       -2.15280        5.91540
C          3.54590       -2.88810        4.87350
C          3.07660       -4.17070        5.09730
C          3.21290       -4.72750        6.38080
O          2.71290       -5.98640        6.46400
C          2.88510       -6.67680        7.69450
C          3.80210       -4.01750        7.42790
C          4.25990       -2.72570        7.18610
H         -0.39000        0.93010        0.42430
H         -0.39360       -0.87700        0.52300
H         -0.23150       -0.05830       -1.07280
H          0.34470        0.17510        2.53440
H          1.74720        0.21130        4.57620
H          5.30110       -0.16730        2.17360
H          3.89730       -0.19490        0.10250
H          4.32350        2.40510        2.87550
H          5.19620        5.11950        3.68690
H          4.36630        4.63090        2.17670
H          6.53580        5.05770        1.26510
H          6.88900        3.38200        1.83560
H          7.47750        4.56610        3.87770
H          7.58600        3.59660        6.93530
H          3.46050       -2.44450        3.87810
H          2.61310       -4.75230        4.30440
H          2.43140       -7.65360        7.47820
H          2.34520       -6.17500        8.50300
H          3.94710       -6.79440        7.93140
H          3.90550       -4.45080        8.41620
H          4.71950       -2.15740        7.99880
