rmsd145.gzmat
 OpenBabel08211713373D

 50 53  0  0  1  0  0  0  0  0999 V2000
    0.0000    0.0000    0.0000 C   0  0  0  0  0  0  0  0  0  0  0  0
    1.4207    0.0000    0.0000 O   0  0  0  0  0  0  0  0  0  0  0  0
    2.0493    0.0000    1.2034 C   0  0  0  0  0  0  0  0  0  0  0  0
    3.4485    0.0585    1.0795 C   0  0  0  0  0  0  0  0  0  0  0  0
    4.2207    0.0386    2.2287 C   0  0  0  0  0  0  0  0  0  0  0  0
    3.6110   -0.0501    3.4889 C   0  0  0  0  0  0  0  0  0  0  0  0
    2.2196   -0.0905    3.5935 C   0  0  0  0  0  0  0  0  0  0  0  0
    1.4256   -0.0667    2.4489 C   0  0  0  0  0  0  0  0  0  0  0  0
    4.4387   -0.1138    4.6756 C   0  0  0  0  0  0  0  0  0  0  0  0
    5.3303   -1.1981    4.9989 C   0  0  2  0  0  0  0  0  0  0  0  0
    5.6980   -2.4582    4.4672 C   0  0  0  0  0  0  0  0  0  0  0  0
    5.0918   -2.9733    3.3643 N   0  0  0  0  0  0  0  0  0  0  0  0
    5.4540   -4.2714    2.7912 C   0  0  0  0  0  0  0  0  0  0  0  0
    6.7716   -4.2057    1.9888 C   0  0  0  0  0  0  0  0  0  0  0  0
    7.8462   -4.6801    2.7631 O   0  0  0  0  0  0  0  0  0  0  0  0
    6.6700   -3.1866    5.1100 N   0  0  0  0  0  0  0  0  0  0  0  0
    7.2006   -2.7137    6.2609 C   0  0  0  0  0  0  0  0  0  0  0  0
    6.8822   -1.5511    6.8777 N   0  0  0  0  0  0  0  0  0  0  0  0
    5.9550   -0.8306    6.2185 C   0  0  0  0  0  0  0  0  0  0  0  0
    5.4952    0.3787    6.6619 O   0  0  0  0  0  0  0  0  0  0  0  0
    4.5585    0.8014    5.6905 C   0  0  0  0  0  0  0  0  0  0  0  0
    3.9559    2.0724    5.9922 C   0  0  0  0  0  0  0  0  0  0  0  0
    3.8707    2.5177    7.3153 C   0  0  0  0  0  0  0  0  0  0  0  0
    3.2804    3.7428    7.6117 C   0  0  0  0  0  0  0  0  0  0  0  0
    2.7763    4.5152    6.5644 C   0  0  0  0  0  0  0  0  0  0  0  0
    2.1708    5.7229    6.6924 O   0  0  0  0  0  0  0  0  0  0  0  0
    2.0722    6.2702    8.0001 C   0  0  0  0  0  0  0  0  0  0  0  0
    2.8542    4.0861    5.2275 C   0  0  0  0  0  0  0  0  0  0  0  0
    3.4472    2.8667    4.9513 C   0  0  0  0  0  0  0  0  0  0  0  0
   -0.3936    0.8905    0.4997 H   0  0  0  0  0  0  0  0  0  0  0  0
   -0.3901   -0.9191    0.4471 H   0  0  0  0  0  0  0  0  0  0  0  0
   -0.2300    0.0319   -1.0742 H   0  0  0  0  0  0  0  0  0  0  0  0
    3.8984    0.1267    0.0924 H   0  0  0  0  0  0  0  0  0  0  0  0
    5.3085    0.1020    2.1608 H   0  0  0  0  0  0  0  0  0  0  0  0
    1.7534   -0.1434    4.5796 H   0  0  0  0  0  0  0  0  0  0  0  0
    0.3458   -0.1004    2.5406 H   0  0  0  0  0  0  0  0  0  0  0  0
    4.4406   -2.3941    2.8463 H   0  0  0  0  0  0  0  0  0  0  0  0
    4.6135   -4.6133    2.1494 H   0  0  0  0  0  0  0  0  0  0  0  0
    5.5659   -5.0286    3.6099 H   0  0  0  0  0  0  0  0  0  0  0  0
    7.0027   -3.1798    1.6495 H   0  0  0  0  0  0  0  0  0  0  0  0
    6.7572   -4.8877    1.1194 H   0  0  0  0  0  0  0  0  0  0  0  0
    7.8000   -4.2843    3.6688 H   0  0  0  0  0  0  0  0  0  0  0  0
    7.9707   -3.3408    6.7431 H   0  0  0  0  0  0  0  0  0  0  0  0
    4.2669    1.9001    8.1255 H   0  0  0  0  0  0  0  0  0  0  0  0
    3.2208    4.0767    8.6414 H   0  0  0  0  0  0  0  0  0  0  0  0
    1.5857    7.2370    7.8101 H   0  0  0  0  0  0  0  0  0  0  0  0
    3.0633    6.4216    8.4395 H   0  0  0  0  0  0  0  0  0  0  0  0
    1.4413    5.6434    8.6376 H   0  0  0  0  0  0  0  0  0  0  0  0
    2.4546    4.7151    4.4362 H   0  0  0  0  0  0  0  0  0  0  0  0
    3.5218    2.5172    3.9180 H   0  0  0  0  0  0  0  0  0  0  0  0
  1 31  1  0  0  0  0
  1 30  1  0  0  0  0
  2  1  1  0  0  0  0
  2  3  1  0  0  0  0
  3  8  1  0  0  0  0
  4  3  2  0  0  0  0
  4  5  1  0  0  0  0
  5  6  2  0  0  0  0
  6  7  1  0  0  0  0
  6  9  1  0  0  0  0
  7 35  1  0  0  0  0
  8 36  1  0  0  0  0
  8  7  2  0  0  0  0
  9 21  2  0  0  0  0
 10  9  1  1  0  0  0
 10 11  1  0  0  0  0
 10 19  1  0  0  0  0
 11 16  2  0  0  0  0
 12 11  1  0  0  0  0
 13 12  1  0  0  0  0
 13 39  1  0  0  0  0
 14 15  1  0  0  0  0
 14 13  1  0  0  0  0
 15 42  1  0  0  0  0
 16 17  2  0  0  0  0
 17 43  1  0  0  0  0
 17 18  2  0  0  0  0
 19 20  1  0  0  0  0
 19 18  2  0  0  0  0
 21 22  1  0  0  0  0
 21 20  1  0  0  0  0
 22 23  2  0  0  0  0
 23 24  1  0  0  0  0
 23 44  1  0  0  0  0
 24 45  1  0  0  0  0
 25 26  1  0  0  0  0
 25 24  2  0  0  0  0
 26 27  1  0  0  0  0
 27 47  1  0  0  0  0
 27 48  1  0  0  0  0
 28 25  1  0  0  0  0
 29 28  2  0  0  0  0
 29 22  1  0  0  0  0
 32  1  1  0  0  0  0
 33  4  1  0  0  0  0
 34  5  1  0  0  0  0
 37 12  1  0  0  0  0
 38 13  1  0  0  0  0
 40 14  1  0  0  0  0
 41 14  1  0  0  0  0
 46 27  1  0  0  0  0
 49 28  1  0  0  0  0
 50 29  1  0  0  0  0
M  RAD  1  10   2
M  END
$$$$
