rmsd122.gzmat
 OpenBabel08211713373D

 50 52  0  0  1  0  0  0  0  0999 V2000
    0.0000    0.0000    0.0000 C   0  0  0  0  0  0  0  0  0  0  0  0
    1.4209    0.0000    0.0000 O   0  0  0  0  0  0  0  0  0  0  0  0
    2.0465    0.0000    1.2053 C   0  0  0  0  0  0  0  0  0  0  0  0
    1.4175    0.0826    2.4475 C   0  0  0  0  0  0  0  0  0  0  0  0
    2.2066    0.0994    3.5948 C   0  0  0  0  0  0  0  0  0  0  0  0
    3.5983    0.0389    3.4974 C   0  0  0  0  0  0  0  0  0  0  0  0
    4.2130   -0.0574    2.2410 C   0  0  0  0  0  0  0  0  0  0  0  0
    3.4448   -0.0752    1.0882 C   0  0  0  0  0  0  0  0  0  0  0  0
    4.4071    0.0805    4.6983 C   0  0  0  0  0  0  0  0  0  0  0  0
    5.2687    1.1661    5.0888 C   0  0  1  0  0  0  0  0  0  0  0  0
    5.6601    2.4347    4.5972 C   0  0  0  0  0  0  0  0  0  0  0  0
    5.2336    2.8960    3.3891 N   0  0  0  0  0  0  0  0  0  0  0  0
    5.6162    4.2097    2.8658 C   0  0  0  0  0  0  0  0  0  0  0  0
    4.8450    5.3637    3.5412 C   0  0  0  0  0  0  0  0  0  0  0  0
    5.6268    5.9585    4.5487 O   0  0  0  0  0  0  0  0  0  0  0  0
    6.5202    3.1967    5.3496 N   0  0  0  0  0  0  0  0  0  0  0  0
    6.9963    2.7052    6.5167 C   0  0  0  0  0  0  0  0  0  0  0  0
    6.6905    1.5086    7.0706 N   0  0  0  0  0  0  0  0  0  0  0  0
    5.8289    0.7811    6.3344 C   0  0  0  0  0  0  0  0  0  0  0  0
    5.3754   -0.4507    6.7196 O   0  0  0  0  0  0  0  0  0  0  0  0
    4.4963   -0.8606    5.6929 C   0  0  0  0  0  0  0  0  0  0  0  0
    3.8984   -2.1486    5.9218 C   0  0  0  0  0  0  0  0  0  0  0  0
    3.4938   -2.9287    4.8337 C   0  0  0  0  0  0  0  0  0  0  0  0
    2.8903   -4.1658    5.0363 C   0  0  0  0  0  0  0  0  0  0  0  0
    2.7102   -4.6153    6.3452 C   0  0  0  0  0  0  0  0  0  0  0  0
    2.1423   -5.7946    6.7028 O   0  0  0  0  0  0  0  0  0  0  0  0
    1.7122   -6.6559    5.6571 C   0  0  0  0  0  0  0  0  0  0  0  0
    3.1184   -3.8502    7.4523 C   0  0  0  0  0  0  0  0  0  0  0  0
    3.7114   -2.6190    7.2317 C   0  0  0  0  0  0  0  0  0  0  0  0
   -0.3895    0.9240    0.4382 H   0  0  0  0  0  0  0  0  0  0  0  0
   -0.3929   -0.8841    0.5115 H   0  0  0  0  0  0  0  0  0  0  0  0
   -0.2317   -0.0429   -1.0734 H   0  0  0  0  0  0  0  0  0  0  0  0
    0.3381    0.1347    2.5340 H   0  0  0  0  0  0  0  0  0  0  0  0
    1.7369    0.1601    4.5787 H   0  0  0  0  0  0  0  0  0  0  0  0
    5.3007   -0.1268    2.1778 H   0  0  0  0  0  0  0  0  0  0  0  0
    3.8975   -0.1502    0.1029 H   0  0  0  0  0  0  0  0  0  0  0  0
    4.4848    2.4017    2.9165 H   0  0  0  0  0  0  0  0  0  0  0  0
    5.4472    4.2062    1.7673 H   0  0  0  0  0  0  0  0  0  0  0  0
    6.7147    4.3692    3.0210 H   0  0  0  0  0  0  0  0  0  0  0  0
    3.8903    5.0273    3.9836 H   0  0  0  0  0  0  0  0  0  0  0  0
    4.6532    6.1967    2.8399 H   0  0  0  0  0  0  0  0  0  0  0  0
    6.0459    5.2541    5.1025 H   0  0  0  0  0  0  0  0  0  0  0  0
    7.6972    3.3508    7.0744 H   0  0  0  0  0  0  0  0  0  0  0  0
    3.6533   -2.5644    3.8158 H   0  0  0  0  0  0  0  0  0  0  0  0
    2.5734   -4.7566    4.1847 H   0  0  0  0  0  0  0  0  0  0  0  0
    1.3183   -7.5180    6.2133 H   0  0  0  0  0  0  0  0  0  0  0  0
    2.5553   -6.9605    5.0292 H   0  0  0  0  0  0  0  0  0  0  0  0
    0.9189   -6.1866    5.0671 H   0  0  0  0  0  0  0  0  0  0  0  0
    2.9634   -4.2336    8.4575 H   0  0  0  0  0  0  0  0  0  0  0  0
    4.0338   -2.0067    8.0777 H   0  0  0  0  0  0  0  0  0  0  0  0
  1 30  1  0  0  0  0
  1 31  1  0  0  0  0
  2  1  1  0  0  0  0
  2  3  1  0  0  0  0
  3  4  1  0  0  0  0
  4 33  1  0  0  0  0
  4  5  2  0  0  0  0
  5 34  1  0  0  0  0
  6  5  1  0  0  0  0
  6  9  1  0  0  0  0
  7  6  2  0  0  0  0
  8  3  2  0  0  0  0
  8  7  1  0  0  0  0
  9 21  2  0  0  0  0
 10  9  1  1  0  0  0
 10 11  1  0  0  0  0
 10 19  1  0  0  0  0
 11 16  2  0  0  0  0
 12 11  1  0  0  0  0
 13 39  1  0  0  0  0
 13 12  1  0  0  0  0
 13 14  1  0  0  0  0
 14 40  1  0  0  0  0
 14 15  1  0  0  0  0
 15 42  1  0  0  0  0
 16 17  2  0  0  0  0
 17 18  2  0  0  0  0
 17 43  1  0  0  0  0
 19 20  1  0  0  0  0
 19 18  2  0  0  0  0
 21 22  1  0  0  0  0
 21 20  1  0  0  0  0
 22 29  2  0  0  0  0
 23 24  2  0  0  0  0
 23 22  1  0  0  0  0
 24 25  1  0  0  0  0
 25 26  1  0  0  0  0
 25 28  2  0  0  0  0
 27 46  1  0  0  0  0
 27 26  1  0  0  0  0
 28 49  1  0  0  0  0
 29 28  1  0  0  0  0
 29 50  1  0  0  0  0
 32  1  1  0  0  0  0
 35  7  1  0  0  0  0
 36  8  1  0  0  0  0
 37 12  1  0  0  0  0
 41 14  1  0  0  0  0
 44 23  1  0  0  0  0
 45 24  1  0  0  0  0
 47 27  1  0  0  0  0
 48 27  1  0  0  0  0
M  RAD  3  10   2  13   2  38   2
M  END
$$$$
