63
rmsd213.gzmat
C          0.00000        0.00000        0.00000
H          1.13040        0.00000        0.00000
C         -0.44700        0.00000       -1.46560
H         -0.15260        0.95910       -1.97470
O          0.39730       -0.91660       -2.16860
C          0.31130       -2.23480       -1.81500
C          0.72460       -3.10810       -2.82960
C          0.70370       -4.47620       -2.59850
C          0.26020       -4.93510       -1.35490
O          0.13130       -6.26260       -1.07490
C         -0.12900       -4.07590       -0.32630
C         -0.09430       -2.70410       -0.56150
S         -0.54090       -1.61230        0.74350
C         -1.88570       -0.34220       -1.75550
C         -2.91940       -0.14740       -0.84240
C         -4.20520       -0.61600       -1.11460
C         -4.42200       -1.28170       -2.31370
C         -3.43130       -1.40300       -3.29290
C         -2.16500       -0.91240       -3.00560
O         -5.59220       -1.91550       -2.66630
C         -6.47800       -2.28000       -1.62970
C         -5.82040       -3.31430       -0.69430
N         -4.95680       -4.26800       -1.48810
H         -4.48200       -3.72300       -2.26440
C         -3.88320       -4.88200       -0.60330
C         -2.96790       -5.75570       -1.45870
C         -3.75480       -6.84250       -2.19000
C         -4.89550       -6.23260       -3.00770
C         -5.79330       -5.36430       -2.12340
C         -0.46130        1.13020        0.85350
C         -1.16840        2.21800        0.32370
C         -1.58070        3.26390        1.13610
C         -1.26260        3.21700        2.49920
O         -1.71500        4.26050        3.23240
C         -0.52900        2.16430        3.04930
C         -0.12300        1.13050        2.21250
H          1.06600       -2.70100       -3.78330
H          1.03170       -5.17230       -3.36720
H          0.68230       -6.82430       -1.67360
H         -0.41120       -4.49670        0.63920
H         -2.74530        0.36470        0.11040
H         -5.00470       -0.43530       -0.40310
H         -3.65880       -1.85170       -4.25730
H         -1.37210       -0.98950       -3.75850
H         -7.33510       -2.69120       -2.20370
H         -6.83150       -1.39290       -1.06690
H         -6.59020       -3.86880       -0.11420
H         -5.18080       -2.78690        0.05770
H         -3.29670       -4.06510       -0.11800
H         -4.36270       -5.47330        0.20760
H         -2.38350       -5.14190       -2.17490
H         -2.18480       -6.22230       -0.81020
H         -4.14480       -7.59130       -1.47210
H         -3.07430       -7.41590       -2.85580
H         -5.50370       -7.03800       -3.47590
H         -4.49310       -5.65190       -3.86290
H         -6.27510       -5.97440       -1.32720
H         -6.60860       -4.89780       -2.72260
H         -1.40080        2.26310       -0.74130
H         -2.13280        4.11460        0.73910
H         -1.42680        4.21620        4.17880
H         -0.27130        2.15210        4.10410
H          0.47570        0.32040        2.63600
