rmsd213.gzmat
 OpenBabel08211713363D

 63 67  0  0  1  0  0  0  0  0999 V2000
    0.0000    0.0000    0.0000 C   0  0  2  0  0  0  0  0  0  0  0  0
    1.1304    0.0000    0.0000 H   0  0  0  0  0  0  0  0  0  0  0  0
   -0.4470    0.0000   -1.4656 C   0  0  1  0  0  0  0  0  0  0  0  0
   -0.1526    0.9591   -1.9747 H   0  0  0  0  0  0  0  0  0  0  0  0
    0.3973   -0.9166   -2.1686 O   0  0  0  0  0  0  0  0  0  0  0  0
    0.3113   -2.2348   -1.8150 C   0  0  0  0  0  0  0  0  0  0  0  0
    0.7246   -3.1081   -2.8296 C   0  0  0  0  0  0  0  0  0  0  0  0
    0.7037   -4.4762   -2.5985 C   0  0  0  0  0  0  0  0  0  0  0  0
    0.2602   -4.9351   -1.3549 C   0  0  0  0  0  0  0  0  0  0  0  0
    0.1313   -6.2626   -1.0749 O   0  0  0  0  0  0  0  0  0  0  0  0
   -0.1290   -4.0759   -0.3263 C   0  0  0  0  0  0  0  0  0  0  0  0
   -0.0943   -2.7041   -0.5615 C   0  0  0  0  0  0  0  0  0  0  0  0
   -0.5409   -1.6123    0.7435 S   0  0  0  0  0  0  0  0  0  0  0  0
   -1.8857   -0.3422   -1.7555 C   0  0  0  0  0  0  0  0  0  0  0  0
   -2.9194   -0.1474   -0.8424 C   0  0  0  0  0  0  0  0  0  0  0  0
   -4.2052   -0.6160   -1.1146 C   0  0  0  0  0  0  0  0  0  0  0  0
   -4.4220   -1.2817   -2.3137 C   0  0  0  0  0  0  0  0  0  0  0  0
   -3.4313   -1.4030   -3.2929 C   0  0  0  0  0  0  0  0  0  0  0  0
   -2.1650   -0.9124   -3.0056 C   0  0  0  0  0  0  0  0  0  0  0  0
   -5.5922   -1.9155   -2.6663 O   0  0  0  0  0  0  0  0  0  0  0  0
   -6.4780   -2.2800   -1.6297 C   0  0  0  0  0  0  0  0  0  0  0  0
   -5.8204   -3.3143   -0.6943 C   0  0  0  0  0  0  0  0  0  0  0  0
   -4.9568   -4.2680   -1.4881 N   0  0  0  0  0  0  0  0  0  0  0  0
   -4.4820   -3.7230   -2.2644 H   0  0  0  0  0  0  0  0  0  0  0  0
   -3.8832   -4.8820   -0.6033 C   0  0  0  0  0  0  0  0  0  0  0  0
   -2.9679   -5.7557   -1.4587 C   0  0  0  0  0  0  0  0  0  0  0  0
   -3.7548   -6.8425   -2.1900 C   0  0  0  0  0  0  0  0  0  0  0  0
   -4.8955   -6.2326   -3.0077 C   0  0  0  0  0  0  0  0  0  0  0  0
   -5.7933   -5.3643   -2.1234 C   0  0  0  0  0  0  0  0  0  0  0  0
   -0.4613    1.1302    0.8535 C   0  0  0  0  0  0  0  0  0  0  0  0
   -1.1684    2.2180    0.3237 C   0  0  0  0  0  0  0  0  0  0  0  0
   -1.5807    3.2639    1.1361 C   0  0  0  0  0  0  0  0  0  0  0  0
   -1.2626    3.2170    2.4992 C   0  0  0  0  0  0  0  0  0  0  0  0
   -1.7150    4.2605    3.2324 O   0  0  0  0  0  0  0  0  0  0  0  0
   -0.5290    2.1643    3.0493 C   0  0  0  0  0  0  0  0  0  0  0  0
   -0.1230    1.1305    2.2125 C   0  0  0  0  0  0  0  0  0  0  0  0
    1.0660   -2.7010   -3.7833 H   0  0  0  0  0  0  0  0  0  0  0  0
    1.0317   -5.1723   -3.3672 H   0  0  0  0  0  0  0  0  0  0  0  0
    0.6823   -6.8243   -1.6736 H   0  0  0  0  0  0  0  0  0  0  0  0
   -0.4112   -4.4967    0.6392 H   0  0  0  0  0  0  0  0  0  0  0  0
   -2.7453    0.3647    0.1104 H   0  0  0  0  0  0  0  0  0  0  0  0
   -5.0047   -0.4353   -0.4031 H   0  0  0  0  0  0  0  0  0  0  0  0
   -3.6588   -1.8517   -4.2573 H   0  0  0  0  0  0  0  0  0  0  0  0
   -1.3721   -0.9895   -3.7585 H   0  0  0  0  0  0  0  0  0  0  0  0
   -7.3351   -2.6912   -2.2037 H   0  0  0  0  0  0  0  0  0  0  0  0
   -6.8315   -1.3929   -1.0669 H   0  0  0  0  0  0  0  0  0  0  0  0
   -6.5902   -3.8688   -0.1142 H   0  0  0  0  0  0  0  0  0  0  0  0
   -5.1808   -2.7869    0.0577 H   0  0  0  0  0  0  0  0  0  0  0  0
   -3.2967   -4.0651   -0.1180 H   0  0  0  0  0  0  0  0  0  0  0  0
   -4.3627   -5.4733    0.2076 H   0  0  0  0  0  0  0  0  0  0  0  0
   -2.3835   -5.1419   -2.1749 H   0  0  0  0  0  0  0  0  0  0  0  0
   -2.1848   -6.2223   -0.8102 H   0  0  0  0  0  0  0  0  0  0  0  0
   -4.1448   -7.5913   -1.4721 H   0  0  0  0  0  0  0  0  0  0  0  0
   -3.0743   -7.4159   -2.8558 H   0  0  0  0  0  0  0  0  0  0  0  0
   -5.5037   -7.0380   -3.4759 H   0  0  0  0  0  0  0  0  0  0  0  0
   -4.4931   -5.6519   -3.8629 H   0  0  0  0  0  0  0  0  0  0  0  0
   -6.2751   -5.9744   -1.3272 H   0  0  0  0  0  0  0  0  0  0  0  0
   -6.6086   -4.8978   -2.7226 H   0  0  0  0  0  0  0  0  0  0  0  0
   -1.4008    2.2631   -0.7413 H   0  0  0  0  0  0  0  0  0  0  0  0
   -2.1328    4.1146    0.7391 H   0  0  0  0  0  0  0  0  0  0  0  0
   -1.4268    4.2162    4.1788 H   0  0  0  0  0  0  0  0  0  0  0  0
   -0.2713    2.1521    4.1041 H   0  0  0  0  0  0  0  0  0  0  0  0
    0.4757    0.3204    2.6360 H   0  0  0  0  0  0  0  0  0  0  0  0
  1  3  1  0  0  0  0
  1 13  1  0  0  0  0
  1 30  1  0  0  0  0
  1  2  1  1  0  0  0
  3  4  1  6  0  0  0
  5  6  1  0  0  0  0
  5  3  1  0  0  0  0
  6 12  2  0  0  0  0
  7  8  2  0  0  0  0
  7  6  1  0  0  0  0
  8  9  1  0  0  0  0
  9 10  1  0  0  0  0
  9 11  2  0  0  0  0
 11 40  1  0  0  0  0
 12 11  1  0  0  0  0
 12 13  1  0  0  0  0
 14  3  1  0  0  0  0
 14 15  2  0  0  0  0
 15 41  1  0  0  0  0
 16 15  1  0  0  0  0
 16 42  1  0  0  0  0
 17 16  2  0  0  0  0
 18 19  2  0  0  0  0
 18 17  1  0  0  0  0
 19 14  1  0  0  0  0
 20 17  1  0  0  0  0
 20 21  1  0  0  0  0
 21 46  1  0  0  0  0
 21 22  1  0  0  0  0
 22 47  1  0  0  0  0
 22 48  1  0  0  0  0
 23 22  1  0  0  0  0
 23 25  1  0  0  0  0
 24 23  1  0  0  0  0
 25 49  1  0  0  0  0
 25 50  1  0  0  0  0
 26 52  1  0  0  0  0
 26 25  1  0  0  0  0
 27 53  1  0  0  0  0
 27 26  1  0  0  0  0
 28 27  1  0  0  0  0
 28 29  1  0  0  0  0
 29 23  1  0  0  0  0
 29 57  1  0  0  0  0
 30 36  1  0  0  0  0
 31 30  2  0  0  0  0
 31 32  1  0  0  0  0
 32 33  2  0  0  0  0
 33 35  1  0  0  0  0
 33 34  1  0  0  0  0
 34 61  1  0  0  0  0
 35 62  1  0  0  0  0
 36 63  1  0  0  0  0
 36 35  2  0  0  0  0
 37  7  1  0  0  0  0
 38  8  1  0  0  0  0
 39 10  1  0  0  0  0
 43 18  1  0  0  0  0
 44 19  1  0  0  0  0
 45 21  1  0  0  0  0
 51 26  1  0  0  0  0
 54 27  1  0  0  0  0
 55 28  1  0  0  0  0
 56 28  1  0  0  0  0
 58 29  1  0  0  0  0
 59 31  1  0  0  0  0
 60 32  1  0  0  0  0
M  END
$$$$
