rmsd238.gzmat
 OpenBabel08211713363D

 63 67  0  0  1  0  0  0  0  0999 V2000
    0.0000    0.0000    0.0000 C   0  0  2  0  0  0  0  0  0  0  0  0
    1.1301    0.0000    0.0000 H   0  0  0  0  0  0  0  0  0  0  0  0
   -0.4431    0.0000   -1.4657 C   0  0  1  0  0  0  0  0  0  0  0  0
   -0.1013    0.9394   -1.9808 H   0  0  0  0  0  0  0  0  0  0  0  0
    0.3643   -0.9713   -2.1468 O   0  0  0  0  0  0  0  0  0  0  0  0
    0.0950   -2.2770   -1.8388 C   0  0  0  0  0  0  0  0  0  0  0  0
    0.3058   -3.1709   -2.8945 C   0  0  0  0  0  0  0  0  0  0  0  0
    0.0408   -4.5209   -2.7034 C   0  0  0  0  0  0  0  0  0  0  0  0
   -0.4243   -4.9351   -1.4535 C   0  0  0  0  0  0  0  0  0  0  0  0
   -0.8309   -6.2202   -1.2296 O   0  0  0  0  0  0  0  0  0  0  0  0
   -0.5825   -4.0634   -0.3755 C   0  0  0  0  0  0  0  0  0  0  0  0
   -0.3225   -2.7106   -0.5747 C   0  0  0  0  0  0  0  0  0  0  0  0
   -0.5316   -1.6020    0.7733 S   0  0  0  0  0  0  0  0  0  0  0  0
   -1.8889   -0.2922   -1.7751 C   0  0  0  0  0  0  0  0  0  0  0  0
   -2.1726   -0.7190   -3.0769 C   0  0  0  0  0  0  0  0  0  0  0  0
   -3.4378   -1.1941   -3.4132 C   0  0  0  0  0  0  0  0  0  0  0  0
   -4.4120   -1.2087   -2.4215 C   0  0  0  0  0  0  0  0  0  0  0  0
   -4.1902   -0.6831   -1.1462 C   0  0  0  0  0  0  0  0  0  0  0  0
   -2.9181   -0.2167   -0.8340 C   0  0  0  0  0  0  0  0  0  0  0  0
   -5.6689   -1.7514   -2.5549 O   0  0  0  0  0  0  0  0  0  0  0  0
   -5.8618   -2.7223   -3.5584 C   0  0  0  0  0  0  0  0  0  0  0  0
   -5.0400   -3.9934   -3.2589 C   0  0  0  0  0  0  0  0  0  0  0  0
   -4.8981   -4.2157   -1.7720 N   0  0  0  0  0  0  0  0  0  0  0  0
   -4.5682   -3.3145   -1.3225 H   0  0  0  0  0  0  0  0  0  0  0  0
   -6.2244   -4.5963   -1.1364 C   0  0  0  0  0  0  0  0  0  0  0  0
   -6.0414   -4.7044    0.3798 C   0  0  0  0  0  0  0  0  0  0  0  0
   -4.9604   -5.7291    0.7338 C   0  0  0  0  0  0  0  0  0  0  0  0
   -3.6522   -5.4019    0.0147 C   0  0  0  0  0  0  0  0  0  0  0  0
   -3.8678   -5.2982   -1.4946 C   0  0  0  0  0  0  0  0  0  0  0  0
   -0.4676    1.1397    0.8381 C   0  0  0  0  0  0  0  0  0  0  0  0
   -1.2400    2.1809    0.3052 C   0  0  0  0  0  0  0  0  0  0  0  0
   -1.6527    3.2406    1.0983 C   0  0  0  0  0  0  0  0  0  0  0  0
   -1.2682    3.2574    2.4449 C   0  0  0  0  0  0  0  0  0  0  0  0
   -1.7197    4.3153    3.1570 O   0  0  0  0  0  0  0  0  0  0  0  0
   -0.4735    2.2510    2.9973 C   0  0  0  0  0  0  0  0  0  0  0  0
   -0.0712    1.1998    2.1803 C   0  0  0  0  0  0  0  0  0  0  0  0
    0.6772   -2.7972   -3.8504 H   0  0  0  0  0  0  0  0  0  0  0  0
    0.1987   -5.2356   -3.5072 H   0  0  0  0  0  0  0  0  0  0  0  0
   -0.3198   -6.8687   -1.7734 H   0  0  0  0  0  0  0  0  0  0  0  0
   -0.8730   -4.4644    0.5964 H   0  0  0  0  0  0  0  0  0  0  0  0
   -1.3848   -0.7020   -3.8384 H   0  0  0  0  0  0  0  0  0  0  0  0
   -3.6449   -1.5169   -4.4284 H   0  0  0  0  0  0  0  0  0  0  0  0
   -5.0010   -0.6273   -0.4227 H   0  0  0  0  0  0  0  0  0  0  0  0
   -2.7438    0.1994    0.1661 H   0  0  0  0  0  0  0  0  0  0  0  0
   -5.6305   -2.3206   -4.5651 H   0  0  0  0  0  0  0  0  0  0  0  0
   -6.9586   -2.8894   -3.4977 H   0  0  0  0  0  0  0  0  0  0  0  0
   -4.0176   -3.8945   -3.7009 H   0  0  0  0  0  0  0  0  0  0  0  0
   -5.5080   -4.8804   -3.7417 H   0  0  0  0  0  0  0  0  0  0  0  0
   -6.9824   -3.8162   -1.3840 H   0  0  0  0  0  0  0  0  0  0  0  0
   -6.5811   -5.5580   -1.5654 H   0  0  0  0  0  0  0  0  0  0  0  0
   -5.7979   -3.7164    0.8224 H   0  0  0  0  0  0  0  0  0  0  0  0
   -7.0089   -4.9920    0.8479 H   0  0  0  0  0  0  0  0  0  0  0  0
   -5.2967   -6.7550    0.4846 H   0  0  0  0  0  0  0  0  0  0  0  0
   -4.7950   -5.7410    1.8328 H   0  0  0  0  0  0  0  0  0  0  0  0
   -2.8833   -6.1860    0.2173 H   0  0  0  0  0  0  0  0  0  0  0  0
   -3.2049   -4.4702    0.4196 H   0  0  0  0  0  0  0  0  0  0  0  0
   -4.2175   -6.2651   -1.9176 H   0  0  0  0  0  0  0  0  0  0  0  0
   -2.9095   -5.0418   -2.0071 H   0  0  0  0  0  0  0  0  0  0  0  0
   -1.5247    2.1801   -0.7478 H   0  0  0  0  0  0  0  0  0  0  0  0
   -2.2559    4.0542    0.6982 H   0  0  0  0  0  0  0  0  0  0  0  0
   -1.3905    4.3183    4.0911 H   0  0  0  0  0  0  0  0  0  0  0  0
   -0.1684    2.2879    4.0388 H   0  0  0  0  0  0  0  0  0  0  0  0
    0.5693    0.4228    2.6045 H   0  0  0  0  0  0  0  0  0  0  0  0
  1  3  1  0  0  0  0
  1  2  1  1  0  0  0
  1 13  1  0  0  0  0
  1 30  1  0  0  0  0
  3  4  1  6  0  0  0
  5  6  1  0  0  0  0
  5  3  1  0  0  0  0
  6 12  2  0  0  0  0
  7  8  2  0  0  0  0
  7  6  1  0  0  0  0
  8  9  1  0  0  0  0
  9 10  1  0  0  0  0
  9 11  2  0  0  0  0
 11 40  1  0  0  0  0
 12 11  1  0  0  0  0
 12 13  1  0  0  0  0
 14  3  1  0  0  0  0
 14 19  2  0  0  0  0
 15 14  1  0  0  0  0
 16 15  2  0  0  0  0
 16 17  1  0  0  0  0
 17 18  2  0  0  0  0
 18 19  1  0  0  0  0
 18 43  1  0  0  0  0
 19 44  1  0  0  0  0
 20 17  1  0  0  0  0
 21 46  1  0  0  0  0
 21 22  1  0  0  0  0
 21 20  1  0  0  0  0
 22 23  1  0  0  0  0
 23 29  1  0  0  0  0
 23 24  1  0  0  0  0
 23 25  1  0  0  0  0
 25 26  1  0  0  0  0
 26 27  1  0  0  0  0
 26 51  1  0  0  0  0
 26 52  1  0  0  0  0
 27 54  1  0  0  0  0
 28 55  1  0  0  0  0
 28 56  1  0  0  0  0
 28 27  1  0  0  0  0
 29 28  1  0  0  0  0
 30 36  1  0  0  0  0
 31 30  2  0  0  0  0
 31 32  1  0  0  0  0
 32 33  2  0  0  0  0
 33 35  1  0  0  0  0
 33 34  1  0  0  0  0
 34 61  1  0  0  0  0
 35 62  1  0  0  0  0
 36 63  1  0  0  0  0
 36 35  2  0  0  0  0
 37  7  1  0  0  0  0
 38  8  1  0  0  0  0
 39 10  1  0  0  0  0
 41 15  1  0  0  0  0
 42 16  1  0  0  0  0
 45 21  1  0  0  0  0
 47 22  1  0  0  0  0
 48 22  1  0  0  0  0
 49 25  1  0  0  0  0
 50 25  1  0  0  0  0
 53 27  1  0  0  0  0
 57 29  1  0  0  0  0
 58 29  1  0  0  0  0
 59 31  1  0  0  0  0
 60 32  1  0  0  0  0
M  END
$$$$
