63
rmsd123.gzmat
C          0.00000        0.00000        0.00000
H          1.13030        0.00000        0.00000
C         -0.45130        0.00000       -1.46430
H         -0.16410        0.96210       -1.97370
O          0.39250       -0.90700       -2.17680
C          0.35130       -2.22370       -1.81130
C          0.80890       -3.08750       -2.81560
C          0.83280       -4.45390       -2.57690
C          0.39070       -4.92170       -1.33570
O          0.29840       -6.25040       -1.05120
C         -0.03470       -4.07030       -0.31480
C         -0.04740       -2.69960       -0.55880
S         -0.54210       -1.61470        0.73580
C         -1.89320       -0.33800       -1.74320
C         -2.92160       -0.10200       -0.83300
C         -4.22080       -0.53460       -1.09970
C         -4.45810       -1.20800       -2.29070
C         -3.46820       -1.38240       -3.26220
C         -2.18660       -0.92860       -2.98030
O         -5.65580       -1.79140       -2.64220
C         -6.55650       -2.11260       -1.60190
C         -5.93120       -3.16270       -0.66140
N         -5.12720       -4.15390       -1.47380
H         -4.87530       -3.69550       -2.39980
C         -3.83100       -4.52280       -0.76910
C         -2.99890       -5.40130       -1.70150
C         -3.76660       -6.65740       -2.11460
C         -5.12700       -6.29950       -2.71860
C         -5.92770       -5.40960       -1.76450
C         -0.45790        1.13610        0.84800
C         -1.11610        2.24480        0.29800
C         -1.51930        3.30370        1.09750
C         -1.24160        3.24820        2.46910
O         -1.68000        4.30730        3.18810
C         -0.55990        2.17230        3.04080
C         -0.16150        1.12520        2.21660
H          1.14830       -2.67400       -3.76720
H          1.19290       -5.14280       -3.33770
H          0.84210       -6.80110       -1.66750
H         -0.30900       -4.49590        0.65150
H         -2.73300        0.41940        0.11190
H         -5.01470       -0.31800       -0.39170
H         -3.70530       -1.84240       -4.21870
H         -1.39410       -1.04880       -3.72830
H         -7.42630       -2.50080       -2.17310
H         -6.87710       -1.20810       -1.04860
H         -6.71350       -3.67560       -0.06150
H         -5.26170       -2.65620        0.07750
H         -3.27400       -3.58940       -0.51120
H         -4.05690       -5.04660        0.18570
H         -2.66020       -4.83360       -2.59140
H         -2.04980       -5.68990       -1.18460
H         -3.89220       -7.33490       -1.24570
H         -3.16780       -7.24230       -2.84560
H         -5.70430       -7.22610       -2.93410
H         -4.99980       -5.81310       -3.70750
H         -6.14210       -5.94420       -0.81160
H         -6.90620       -5.12490       -2.21320
H         -1.31680        2.29730       -0.77300
H         -2.03220        4.17080        0.68380
H         -1.41090        4.26070        4.14000
H         -0.33550        2.15330        4.10310
H          0.39860        0.29690        2.65780
