63
rmsd97.gzmat
C          0.00000        0.00000        0.00000
H          1.13080        0.00000        0.00000
C         -0.44500        0.00000       -1.46450
H         -0.11700        0.95220       -1.97280
O          0.36480       -0.93470       -2.17930
C          0.30920       -2.24630       -1.79990
C          0.73440       -3.12630       -2.80450
C          0.76580       -4.48890       -2.54640
C          0.36290       -4.93880       -1.28500
O          0.29790       -6.26170       -0.97060
C         -0.04100       -4.07090       -0.26910
C         -0.06510       -2.70410       -0.53400
S         -0.54070       -1.60330        0.75300
C         -1.89490       -0.27190       -1.77530
C         -2.93320       -0.05960       -0.87020
C         -4.25150       -0.35000       -1.22080
C         -4.50460       -0.85670       -2.49020
C         -3.48870       -1.04580       -3.43160
C         -2.18540       -0.73530       -3.06560
O         -5.75750       -1.16690       -2.96880
C         -6.65970       -1.77270       -2.06720
C         -6.56600       -3.30050       -2.24530
N         -5.16850       -3.80690       -1.97230
H         -4.47320       -3.18550       -2.47620
C         -4.84800       -3.77740       -0.48650
C         -3.39610       -4.20730       -0.27650
C         -3.15110       -5.60490       -0.84370
C         -3.54900       -5.65950       -2.31930
C         -5.00430       -5.22280       -2.50220
C         -0.45780        1.13720        0.84760
C         -1.13900        2.23500        0.30440
C         -1.53740        3.29540        1.10450
C         -1.23480        3.25130        2.47120
O         -1.67090        4.30980        3.19250
C         -0.53210        2.18530        3.03640
C         -0.13750        1.13760        2.21130
H          1.04860       -2.72680       -3.77060
H          1.10590       -5.18900       -3.30630
H          0.82340       -6.82000       -1.59630
H         -0.29500       -4.48070        0.70990
H         -2.73820        0.34870        0.12850
H         -5.05540       -0.13460       -0.52160
H         -3.72500       -1.38360       -4.43920
H         -1.37620       -0.85530       -3.79580
H         -7.65060       -1.40060       -2.42100
H         -6.52630       -1.44630       -1.02300
H         -6.84060       -3.55480       -3.30010
H         -7.30120       -3.81720       -1.58900
H         -5.00470       -2.74390       -0.09900
H         -5.54590       -4.45040        0.05800
H         -2.69300       -3.47540       -0.72950
H         -3.15400       -4.18140        0.80960
H         -3.69720       -6.37010       -0.25890
H         -2.07530       -5.87950       -0.72930
H         -3.41680       -6.69130       -2.71350
H         -2.86180       -5.03630       -2.92770
H         -5.69500       -5.90550       -1.95850
H         -5.29290       -5.24660       -3.57750
H         -1.36100        2.27850       -0.76270
H         -2.06490        4.15510        0.69390
H         -1.38620        4.26920        4.14030
H         -0.29010        2.17390        4.09500
H          0.43840        0.31780        2.64860
