rmsd105.gzmat
 OpenBabel08211713363D

 63 67  0  0  1  0  0  0  0  0999 V2000
    0.0000    0.0000    0.0000 C   0  0  2  0  0  0  0  0  0  0  0  0
    1.1299    0.0000    0.0000 H   0  0  0  0  0  0  0  0  0  0  0  0
   -0.4430    0.0000   -1.4645 C   0  0  1  0  0  0  0  0  0  0  0  0
   -0.0809    0.9305   -1.9827 H   0  0  0  0  0  0  0  0  0  0  0  0
    0.3419   -0.9889   -2.1476 O   0  0  0  0  0  0  0  0  0  0  0  0
    0.0669   -2.2896   -1.8253 C   0  0  0  0  0  0  0  0  0  0  0  0
    0.2711   -3.1961   -2.8717 C   0  0  0  0  0  0  0  0  0  0  0  0
    0.0109   -4.5443   -2.6616 C   0  0  0  0  0  0  0  0  0  0  0  0
   -0.4487   -4.9452   -1.4051 C   0  0  0  0  0  0  0  0  0  0  0  0
   -0.8503   -6.2281   -1.1622 O   0  0  0  0  0  0  0  0  0  0  0  0
   -0.6105   -4.0594   -0.3393 C   0  0  0  0  0  0  0  0  0  0  0  0
   -0.3454   -2.7103   -0.5557 C   0  0  0  0  0  0  0  0  0  0  0  0
   -0.5357   -1.5932    0.7846 S   0  0  0  0  0  0  0  0  0  0  0  0
   -1.8927   -0.2632   -1.7803 C   0  0  0  0  0  0  0  0  0  0  0  0
   -2.9209   -0.2239   -0.8364 C   0  0  0  0  0  0  0  0  0  0  0  0
   -4.1954   -0.6703   -1.1686 C   0  0  0  0  0  0  0  0  0  0  0  0
   -4.4203   -1.1349   -2.4664 C   0  0  0  0  0  0  0  0  0  0  0  0
   -3.4480   -1.0760   -3.4583 C   0  0  0  0  0  0  0  0  0  0  0  0
   -2.1791   -0.6280   -3.1008 C   0  0  0  0  0  0  0  0  0  0  0  0
   -5.6806   -1.6641   -2.6277 O   0  0  0  0  0  0  0  0  0  0  0  0
   -5.8587   -2.6202   -3.6505 C   0  0  0  0  0  0  0  0  0  0  0  0
   -5.0152   -3.8784   -3.3647 C   0  0  0  0  0  0  0  0  0  0  0  0
   -5.0016   -4.1840   -1.8848 N   0  0  0  0  0  0  0  0  0  0  0  0
   -4.8986   -3.2716   -1.3543 H   0  0  0  0  0  0  0  0  0  0  0  0
   -6.2987   -4.8409   -1.4473 C   0  0  0  0  0  0  0  0  0  0  0  0
   -6.2765   -5.0343    0.0710 C   0  0  0  0  0  0  0  0  0  0  0  0
   -5.0786   -5.8873    0.4958 C   0  0  0  0  0  0  0  0  0  0  0  0
   -3.7738   -5.2832   -0.0233 C   0  0  0  0  0  0  0  0  0  0  0  0
   -3.8260   -5.0825   -1.5377 C   0  0  0  0  0  0  0  0  0  0  0  0
   -0.4725    1.1327    0.8446 C   0  0  0  0  0  0  0  0  0  0  0  0
   -0.0745    1.1751    2.1921 C   0  0  0  0  0  0  0  0  0  0  0  0
   -0.4974    2.1973    3.0257 C   0  0  0  0  0  0  0  0  0  0  0  0
   -1.3123    3.2038    2.4893 C   0  0  0  0  0  0  0  0  0  0  0  0
   -1.6982    4.1585    3.3668 O   0  0  0  0  0  0  0  0  0  0  0  0
   -1.6883    3.2104    1.1456 C   0  0  0  0  0  0  0  0  0  0  0  0
   -1.2553    2.1681    0.3304 C   0  0  0  0  0  0  0  0  0  0  0  0
    0.6359   -2.8344   -3.8345 H   0  0  0  0  0  0  0  0  0  0  0  0
    0.1692   -5.2694   -3.4562 H   0  0  0  0  0  0  0  0  0  0  0  0
   -0.3224   -6.8845   -1.6798 H   0  0  0  0  0  0  0  0  0  0  0  0
   -0.9090   -4.4461    0.6364 H   0  0  0  0  0  0  0  0  0  0  0  0
   -2.7450    0.1486    0.1802 H   0  0  0  0  0  0  0  0  0  0  0  0
   -5.0047   -0.6442   -0.4420 H   0  0  0  0  0  0  0  0  0  0  0  0
   -3.6602   -1.3444   -4.4882 H   0  0  0  0  0  0  0  0  0  0  0  0
   -1.3900   -0.5837   -3.8593 H   0  0  0  0  0  0  0  0  0  0  0  0
   -5.6265   -2.1980   -4.6485 H   0  0  0  0  0  0  0  0  0  0  0  0
   -6.9527   -2.8030   -3.5974 H   0  0  0  0  0  0  0  0  0  0  0  0
   -3.9630   -3.7096   -3.7062 H   0  0  0  0  0  0  0  0  0  0  0  0
   -5.3943   -4.7496   -3.9427 H   0  0  0  0  0  0  0  0  0  0  0  0
   -7.1541   -4.1940   -1.7500 H   0  0  0  0  0  0  0  0  0  0  0  0
   -6.4170   -5.8159   -1.9698 H   0  0  0  0  0  0  0  0  0  0  0  0
   -6.2636   -4.0583    0.5981 H   0  0  0  0  0  0  0  0  0  0  0  0
   -7.2253   -5.5158    0.3959 H   0  0  0  0  0  0  0  0  0  0  0  0
   -5.1936   -6.9302    0.1383 H   0  0  0  0  0  0  0  0  0  0  0  0
   -5.0440   -5.9694    1.6033 H   0  0  0  0  0  0  0  0  0  0  0  0
   -2.9117   -5.9518    0.2207 H   0  0  0  0  0  0  0  0  0  0  0  0
   -3.5430   -4.3330    0.5003 H   0  0  0  0  0  0  0  0  0  0  0  0
   -3.9279   -6.0554   -2.0667 H   0  0  0  0  0  0  0  0  0  0  0  0
   -2.8805   -4.6105   -1.9003 H   0  0  0  0  0  0  0  0  0  0  0  0
    0.5837    0.4031    2.5983 H   0  0  0  0  0  0  0  0  0  0  0  0
   -0.2071    2.2385    4.0747 H   0  0  0  0  0  0  0  0  0  0  0  0
   -2.2342    4.8743    2.9420 H   0  0  0  0  0  0  0  0  0  0  0  0
   -2.2992    4.0100    0.7384 H   0  0  0  0  0  0  0  0  0  0  0  0
   -1.5390    2.1821   -0.7225 H   0  0  0  0  0  0  0  0  0  0  0  0
  1  3  1  0  0  0  0
  1  2  1  1  0  0  0
  1 13  1  0  0  0  0
  1 30  1  0  0  0  0
  3  4  1  6  0  0  0
  5  6  1  0  0  0  0
  5  3  1  0  0  0  0
  6 12  2  0  0  0  0
  7  8  2  0  0  0  0
  7  6  1  0  0  0  0
  8  9  1  0  0  0  0
  9 10  1  0  0  0  0
  9 11  2  0  0  0  0
 11 40  1  0  0  0  0
 12 11  1  0  0  0  0
 12 13  1  0  0  0  0
 14  3  1  0  0  0  0
 14 15  2  0  0  0  0
 15 41  1  0  0  0  0
 16 15  1  0  0  0  0
 16 42  1  0  0  0  0
 17 16  2  0  0  0  0
 18 19  2  0  0  0  0
 18 17  1  0  0  0  0
 19 14  1  0  0  0  0
 20 17  1  0  0  0  0
 21 46  1  0  0  0  0
 21 22  1  0  0  0  0
 21 20  1  0  0  0  0
 22 23  1  0  0  0  0
 23 29  1  0  0  0  0
 23 25  1  0  0  0  0
 23 24  1  0  0  0  0
 25 26  1  0  0  0  0
 26 52  1  0  0  0  0
 26 27  1  0  0  0  0
 26 51  1  0  0  0  0
 27 54  1  0  0  0  0
 28 55  1  0  0  0  0
 28 27  1  0  0  0  0
 28 56  1  0  0  0  0
 29 28  1  0  0  0  0
 30 31  1  0  0  0  0
 31 59  1  0  0  0  0
 31 32  2  0  0  0  0
 32 60  1  0  0  0  0
 33 32  1  0  0  0  0
 33 34  1  0  0  0  0
 35 33  2  0  0  0  0
 36 30  2  0  0  0  0
 36 35  1  0  0  0  0
 37  7  1  0  0  0  0
 38  8  1  0  0  0  0
 39 10  1  0  0  0  0
 43 18  1  0  0  0  0
 44 19  1  0  0  0  0
 45 21  1  0  0  0  0
 47 22  1  0  0  0  0
 48 22  1  0  0  0  0
 49 25  1  0  0  0  0
 50 25  1  0  0  0  0
 53 27  1  0  0  0  0
 57 29  1  0  0  0  0
 58 29  1  0  0  0  0
 61 34  1  0  0  0  0
 62 35  1  0  0  0  0
 63 36  1  0  0  0  0
M  END
$$$$
