63
rmsd116.gzmat
C          0.00000        0.00000        0.00000
H          1.12990        0.00000        0.00000
C         -0.44990        0.00000       -1.46420
H         -0.14320        0.95380       -1.97710
O          0.37680       -0.93080       -2.16980
C          0.26650       -2.24750       -1.81810
C          0.64820       -3.12850       -2.83810
C          0.60770       -4.49590       -2.60460
C          0.17800       -4.94590       -1.35310
O          0.04110       -6.27330       -1.07160
C         -0.18930       -4.07950       -0.32300
C         -0.13390       -2.70840       -0.56020
S         -0.54190       -1.60820        0.75000
C         -1.89310       -0.32260       -1.75300
C         -2.91970       -0.15730       -0.82530
C         -4.20800       -0.61230       -1.10570
C         -4.43660       -1.22580       -2.33020
C         -3.45360       -1.31490       -3.32020
C         -2.18150       -0.84620       -3.02100
O         -5.62020       -1.82800       -2.69680
C         -6.43640       -2.32250       -1.65600
C         -5.70220       -3.43570       -0.88250
N         -4.89180       -4.28930       -1.83170
H         -4.42680       -3.65330       -2.54170
C         -3.80770       -5.04460       -1.07970
C         -2.95270       -5.82860       -2.07420
C         -3.80390       -6.78470       -2.90910
C         -4.93810       -6.02920       -3.60500
C         -5.78150       -5.26360       -2.58310
C         -0.46440        1.13300        0.84910
C         -1.18050        2.21240        0.31350
C         -1.60150        3.25910        1.11980
C         -1.28290        3.22220        2.48310
O         -1.74420        4.26560        3.21050
C         -0.53980        2.17890        3.03870
C         -0.12560        1.14320        2.20760
H          0.98350       -2.72860       -3.79690
H          0.91220       -5.19800       -3.37690
H          0.62110       -6.83460       -1.64330
H         -0.46830       -4.49480        0.64660
H         -2.73880        0.32210        0.14330
H         -5.00190       -0.46410       -0.37950
H         -3.68980       -1.71910       -4.30160
H         -1.39080       -0.90510       -3.77800
H         -7.32230       -2.68650       -2.21730
H         -6.76790       -1.51100       -0.97780
H         -6.42180       -4.05940       -0.30840
H         -5.01140       -2.97740       -0.13010
H         -3.17650       -4.31540       -0.51650
H         -4.27660       -5.72280       -0.33270
H         -2.36810       -5.14770       -2.72720
H         -2.17140       -6.39920       -1.51280
H         -4.20920       -7.59980       -2.27650
H         -3.16920       -7.29880       -3.66220
H         -5.58760       -6.73830       -4.16430
H         -4.53210       -5.34910       -4.38200
H         -6.26230       -5.96250       -1.86290
H         -6.59540       -4.69460       -3.08910
H         -1.41480        2.25050       -0.75120
H         -2.16100        4.10240        0.71770
H         -1.45910        4.22690        4.15810
H         -0.28370        2.17550        4.09380
H          0.47930        0.33930        2.63490
