
     RDKit          3D

 30 31  0  0  0  0  0  0  0  0999 V2000
   -0.0971    0.7612   -0.1051 Cl  0  0  0  0  0  0  0  0  0  0  0  0
    1.6020    0.3968   -0.1030 C   0  0  0  0  0  0  0  0  0  0  0  0
    2.2685    0.2381    1.1088 C   0  0  0  0  0  0  0  0  0  0  0  0
    3.6385   -0.0593    1.1433 C   0  0  0  0  0  0  0  0  0  0  0  0
    4.3380   -0.1925   -0.0661 C   0  0  0  0  0  0  0  0  0  0  0  0
    3.6786   -0.0331   -1.2830 C   0  0  0  0  0  0  0  0  0  0  0  0
    2.3116    0.2600   -1.3115 C   0  0  0  0  0  0  0  0  0  0  0  0
    1.5158    0.4505   -2.8404 Cl  0  0  0  0  0  0  0  0  0  0  0  0
    4.2786   -0.2181    2.4943 C   0  0  0  0  0  0  0  0  0  0  0  0
    3.6317   -0.0174    3.5047 O   0  0  0  0  0  0  0  0  0  0  0  0
    5.7183   -0.6897    2.5750 C   0  0  0  0  0  0  0  0  0  0  0  0
    5.8395   -2.2048    2.3436 C   0  0  0  0  0  0  0  0  0  0  0  0
    7.2602   -2.7573    2.5290 C   0  0  0  0  0  0  0  0  0  0  0  0
    7.0330   -4.2710    2.6076 C   0  0  0  0  0  0  0  0  0  0  0  0
    5.7355   -4.4205    3.4373 C   0  0  0  0  0  0  0  0  0  0  0  0
    4.9878   -3.0653    3.3043 C   0  0  0  0  0  0  0  0  0  0  0  0
    1.7329    0.3436    2.0526 H   0  0  0  0  0  0  0  0  0  0  0  0
    5.4044   -0.4178   -0.0719 H   0  0  0  0  0  0  0  0  0  0  0  0
    4.2139   -0.1329   -2.2279 H   0  0  0  0  0  0  0  0  0  0  0  0
    6.0730   -0.4448    3.5871 H   0  0  0  0  0  0  0  0  0  0  0  0
    6.3515   -0.1499    1.8530 H   0  0  0  0  0  0  0  0  0  0  0  0
    5.5277   -2.4306    1.3083 H   0  0  0  0  0  0  0  0  0  0  0  0
    7.6773   -2.3817    3.4808 H   0  0  0  0  0  0  0  0  0  0  0  0
    7.9502   -2.4548    1.7251 H   0  0  0  0  0  0  0  0  0  0  0  0
    6.8799   -4.6674    1.5897 H   0  0  0  0  0  0  0  0  0  0  0  0
    7.8857   -4.8163    3.0400 H   0  0  0  0  0  0  0  0  0  0  0  0
    5.1273   -5.2685    3.0884 H   0  0  0  0  0  0  0  0  0  0  0  0
    5.9744   -4.6213    4.4932 H   0  0  0  0  0  0  0  0  0  0  0  0
    3.9560   -3.1807    2.9403 H   0  0  0  0  0  0  0  0  0  0  0  0
    4.9136   -2.5596    4.2801 H   0  0  0  0  0  0  0  0  0  0  0  0
  1  2  1  0
  2  3  2  0
  2  7  1  0
  3  4  1  0
  3 17  1  0
  4  5  2  0
  4  9  1  0
  5  6  1  0
  5 18  1  0
  6  7  2  0
  6 19  1  0
  7  8  1  0
  9 10  2  0
  9 11  1  0
 11 12  1  0
 11 20  1  0
 11 21  1  0
 12 13  1  0
 12 16  1  0
 12 22  1  0
 13 14  1  0
 13 23  1  0
 13 24  1  0
 14 15  1  0
 14 25  1  0
 14 26  1  0
 15 16  1  0
 15 27  1  0
 15 28  1  0
 16 29  1  0
 16 30  1  0
M  END

