30
rmsd103.gzmat
Cl         0.00000        0.00000        0.00000
C          1.70090        0.00000        0.00000
C          2.36270        0.00000        1.22250
C          3.75690       -0.00470        1.23000
C          4.47500        0.00390        0.03220
C          3.80400        0.00370       -1.18950
C          2.41340       -0.00060       -1.19280
Cl         1.60320       -0.00270       -2.68800
C          4.52340        0.00020        2.51030
O          5.57580        0.58370        2.58190
C          3.92620       -0.74980        3.66980
C          5.01220       -1.21280        4.64710
C          4.40110       -1.76890        5.94810
C          5.45290       -2.74820        6.49230
C          6.22310       -3.27720        5.26670
C          5.86940       -2.36330        4.07770
H          1.80000        0.01150        2.15830
H          5.56900        0.02030        0.05980
H          4.36580        0.01250       -2.12550
H          3.33290       -1.61820        3.31980
H          3.20930       -0.08450        4.19790
H          5.67710       -0.34860        4.88940
H          3.45320       -2.29590        5.74770
H          4.17030       -0.96940        6.66740
H          6.13870       -2.23600        7.18850
H          4.98620       -3.56570        7.06220
H          7.30810       -3.27930        5.45680
H          5.94700       -4.32200        5.05090
H          6.77420       -1.96960        3.58680
H          5.32250       -2.92750        3.30520
