rmsd72.gzmat
 OpenBabel08211713393D

 30 31  0  0  0  0  0  0  0  0999 V2000
    0.0000    0.0000    0.0000 Cl  0  0  0  0  0  0  0  0  0  0  0  0
    1.7009    0.0000    0.0000 C   0  0  0  0  0  0  0  0  0  0  0  0
    2.3618    0.0000    1.2227 C   0  0  0  0  0  0  0  0  0  0  0  0
    3.7560   -0.0194    1.2306 C   0  0  0  0  0  0  0  0  0  0  0  0
    4.4764   -0.0040    0.0345 C   0  0  0  0  0  0  0  0  0  0  0  0
    3.8060   -0.0030   -1.1874 C   0  0  0  0  0  0  0  0  0  0  0  0
    2.4152   -0.0075   -1.1916 C   0  0  0  0  0  0  0  0  0  0  0  0
    1.6054   -0.0220   -2.6873 Cl  0  0  0  0  0  0  0  0  0  0  0  0
    4.5175   -0.0610    2.5122 C   0  0  0  0  0  0  0  0  0  0  0  0
    5.5322    0.5769    2.6406 O   0  0  0  0  0  0  0  0  0  0  0  0
    3.9856   -0.9356    3.6170 C   0  0  0  0  0  0  0  0  0  0  0  0
    3.7673   -2.3729    3.1346 C   0  0  0  0  0  0  0  0  0  0  0  0
    5.0936   -3.1008    2.8427 C   0  0  0  0  0  0  0  0  0  0  0  0
    4.7787   -4.5917    3.0387 C   0  0  0  0  0  0  0  0  0  0  0  0
    3.6226   -4.6596    4.0562 C   0  0  0  0  0  0  0  0  0  0  0  0
    3.0594   -3.2330    4.2026 C   0  0  0  0  0  0  0  0  0  0  0  0
    1.7994    0.0159    2.1591 H   0  0  0  0  0  0  0  0  0  0  0  0
    5.5701    0.0126    0.0620 H   0  0  0  0  0  0  0  0  0  0  0  0
    4.3687    0.0033   -2.1228 H   0  0  0  0  0  0  0  0  0  0  0  0
    3.0413   -0.5121    4.0130 H   0  0  0  0  0  0  0  0  0  0  0  0
    4.6918   -0.9216    4.4757 H   0  0  0  0  0  0  0  0  0  0  0  0
    3.1443   -2.3681    2.2093 H   0  0  0  0  0  0  0  0  0  0  0  0
    5.8860   -2.7765    3.5391 H   0  0  0  0  0  0  0  0  0  0  0  0
    5.4654   -2.8847    1.8304 H   0  0  0  0  0  0  0  0  0  0  0  0
    4.4810   -5.0554    2.0831 H   0  0  0  0  0  0  0  0  0  0  0  0
    5.6611   -5.1475    3.3909 H   0  0  0  0  0  0  0  0  0  0  0  0
    2.8442   -5.3621    3.7188 H   0  0  0  0  0  0  0  0  0  0  0  0
    3.9770   -5.0386    5.0282 H   0  0  0  0  0  0  0  0  0  0  0  0
    1.9673   -3.2146    4.0654 H   0  0  0  0  0  0  0  0  0  0  0  0
    3.2512   -2.8460    5.2168 H   0  0  0  0  0  0  0  0  0  0  0  0
  2  1  1  0  0  0  0
  2  3  2  0  0  0  0
  3  4  1  0  0  0  0
  3 17  1  0  0  0  0
  4  9  1  0  0  0  0
  5 18  1  0  0  0  0
  5  4  2  0  0  0  0
  6  5  1  0  0  0  0
  7  6  2  0  0  0  0
  7  2  1  0  0  0  0
  8  7  1  0  0  0  0
  9 10  2  0  0  0  0
  9 11  1  0  0  0  0
 11 20  1  0  0  0  0
 11 21  1  0  0  0  0
 12 11  1  0  0  0  0
 12 16  1  0  0  0  0
 13 14  1  0  0  0  0
 13 12  1  0  0  0  0
 13 23  1  0  0  0  0
 14 26  1  0  0  0  0
 14 15  1  0  0  0  0
 15 16  1  0  0  0  0
 15 28  1  0  0  0  0
 16 30  1  0  0  0  0
 19  6  1  0  0  0  0
 22 12  1  0  0  0  0
 24 13  1  0  0  0  0
 25 14  1  0  0  0  0
 27 15  1  0  0  0  0
 29 16  1  0  0  0  0
M  END
$$$$
