30

Cl        -0.04120       -0.30910       -0.20210
C          1.67700       -0.04300       -0.19290
C          2.39900       -0.29580        0.97560
C          3.78450       -0.09280        1.01810
C          4.44090        0.37310       -0.13300
C          3.72970        0.62620       -1.29920
C          2.34430        0.41990       -1.33920
Cl         1.47840        0.74160       -2.80670
C          4.60970       -0.35280        2.24730
O          5.79760       -0.09060        2.24890
C          3.95440       -0.99890        3.45330
C          3.76370       -2.51250        3.26210
C          5.06440       -3.28190        2.93820
C          4.85470       -4.72060        3.48550
C          3.46850       -4.71370        4.17280
C          3.21440       -3.23790        4.49890
H          1.85000       -0.65020        1.84680
H          5.51940        0.52930       -0.08330
H          4.23170        0.98680       -2.19810
H          2.98460       -0.52630        3.67630
H          4.62340       -0.81980        4.30800
H          3.04930       -2.67800        2.43600
H          5.91430       -2.79090        3.43840
H          5.29040       -3.26320        1.86170
H          4.90970       -5.48100        2.69210
H          5.64370       -4.97010        4.21190
H          2.69530       -5.06740        3.47020
H          3.42300       -5.36800        5.05670
H          2.15680       -3.00570        4.70210
H          3.79600       -2.93560        5.38850
