rmsd98.gzmat
 OpenBabel08211713393D

 30 31  0  0  0  0  0  0  0  0999 V2000
    0.0000    0.0000    0.0000 Cl  0  0  0  0  0  0  0  0  0  0  0  0
    1.7013    0.0000    0.0000 C   0  0  0  0  0  0  0  0  0  0  0  0
    2.3632    0.0000    1.2225 C   0  0  0  0  0  0  0  0  0  0  0  0
    3.7577   -0.0024    1.2320 C   0  0  0  0  0  0  0  0  0  0  0  0
    4.4755   -0.0219    0.0338 C   0  0  0  0  0  0  0  0  0  0  0  0
    3.8051   -0.0155   -1.1881 C   0  0  0  0  0  0  0  0  0  0  0  0
    2.4144   -0.0004   -1.1924 C   0  0  0  0  0  0  0  0  0  0  0  0
    1.6034    0.0152   -2.6868 Cl  0  0  0  0  0  0  0  0  0  0  0  0
    4.5254    0.0018    2.5122 C   0  0  0  0  0  0  0  0  0  0  0  0
    5.6023   -0.5370    2.5730 O   0  0  0  0  0  0  0  0  0  0  0  0
    3.9021    0.7039    3.6879 C   0  0  0  0  0  0  0  0  0  0  0  0
    4.9708    1.1870    4.6757 C   0  0  0  0  0  0  0  0  0  0  0  0
    5.8719    2.2847    4.0765 C   0  0  0  0  0  0  0  0  0  0  0  0
    6.3472    3.1096    5.2818 C   0  0  0  0  0  0  0  0  0  0  0  0
    5.2242    3.0109    6.3316 C   0  0  0  0  0  0  0  0  0  0  0  0
    4.3349    1.8160    5.9349 C   0  0  0  0  0  0  0  0  0  0  0  0
    1.7976   -0.0046    2.1570 H   0  0  0  0  0  0  0  0  0  0  0  0
    5.5698   -0.0505    0.0598 H   0  0  0  0  0  0  0  0  0  0  0  0
    4.3689   -0.0274   -2.1229 H   0  0  0  0  0  0  0  0  0  0  0  0
    3.2147   -0.0012    4.2032 H   0  0  0  0  0  0  0  0  0  0  0  0
    3.2750    1.5561    3.3569 H   0  0  0  0  0  0  0  0  0  0  0  0
    5.6069    0.3196    4.9751 H   0  0  0  0  0  0  0  0  0  0  0  0
    5.3127    2.9177    3.3685 H   0  0  0  0  0  0  0  0  0  0  0  0
    6.7120    1.8510    3.5116 H   0  0  0  0  0  0  0  0  0  0  0  0
    7.2920    2.7043    5.6821 H   0  0  0  0  0  0  0  0  0  0  0  0
    6.5523    4.1546    5.0045 H   0  0  0  0  0  0  0  0  0  0  0  0
    5.6364    2.8843    7.3445 H   0  0  0  0  0  0  0  0  0  0  0  0
    4.6331    3.9411    6.3552 H   0  0  0  0  0  0  0  0  0  0  0  0
    4.2658    1.0794    6.7500 H   0  0  0  0  0  0  0  0  0  0  0  0
    3.3050    2.1551    5.7379 H   0  0  0  0  0  0  0  0  0  0  0  0
  2  1  1  0  0  0  0
  2  3  2  0  0  0  0
  3  4  1  0  0  0  0
  3 17  1  0  0  0  0
  4  9  1  0  0  0  0
  5 18  1  0  0  0  0
  5  4  2  0  0  0  0
  6  5  1  0  0  0  0
  7  6  2  0  0  0  0
  7  2  1  0  0  0  0
  8  7  1  0  0  0  0
  9 10  2  0  0  0  0
  9 11  1  0  0  0  0
 11 20  1  0  0  0  0
 11 12  1  0  0  0  0
 12 22  1  0  0  0  0
 12 16  1  0  0  0  0
 13 12  1  0  0  0  0
 13 14  1  0  0  0  0
 14 25  1  0  0  0  0
 14 15  1  0  0  0  0
 15 28  1  0  0  0  0
 15 27  1  0  0  0  0
 16 15  1  0  0  0  0
 16 29  1  0  0  0  0
 19  6  1  0  0  0  0
 21 11  1  0  0  0  0
 23 13  1  0  0  0  0
 24 13  1  0  0  0  0
 26 14  1  0  0  0  0
 30 16  1  0  0  0  0
M  END
$$$$
