rmsd118.gzmat
 OpenBabel08211713393D

 30 31  0  0  0  0  0  0  0  0999 V2000
    0.0000    0.0000    0.0000 Cl  0  0  0  0  0  0  0  0  0  0  0  0
    1.7012    0.0000    0.0000 C   0  0  0  0  0  0  0  0  0  0  0  0
    2.3614    0.0000    1.2235 C   0  0  0  0  0  0  0  0  0  0  0  0
    3.7556    0.0145    1.2360 C   0  0  0  0  0  0  0  0  0  0  0  0
    4.4740    0.0344    0.0369 C   0  0  0  0  0  0  0  0  0  0  0  0
    3.8058    0.0197   -1.1857 C   0  0  0  0  0  0  0  0  0  0  0  0
    2.4152    0.0006   -1.1916 C   0  0  0  0  0  0  0  0  0  0  0  0
    1.6065   -0.0223   -2.6873 Cl  0  0  0  0  0  0  0  0  0  0  0  0
    4.5290    0.0245    2.5108 C   0  0  0  0  0  0  0  0  0  0  0  0
    5.6394    0.4963    2.5385 O   0  0  0  0  0  0  0  0  0  0  0  0
    3.9055   -0.5869    3.7370 C   0  0  0  0  0  0  0  0  0  0  0  0
    3.2012    0.4964    4.5673 C   0  0  0  0  0  0  0  0  0  0  0  0
    2.4571   -0.1299    5.7663 C   0  0  0  0  0  0  0  0  0  0  0  0
    2.5179    0.9305    6.8757 C   0  0  0  0  0  0  0  0  0  0  0  0
    3.8467    1.6739    6.6554 C   0  0  0  0  0  0  0  0  0  0  0  0
    4.1912    1.5227    5.1628 C   0  0  0  0  0  0  0  0  0  0  0  0
    1.7930   -0.0074    2.1572 H   0  0  0  0  0  0  0  0  0  0  0  0
    5.5686    0.0678    0.0649 H   0  0  0  0  0  0  0  0  0  0  0  0
    4.3699    0.0270   -2.1202 H   0  0  0  0  0  0  0  0  0  0  0  0
    4.6981   -1.0723    4.3477 H   0  0  0  0  0  0  0  0  0  0  0  0
    3.1984   -1.3958    3.4745 H   0  0  0  0  0  0  0  0  0  0  0  0
    2.4663    1.0364    3.9271 H   0  0  0  0  0  0  0  0  0  0  0  0
    2.9499   -1.0593    6.0986 H   0  0  0  0  0  0  0  0  0  0  0  0
    1.4224   -0.3990    5.5093 H   0  0  0  0  0  0  0  0  0  0  0  0
    1.6648    1.6259    6.7990 H   0  0  0  0  0  0  0  0  0  0  0  0
    2.4611    0.4798    7.8777 H   0  0  0  0  0  0  0  0  0  0  0  0
    3.7680    2.7322    6.9475 H   0  0  0  0  0  0  0  0  0  0  0  0
    4.6428    1.2396    7.2832 H   0  0  0  0  0  0  0  0  0  0  0  0
    4.1108    2.4874    4.6365 H   0  0  0  0  0  0  0  0  0  0  0  0
    5.2383    1.2008    5.0273 H   0  0  0  0  0  0  0  0  0  0  0  0
  2  1  1  0  0  0  0
  2  3  2  0  0  0  0
  3  4  1  0  0  0  0
  3 17  1  0  0  0  0
  4  9  1  0  0  0  0
  5 18  1  0  0  0  0
  5  4  2  0  0  0  0
  6  5  1  0  0  0  0
  7  6  2  0  0  0  0
  7  2  1  0  0  0  0
  8  7  1  0  0  0  0
  9 10  2  0  0  0  0
  9 11  1  0  0  0  0
 11 20  1  0  0  0  0
 11 12  1  0  0  0  0
 12 16  1  0  0  0  0
 12 13  1  0  0  0  0
 13 23  1  0  0  0  0
 13 14  1  0  0  0  0
 14 26  1  0  0  0  0
 15 14  1  0  0  0  0
 15 27  1  0  0  0  0
 15 28  1  0  0  0  0
 16 15  1  0  0  0  0
 19  6  1  0  0  0  0
 21 11  1  0  0  0  0
 22 12  1  0  0  0  0
 24 13  1  0  0  0  0
 25 14  1  0  0  0  0
 29 16  1  0  0  0  0
 30 16  1  0  0  0  0
M  END
$$$$
