rmsd103.gzmat
 OpenBabel08211713393D

 30 31  0  0  0  0  0  0  0  0999 V2000
    0.0000    0.0000    0.0000 Cl  0  0  0  0  0  0  0  0  0  0  0  0
    1.7009    0.0000    0.0000 C   0  0  0  0  0  0  0  0  0  0  0  0
    2.3627    0.0000    1.2225 C   0  0  0  0  0  0  0  0  0  0  0  0
    3.7569   -0.0047    1.2300 C   0  0  0  0  0  0  0  0  0  0  0  0
    4.4750    0.0039    0.0322 C   0  0  0  0  0  0  0  0  0  0  0  0
    3.8040    0.0037   -1.1895 C   0  0  0  0  0  0  0  0  0  0  0  0
    2.4134   -0.0006   -1.1928 C   0  0  0  0  0  0  0  0  0  0  0  0
    1.6032   -0.0027   -2.6880 Cl  0  0  0  0  0  0  0  0  0  0  0  0
    4.5234    0.0002    2.5103 C   0  0  0  0  0  0  0  0  0  0  0  0
    5.5758    0.5837    2.5819 O   0  0  0  0  0  0  0  0  0  0  0  0
    3.9262   -0.7498    3.6698 C   0  0  0  0  0  0  0  0  0  0  0  0
    5.0122   -1.2128    4.6471 C   0  0  0  0  0  0  0  0  0  0  0  0
    4.4011   -1.7689    5.9481 C   0  0  0  0  0  0  0  0  0  0  0  0
    5.4529   -2.7482    6.4923 C   0  0  0  0  0  0  0  0  0  0  0  0
    6.2231   -3.2772    5.2667 C   0  0  0  0  0  0  0  0  0  0  0  0
    5.8694   -2.3633    4.0777 C   0  0  0  0  0  0  0  0  0  0  0  0
    1.8000    0.0115    2.1583 H   0  0  0  0  0  0  0  0  0  0  0  0
    5.5690    0.0203    0.0598 H   0  0  0  0  0  0  0  0  0  0  0  0
    4.3658    0.0125   -2.1255 H   0  0  0  0  0  0  0  0  0  0  0  0
    3.3329   -1.6182    3.3198 H   0  0  0  0  0  0  0  0  0  0  0  0
    3.2093   -0.0845    4.1979 H   0  0  0  0  0  0  0  0  0  0  0  0
    5.6771   -0.3486    4.8894 H   0  0  0  0  0  0  0  0  0  0  0  0
    3.4532   -2.2959    5.7477 H   0  0  0  0  0  0  0  0  0  0  0  0
    4.1703   -0.9694    6.6674 H   0  0  0  0  0  0  0  0  0  0  0  0
    6.1387   -2.2360    7.1885 H   0  0  0  0  0  0  0  0  0  0  0  0
    4.9862   -3.5657    7.0622 H   0  0  0  0  0  0  0  0  0  0  0  0
    7.3081   -3.2793    5.4568 H   0  0  0  0  0  0  0  0  0  0  0  0
    5.9470   -4.3220    5.0509 H   0  0  0  0  0  0  0  0  0  0  0  0
    6.7742   -1.9696    3.5868 H   0  0  0  0  0  0  0  0  0  0  0  0
    5.3225   -2.9275    3.3052 H   0  0  0  0  0  0  0  0  0  0  0  0
  2  1  1  0  0  0  0
  2  3  2  0  0  0  0
  3  4  1  0  0  0  0
  3 17  1  0  0  0  0
  4  9  1  0  0  0  0
  5 18  1  0  0  0  0
  5  4  2  0  0  0  0
  6  5  1  0  0  0  0
  7  6  2  0  0  0  0
  7  2  1  0  0  0  0
  8  7  1  0  0  0  0
  9 10  2  0  0  0  0
  9 11  1  0  0  0  0
 11 21  1  0  0  0  0
 11 12  1  0  0  0  0
 12 22  1  0  0  0  0
 12 13  1  0  0  0  0
 13 14  1  0  0  0  0
 13 24  1  0  0  0  0
 14 26  1  0  0  0  0
 14 25  1  0  0  0  0
 15 27  1  0  0  0  0
 15 14  1  0  0  0  0
 16 12  1  0  0  0  0
 16 15  1  0  0  0  0
 19  6  1  0  0  0  0
 20 11  1  0  0  0  0
 23 13  1  0  0  0  0
 28 15  1  0  0  0  0
 29 16  1  0  0  0  0
 30 16  1  0  0  0  0
M  END
$$$$
