30

Cl        -0.09710        0.76120       -0.10510
C          1.60200        0.39680       -0.10300
C          2.26850        0.23810        1.10880
C          3.63850       -0.05930        1.14330
C          4.33800       -0.19250       -0.06610
C          3.67860       -0.03310       -1.28300
C          2.31160        0.26000       -1.31150
Cl         1.51580        0.45050       -2.84040
C          4.27860       -0.21810        2.49430
O          3.63170       -0.01740        3.50470
C          5.71830       -0.68970        2.57500
C          5.83950       -2.20480        2.34360
C          7.26020       -2.75730        2.52900
C          7.03300       -4.27100        2.60760
C          5.73550       -4.42050        3.43730
C          4.98780       -3.06530        3.30430
H          1.73290        0.34360        2.05260
H          5.40440       -0.41780       -0.07190
H          4.21390       -0.13290       -2.22790
H          6.07300       -0.44480        3.58710
H          6.35150       -0.14990        1.85300
H          5.52770       -2.43060        1.30830
H          7.67730       -2.38170        3.48080
H          7.95020       -2.45480        1.72510
H          6.87990       -4.66740        1.58970
H          7.88570       -4.81630        3.04000
H          5.12730       -5.26850        3.08840
H          5.97440       -4.62130        4.49320
H          3.95600       -3.18070        2.94030
H          4.91360       -2.55960        4.28010
