30
rmsd118.gzmat
Cl         0.00000        0.00000        0.00000
C          1.70120        0.00000        0.00000
C          2.36140        0.00000        1.22350
C          3.75560        0.01450        1.23600
C          4.47400        0.03440        0.03690
C          3.80580        0.01970       -1.18570
C          2.41520        0.00060       -1.19160
Cl         1.60650       -0.02230       -2.68730
C          4.52900        0.02450        2.51080
O          5.63940        0.49630        2.53850
C          3.90550       -0.58690        3.73700
C          3.20120        0.49640        4.56730
C          2.45710       -0.12990        5.76630
C          2.51790        0.93050        6.87570
C          3.84670        1.67390        6.65540
C          4.19120        1.52270        5.16280
H          1.79300       -0.00740        2.15720
H          5.56860        0.06780        0.06490
H          4.36990        0.02700       -2.12020
H          4.69810       -1.07230        4.34770
H          3.19840       -1.39580        3.47450
H          2.46630        1.03640        3.92710
H          2.94990       -1.05930        6.09860
H          1.42240       -0.39900        5.50930
H          1.66480        1.62590        6.79900
H          2.46110        0.47980        7.87770
H          3.76800        2.73220        6.94750
H          4.64280        1.23960        7.28320
H          4.11080        2.48740        4.63650
H          5.23830        1.20080        5.02730
