30
rmsd140.gzmat
Cl         0.00000        0.00000        0.00000
C          1.70100        0.00000        0.00000
C          2.36330        0.00000        1.22290
C          3.75710        0.00620        1.22940
C          4.47530        0.01650        0.03170
C          3.80410        0.00700       -1.18930
C          2.41330        0.00150       -1.19260
Cl         1.60340        0.00250       -2.68790
C          4.52580        0.03120        2.50930
O          5.50280        0.72910        2.61360
C          4.03060       -0.85960        3.61530
C          5.05840       -0.96370        4.74560
C          4.50780       -1.73660        5.96030
C          5.74960       -2.30320        6.67360
C          6.89820       -2.30630        5.64230
C          6.32190       -1.74340        4.33170
H          1.79950        0.00430        2.15790
H          5.56870        0.04260        0.05690
H          4.36620        0.01110       -2.12540
H          3.78750       -1.86640        3.21750
H          3.07560       -0.45950        4.01590
H          5.35660        0.06440        5.06370
H          3.84090       -2.55400        5.63950
H          3.91360       -1.08990        6.62200
H          6.01530       -1.68400        7.54630
H          5.55790       -3.31540        7.06110
H          7.73860       -1.68630        5.99640
H          7.30480       -3.31860        5.49670
H          7.03980       -1.09000        3.81060
H          6.07500       -2.55800        3.63200
