rmsd31.gzmat
 OpenBabel08211713393D

 30 31  0  0  0  0  0  0  0  0999 V2000
    0.0000    0.0000    0.0000 Cl  0  0  0  0  0  0  0  0  0  0  0  0
    1.7011    0.0000    0.0000 C   0  0  0  0  0  0  0  0  0  0  0  0
    2.3599    0.0000    1.2240 C   0  0  0  0  0  0  0  0  0  0  0  0
    3.7542   -0.0100    1.2374 C   0  0  0  0  0  0  0  0  0  0  0  0
    4.4752   -0.0022    0.0404 C   0  0  0  0  0  0  0  0  0  0  0  0
    3.8078   -0.0011   -1.1831 C   0  0  0  0  0  0  0  0  0  0  0  0
    2.4172   -0.0025   -1.1904 C   0  0  0  0  0  0  0  0  0  0  0  0
    1.6099   -0.0046   -2.6873 Cl  0  0  0  0  0  0  0  0  0  0  0  0
    4.5208   -0.0128    2.5163 C   0  0  0  0  0  0  0  0  0  0  0  0
    5.6046    0.5146    2.5716 O   0  0  0  0  0  0  0  0  0  0  0  0
    3.9199   -0.6943    3.7170 C   0  0  0  0  0  0  0  0  0  0  0  0
    3.5906   -2.1611    3.4210 C   0  0  0  0  0  0  0  0  0  0  0  0
    4.8533   -3.0021    3.1504 C   0  0  0  0  0  0  0  0  0  0  0  0
    4.4694   -4.4333    3.5550 C   0  0  0  0  0  0  0  0  0  0  0  0
    3.4023   -4.2947    4.6582 C   0  0  0  0  0  0  0  0  0  0  0  0
    2.8985   -2.8388    4.6235 C   0  0  0  0  0  0  0  0  0  0  0  0
    1.7926    0.0100    2.1575 H   0  0  0  0  0  0  0  0  0  0  0  0
    5.5698    0.0125    0.0709 H   0  0  0  0  0  0  0  0  0  0  0  0
    4.3728    0.0061   -2.1170 H   0  0  0  0  0  0  0  0  0  0  0  0
    3.0136   -0.1511    4.0506 H   0  0  0  0  0  0  0  0  0  0  0  0
    4.6284   -0.6278    4.5724 H   0  0  0  0  0  0  0  0  0  0  0  0
    2.9169   -2.2255    2.5343 H   0  0  0  0  0  0  0  0  0  0  0  0
    5.7057   -2.6420    3.7515 H   0  0  0  0  0  0  0  0  0  0  0  0
    5.1691   -2.9415    2.0986 H   0  0  0  0  0  0  0  0  0  0  0  0
    4.0645   -4.9856    2.6901 H   0  0  0  0  0  0  0  0  0  0  0  0
    5.3433   -5.0041    3.9035 H   0  0  0  0  0  0  0  0  0  0  0  0
    2.5766   -5.0062    4.4990 H   0  0  0  0  0  0  0  0  0  0  0  0
    3.8272   -4.5349    5.6463 H   0  0  0  0  0  0  0  0  0  0  0  0
    1.8029   -2.7949    4.5247 H   0  0  0  0  0  0  0  0  0  0  0  0
    3.1452   -2.3248    5.5668 H   0  0  0  0  0  0  0  0  0  0  0  0
  2  1  1  0  0  0  0
  2  3  2  0  0  0  0
  3  4  1  0  0  0  0
  3 17  1  0  0  0  0
  4  9  1  0  0  0  0
  5 18  1  0  0  0  0
  5  4  2  0  0  0  0
  6  5  1  0  0  0  0
  7  6  2  0  0  0  0
  7  2  1  0  0  0  0
  8  7  1  0  0  0  0
  9 10  2  0  0  0  0
  9 11  1  0  0  0  0
 11 20  1  0  0  0  0
 11 21  1  0  0  0  0
 12 11  1  0  0  0  0
 12 16  1  0  0  0  0
 13 12  1  0  0  0  0
 13 14  1  0  0  0  0
 13 23  1  0  0  0  0
 14 26  1  0  0  0  0
 14 15  1  0  0  0  0
 15 28  1  0  0  0  0
 16 15  1  0  0  0  0
 16 30  1  0  0  0  0
 19  6  1  0  0  0  0
 22 12  1  0  0  0  0
 24 13  1  0  0  0  0
 25 14  1  0  0  0  0
 27 15  1  0  0  0  0
 29 16  1  0  0  0  0
M  END
$$$$
