rmsd138.gzmat
 OpenBabel08211713383D

 43 45  0  0  0  0  0  0  0  0999 V2000
    0.0000    0.0000    0.0000 S   0  0  0  0  0  0  0  0  0  0  0  0
    1.7880    0.0000    0.0000 N   0  0  0  0  0  0  0  0  0  0  0  0
    2.2826    0.0000    1.3471 C   0  0  0  0  0  0  0  0  0  0  0  0
    3.5108    0.0998    1.7330 N   0  0  0  0  0  0  0  0  0  0  0  0
    4.6277    0.1441    0.8794 C   0  0  0  0  0  0  0  0  0  0  0  0
    4.7420    1.0676   -0.1700 C   0  0  0  0  0  0  0  0  0  0  0  0
    5.9050    1.0962   -0.9324 C   0  0  0  0  0  0  0  0  0  0  0  0
    6.9488    0.2142   -0.6575 C   0  0  0  0  0  0  0  0  0  0  0  0
    6.8375   -0.6924    0.3967 C   0  0  0  0  0  0  0  0  0  0  0  0
    5.6851   -0.7315    1.1735 C   0  0  0  0  0  0  0  0  0  0  0  0
    1.2497   -0.1279    2.3055 N   0  0  0  0  0  0  0  0  0  0  0  0
   -0.0691   -0.0225    1.8229 C   0  0  0  0  0  0  0  0  0  0  0  0
   -1.0637    0.0187    2.6198 N   0  0  0  0  0  0  0  0  0  0  0  0
   -2.4562   -0.0022    2.2112 C   0  0  0  0  0  0  0  0  0  0  0  0
   -2.8868   -1.3822    1.6991 C   0  0  0  0  0  0  0  0  0  0  0  0
    1.5417    0.1456    3.7288 C   0  0  0  0  0  0  0  0  0  0  0  0
    1.5891    1.6435    4.0285 C   0  0  0  0  0  0  0  0  0  0  0  0
    2.3648   -0.9370   -0.9141 C   0  0  0  0  0  0  0  0  0  0  0  0
    2.5576   -0.4975   -2.2298 C   0  0  0  0  0  0  0  0  0  0  0  0
    3.1922   -1.3409   -3.1366 C   0  0  0  0  0  0  0  0  0  0  0  0
    3.6213   -2.6069   -2.7401 C   0  0  0  0  0  0  0  0  0  0  0  0
    3.4070   -3.0435   -1.4335 C   0  0  0  0  0  0  0  0  0  0  0  0
    2.7723   -2.2148   -0.5134 C   0  0  0  0  0  0  0  0  0  0  0  0
    3.9201    1.7481   -0.3850 H   0  0  0  0  0  0  0  0  0  0  0  0
    5.9947    1.8080   -1.7512 H   0  0  0  0  0  0  0  0  0  0  0  0
    7.8510    0.2342   -1.2631 H   0  0  0  0  0  0  0  0  0  0  0  0
    7.6578   -1.3741    0.6130 H   0  0  0  0  0  0  0  0  0  0  0  0
    5.5900   -1.4287    2.0037 H   0  0  0  0  0  0  0  0  0  0  0  0
   -2.6924    0.7893    1.4650 H   0  0  0  0  0  0  0  0  0  0  0  0
   -3.0387    0.2553    3.1327 H   0  0  0  0  0  0  0  0  0  0  0  0
   -2.4165   -1.6418    0.7451 H   0  0  0  0  0  0  0  0  0  0  0  0
   -3.9714   -1.4253    1.5549 H   0  0  0  0  0  0  0  0  0  0  0  0
   -2.6154   -2.1679    2.4173 H   0  0  0  0  0  0  0  0  0  0  0  0
    2.5201   -0.3370    3.9729 H   0  0  0  0  0  0  0  0  0  0  0  0
    0.7510   -0.3564    4.3364 H   0  0  0  0  0  0  0  0  0  0  0  0
    2.3521    2.1464    3.4180 H   0  0  0  0  0  0  0  0  0  0  0  0
    1.8380    1.8229    5.0801 H   0  0  0  0  0  0  0  0  0  0  0  0
    0.6238    2.1240    3.8284 H   0  0  0  0  0  0  0  0  0  0  0  0
    2.2306    0.4984   -2.5284 H   0  0  0  0  0  0  0  0  0  0  0  0
    3.3605   -1.0053   -4.1590 H   0  0  0  0  0  0  0  0  0  0  0  0
    4.1267   -3.2562   -3.4523 H   0  0  0  0  0  0  0  0  0  0  0  0
    3.7399   -4.0348   -1.1288 H   0  0  0  0  0  0  0  0  0  0  0  0
    2.6084   -2.5533    0.5093 H   0  0  0  0  0  0  0  0  0  0  0  0
  1  2  1  0  0  0  0
  1 12  1  0  0  0  0
  2  3  1  0  0  0  0
  3  4  2  0  0  0  0
  3 11  1  0  0  0  0
  5 10  1  0  0  0  0
  5  4  1  0  0  0  0
  6  5  2  0  0  0  0
  7  8  2  0  0  0  0
  7  6  1  0  0  0  0
  8  9  1  0  0  0  0
  9 27  1  0  0  0  0
  9 10  2  0  0  0  0
 10 28  1  0  0  0  0
 11 16  1  0  0  0  0
 12 11  1  0  0  0  0
 12 13  2  0  0  0  0
 14 13  1  0  0  0  0
 14 30  1  0  0  0  0
 15 14  1  0  0  0  0
 15 33  1  0  0  0  0
 16 34  1  0  0  0  0
 16 17  1  0  0  0  0
 16 35  1  0  0  0  0
 17 37  1  0  0  0  0
 18 23  1  0  0  0  0
 18  2  1  0  0  0  0
 19 18  2  0  0  0  0
 20 21  2  0  0  0  0
 20 19  1  0  0  0  0
 21 22  1  0  0  0  0
 22 42  1  0  0  0  0
 22 23  2  0  0  0  0
 23 43  1  0  0  0  0
 24  6  1  0  0  0  0
 25  7  1  0  0  0  0
 26  8  1  0  0  0  0
 29 14  1  0  0  0  0
 31 15  1  0  0  0  0
 32 15  1  0  0  0  0
 36 17  1  0  0  0  0
 38 17  1  0  0  0  0
 39 19  1  0  0  0  0
 40 20  1  0  0  0  0
 41 21  1  0  0  0  0
M  END
$$$$
