
     RDKit          3D

 43 45  0  0  0  0  0  0  0  0999 V2000
   -0.0353   -0.2371    0.0527 S   0  0  0  0  0  0  0  0  0  0  0  0
    1.7166   -0.3534    0.1154 N   0  0  0  0  0  0  0  0  0  0  0  0
    2.2487   -0.1630    1.3880 C   0  0  0  0  0  0  0  0  0  0  0  0
    3.4690   -0.1513    1.7729 N   0  0  0  0  0  0  0  0  0  0  0  0
    4.5969   -0.1151    0.9598 C   0  0  0  0  0  0  0  0  0  0  0  0
    4.7241    0.7657   -0.1335 C   0  0  0  0  0  0  0  0  0  0  0  0
    5.8810    0.7686   -0.9101 C   0  0  0  0  0  0  0  0  0  0  0  0
    6.9402   -0.0962   -0.6151 C   0  0  0  0  0  0  0  0  0  0  0  0
    6.8336   -0.9538    0.4839 C   0  0  0  0  0  0  0  0  0  0  0  0
    5.6810   -0.9574    1.2693 C   0  0  0  0  0  0  0  0  0  0  0  0
    1.2192    0.0272    2.3087 N   0  0  0  0  0  0  0  0  0  0  0  0
   -0.0756    0.0779    1.8297 C   0  0  0  0  0  0  0  0  0  0  0  0
   -1.0945    0.3288    2.5359 N   0  0  0  0  0  0  0  0  0  0  0  0
   -2.4067    0.3075    1.9289 C   0  0  0  0  0  0  0  0  0  0  0  0
   -3.0972   -1.0447    2.1144 C   0  0  0  0  0  0  0  0  0  0  0  0
    1.5046    0.3480    3.7066 C   0  0  0  0  0  0  0  0  0  0  0  0
    1.6617    1.8466    3.9370 C   0  0  0  0  0  0  0  0  0  0  0  0
    2.3716   -1.0117   -0.9585 C   0  0  0  0  0  0  0  0  0  0  0  0
    2.2231   -0.5083   -2.2570 C   0  0  0  0  0  0  0  0  0  0  0  0
    2.8752   -1.1293   -3.3223 C   0  0  0  0  0  0  0  0  0  0  0  0
    3.6932   -2.2397   -3.0946 C   0  0  0  0  0  0  0  0  0  0  0  0
    3.8338   -2.7424   -1.7982 C   0  0  0  0  0  0  0  0  0  0  0  0
    3.1611   -2.1459   -0.7323 C   0  0  0  0  0  0  0  0  0  0  0  0
    3.9003    1.4403   -0.3733 H   0  0  0  0  0  0  0  0  0  0  0  0
    5.9545    1.4525   -1.7597 H   0  0  0  0  0  0  0  0  0  0  0  0
    7.8427   -0.0942   -1.2303 H   0  0  0  0  0  0  0  0  0  0  0  0
    7.6582   -1.6262    0.7347 H   0  0  0  0  0  0  0  0  0  0  0  0
    5.5890   -1.6217    2.1311 H   0  0  0  0  0  0  0  0  0  0  0  0
   -2.3607    0.5558    0.8446 H   0  0  0  0  0  0  0  0  0  0  0  0
   -3.0177    1.0988    2.3945 H   0  0  0  0  0  0  0  0  0  0  0  0
   -2.5317   -1.8437    1.6093 H   0  0  0  0  0  0  0  0  0  0  0  0
   -4.1159   -1.0256    1.6957 H   0  0  0  0  0  0  0  0  0  0  0  0
   -3.1631   -1.2975    3.1836 H   0  0  0  0  0  0  0  0  0  0  0  0
    2.4284   -0.1863    3.9626 H   0  0  0  0  0  0  0  0  0  0  0  0
    0.6691   -0.0529    4.2957 H   0  0  0  0  0  0  0  0  0  0  0  0
    2.4964    2.2440    3.3402 H   0  0  0  0  0  0  0  0  0  0  0  0
    1.8748    2.0456    4.9990 H   0  0  0  0  0  0  0  0  0  0  0  0
    0.7376    2.3794    3.6669 H   0  0  0  0  0  0  0  0  0  0  0  0
    1.6096    0.3802   -2.4202 H   0  0  0  0  0  0  0  0  0  0  0  0
    2.7584   -0.7312   -4.3328 H   0  0  0  0  0  0  0  0  0  0  0  0
    4.2197   -2.7130   -3.9262 H   0  0  0  0  0  0  0  0  0  0  0  0
    4.4701   -3.6104   -1.6122 H   0  0  0  0  0  0  0  0  0  0  0  0
    3.2667   -2.5382    0.2789 H   0  0  0  0  0  0  0  0  0  0  0  0
  1  2  1  0
  1 12  1  0
  2  3  1  0
  2 18  1  0
  3  4  2  0
  3 11  1  0
  4  5  1  0
  5  6  2  0
  5 10  1  0
  6  7  1  0
  6 24  1  0
  7  8  2  0
  7 25  1  0
  8  9  1  0
  8 26  1  0
  9 10  2  0
  9 27  1  0
 10 28  1  0
 11 12  1  0
 11 16  1  0
 12 13  2  0
 13 14  1  0
 14 15  1  0
 14 29  1  0
 14 30  1  0
 15 31  1  0
 15 32  1  0
 15 33  1  0
 16 17  1  0
 16 34  1  0
 16 35  1  0
 17 36  1  0
 17 37  1  0
 17 38  1  0
 18 19  2  0
 18 23  1  0
 19 20  1  0
 19 39  1  0
 20 21  2  0
 20 40  1  0
 21 22  1  0
 21 41  1  0
 22 23  2  0
 22 42  1  0
 23 43  1  0
M  END

