43
rmsd26.gzmat
S          0.00000        0.00000        0.00000
N          1.78780        0.00000        0.00000
C          2.28610        0.00000        1.34420
N          3.51740        0.08330        1.72630
C          4.62990        0.12620        0.86700
C          4.73560        1.05190       -0.18200
C          5.89270        1.08440       -0.95270
C          6.94060        0.20460       -0.68650
C          6.83900       -0.70230        0.36810
C          5.69160       -0.74630        1.15230
N          1.25300       -0.09780        2.30780
C         -0.06550        0.01720        1.82250
N         -1.05910        0.09190        2.61790
C         -2.45210        0.11410        2.21130
C         -2.94480       -1.25660        1.73260
C          1.54360        0.24340        3.71760
C          1.58980        1.75410        3.94460
C          2.36120       -0.91800       -0.93450
C          2.51460       -0.46390       -2.25080
C          3.12850       -1.29320       -3.18420
C          3.57810       -2.56000       -2.81390
C          3.41150       -3.00780       -1.50450
C          2.79770       -2.19310       -0.55770
H          3.91080        1.73080       -0.39050
H          5.97500        1.79770       -1.77080
H          7.83810        0.22690       -1.29890
H          7.66280       -1.38130        0.58000
H          5.60610       -1.44650        1.98040
H         -2.65780        0.89650        1.44660
H         -3.02080        0.41640        3.12820
H         -2.49720       -1.55560        0.77940
H         -4.03200       -1.25520        1.59950
H         -2.70080       -2.03790        2.46510
H          2.52040       -0.22730        3.98760
H          0.75130       -0.22880        4.34670
H          2.39320        2.22000        3.35790
H          1.77460        1.98520        4.99920
H          0.64410        2.23210        3.66190
H          2.17410        0.53270       -2.53050
H          3.26270       -0.94660       -4.20780
H          4.06250       -3.19940       -3.54930
H          3.76280       -3.99760       -1.21650
H          2.67050       -2.54140        0.46670
