rmsd132.gzmat
 OpenBabel08211713383D

 43 45  0  0  0  0  0  0  0  0999 V2000
    0.0000    0.0000    0.0000 S   0  0  0  0  0  0  0  0  0  0  0  0
    1.7883    0.0000    0.0000 N   0  0  0  0  0  0  0  0  0  0  0  0
    2.2837    0.0000    1.3456 C   0  0  0  0  0  0  0  0  0  0  0  0
    3.5135    0.0707    1.7316 N   0  0  0  0  0  0  0  0  0  0  0  0
    4.6334    0.0936    0.8831 C   0  0  0  0  0  0  0  0  0  0  0  0
    4.7851    1.0479   -0.1334 C   0  0  0  0  0  0  0  0  0  0  0  0
    5.9590    1.0705   -0.8788 C   0  0  0  0  0  0  0  0  0  0  0  0
    6.9728    0.1487   -0.6235 C   0  0  0  0  0  0  0  0  0  0  0  0
    6.8207   -0.7937    0.3933 C   0  0  0  0  0  0  0  0  0  0  0  0
    5.6583   -0.8262    1.1551 C   0  0  0  0  0  0  0  0  0  0  0  0
    1.2498   -0.0859    2.3095 N   0  0  0  0  0  0  0  0  0  0  0  0
   -0.0670    0.0343    1.8230 C   0  0  0  0  0  0  0  0  0  0  0  0
   -1.0614    0.1226    2.6160 N   0  0  0  0  0  0  0  0  0  0  0  0
   -2.4529    0.1362    2.2029 C   0  0  0  0  0  0  0  0  0  0  0  0
   -2.9480   -1.2597    1.8053 C   0  0  0  0  0  0  0  0  0  0  0  0
    1.5478    0.2579    3.7170 C   0  0  0  0  0  0  0  0  0  0  0  0
    1.5971    1.7690    3.9396 C   0  0  0  0  0  0  0  0  0  0  0  0
    2.3631   -0.9359   -0.9175 C   0  0  0  0  0  0  0  0  0  0  0  0
    2.6216   -0.4711   -2.2127 C   0  0  0  0  0  0  0  0  0  0  0  0
    3.2487   -1.3184   -3.1212 C   0  0  0  0  0  0  0  0  0  0  0  0
    3.6082   -2.6120   -2.7456 C   0  0  0  0  0  0  0  0  0  0  0  0
    3.3305   -3.0721   -1.4594 C   0  0  0  0  0  0  0  0  0  0  0  0
    2.7017   -2.2401   -0.5383 C   0  0  0  0  0  0  0  0  0  0  0  0
    3.9846    1.7567   -0.3356 H   0  0  0  0  0  0  0  0  0  0  0  0
    6.0817    1.8107   -1.6669 H   0  0  0  0  0  0  0  0  0  0  0  0
    7.8836    0.1655   -1.2158 H   0  0  0  0  0  0  0  0  0  0  0  0
    7.6170   -1.5081    0.5940 H   0  0  0  0  0  0  0  0  0  0  0  0
    5.5320   -1.5509    1.9567 H   0  0  0  0  0  0  0  0  0  0  0  0
   -2.6530    0.8718    1.3918 H   0  0  0  0  0  0  0  0  0  0  0  0
   -3.0229    0.4956    3.0976 H   0  0  0  0  0  0  0  0  0  0  0  0
   -2.4890   -1.6188    0.8785 H   0  0  0  0  0  0  0  0  0  0  0  0
   -4.0337   -1.2626    1.6608 H   0  0  0  0  0  0  0  0  0  0  0  0
   -2.7149   -1.9949    2.5875 H   0  0  0  0  0  0  0  0  0  0  0  0
    2.5257   -0.2128    3.9830 H   0  0  0  0  0  0  0  0  0  0  0  0
    0.7591   -0.2119    4.3514 H   0  0  0  0  0  0  0  0  0  0  0  0
    2.3403    2.2440    3.2856 H   0  0  0  0  0  0  0  0  0  0  0  0
    1.8736    2.0025    4.9734 H   0  0  0  0  0  0  0  0  0  0  0  0
    0.6245    2.2349    3.7420 H   0  0  0  0  0  0  0  0  0  0  0  0
    2.3506    0.5464   -2.4936 H   0  0  0  0  0  0  0  0  0  0  0  0
    3.4645   -0.9652   -4.1285 H   0  0  0  0  0  0  0  0  0  0  0  0
    4.1088   -3.2644   -3.4587 H   0  0  0  0  0  0  0  0  0  0  0  0
    3.6090   -4.0845   -1.1704 H   0  0  0  0  0  0  0  0  0  0  0  0
    2.4875   -2.5972    0.4684 H   0  0  0  0  0  0  0  0  0  0  0  0
  1  2  1  0  0  0  0
  1 12  1  0  0  0  0
  2  3  1  0  0  0  0
  3  4  2  0  0  0  0
  3 11  1  0  0  0  0
  5 10  1  0  0  0  0
  5  4  1  0  0  0  0
  6  5  2  0  0  0  0
  7  8  2  0  0  0  0
  7  6  1  0  0  0  0
  8  9  1  0  0  0  0
  9 27  1  0  0  0  0
  9 10  2  0  0  0  0
 10 28  1  0  0  0  0
 11 16  1  0  0  0  0
 12 11  1  0  0  0  0
 12 13  2  0  0  0  0
 14 13  1  0  0  0  0
 14 30  1  0  0  0  0
 15 14  1  0  0  0  0
 15 33  1  0  0  0  0
 16 17  1  0  0  0  0
 16 34  1  0  0  0  0
 16 35  1  0  0  0  0
 17 37  1  0  0  0  0
 18 23  1  0  0  0  0
 18  2  1  0  0  0  0
 19 18  2  0  0  0  0
 20 21  2  0  0  0  0
 20 19  1  0  0  0  0
 21 22  1  0  0  0  0
 22 42  1  0  0  0  0
 22 23  2  0  0  0  0
 23 43  1  0  0  0  0
 24  6  1  0  0  0  0
 25  7  1  0  0  0  0
 26  8  1  0  0  0  0
 29 14  1  0  0  0  0
 31 15  1  0  0  0  0
 32 15  1  0  0  0  0
 36 17  1  0  0  0  0
 38 17  1  0  0  0  0
 39 19  1  0  0  0  0
 40 20  1  0  0  0  0
 41 21  1  0  0  0  0
M  END
$$$$
