43
rmsd150.gzmat
S          0.00000        0.00000        0.00000
N          1.78770        0.00000        0.00000
C          2.28710        0.00000        1.34280
N          3.52120        0.04760        1.72040
C          4.62620        0.04810        0.84940
C          4.82320        1.07250       -0.08820
C          5.97130        1.06830       -0.87260
C          6.91560        0.05250       -0.73230
C          6.72200       -0.95690        0.21040
C          5.58390       -0.96530        1.00960
N          1.25360       -0.04970        2.31010
C         -0.06280        0.07320        1.82200
N         -1.05600        0.18750        2.61350
C         -2.44700        0.20570        2.19810
C         -2.94560       -1.18430        1.78480
C          1.55660        0.34070        3.70420
C          1.63080        1.85810        3.87200
C          2.36240       -0.91790       -0.93440
C          2.59210       -0.43500       -2.22870
C          3.21060       -1.26460       -3.15920
C          3.58950       -2.55920       -2.80630
C          3.34470       -3.03600       -1.51930
C          2.72570       -2.22130       -0.57590
H          4.07540        1.85490       -0.19900
H          6.12800        1.85980       -1.60290
H          7.80460        0.04830       -1.35710
H          7.46500       -1.74470        0.32160
H          5.42590       -1.74380        1.75310
H         -2.64130        0.95020        1.39330
H         -3.01820        0.55900        3.09430
H         -2.53010       -1.51040        0.82550
H         -4.03690       -1.19720        1.69290
H         -2.66740       -1.93890        2.53340
H          2.52620       -0.13750        3.98820
H          0.75900       -0.09200        4.35470
H          2.42170        2.29210        3.24470
H          1.85130        2.12450        4.91170
H          0.68320        2.33920        3.59960
H          2.30550        0.58320       -2.49210
H          3.40490       -0.89590       -4.16540
H          4.07960       -3.19910       -3.53800
H          3.64250       -4.04800       -1.24710
H          2.53940       -2.59090        0.43190
