43
rmsd105.gzmat
S          0.00000        0.00000        0.00000
N          1.78820        0.00000        0.00000
C          2.28570        0.00000        1.34430
N          3.51600        0.06630        1.73140
C          4.63640        0.06540        0.88290
C          4.80030        0.99810       -0.15160
C          5.96800        0.98170       -0.90710
C          6.96570        0.04550       -0.64090
C          6.80460       -0.87080        0.39800
C          5.64840       -0.86500        1.16940
N          1.25210       -0.07470        2.30790
C         -0.06510        0.03780        1.82320
N         -1.05990        0.09610        2.61850
C         -2.45040        0.11880        2.20300
C         -2.88590        1.52000        1.75690
C          1.55370        0.25790        3.71690
C          1.68270        1.76470        3.93620
C          2.36620       -0.92340       -0.92730
C          2.60570       -0.44950       -2.22310
C          3.24000       -1.28270       -3.13950
C          3.62360       -2.57180       -2.77210
C          3.36530       -3.04160       -1.48550
C          2.73020       -2.22340       -0.55620
H          4.01300        1.71990       -0.35990
H          6.09890        1.70070       -1.71390
H          7.87110        0.03080       -1.24140
H          7.58800       -1.59630        0.60820
H          5.51690       -1.56770        1.98990
H         -3.03580       -0.18670        3.10750
H         -2.67990       -0.63440        1.41600
H         -2.62770        2.27070        2.51580
H         -3.96970        1.56170        1.60490
H         -2.40640        1.82740        0.82160
H          2.50360       -0.26330        3.99140
H          0.73710       -0.16930        4.34620
H          2.52180        2.17840        3.35910
H          1.86500        1.99130        4.99240
H          0.77180        2.29480        3.63490
H          2.31600        0.56430       -2.49920
H          3.44480       -0.92100       -4.14610
H          4.12850       -3.21300       -3.49200
H          3.66440       -4.04990       -1.20190
H          2.53110       -2.58730        0.45110
