43

S         -0.03530       -0.23710        0.05270
N          1.71660       -0.35340        0.11540
C          2.24870       -0.16300        1.38800
N          3.46900       -0.15130        1.77290
C          4.59690       -0.11510        0.95980
C          4.72410        0.76570       -0.13350
C          5.88100        0.76860       -0.91010
C          6.94020       -0.09620       -0.61510
C          6.83360       -0.95380        0.48390
C          5.68100       -0.95740        1.26930
N          1.21920        0.02720        2.30870
C         -0.07560        0.07790        1.82970
N         -1.09450        0.32880        2.53590
C         -2.40670        0.30750        1.92890
C         -3.09720       -1.04470        2.11440
C          1.50460        0.34800        3.70660
C          1.66170        1.84660        3.93700
C          2.37160       -1.01170       -0.95850
C          2.22310       -0.50830       -2.25700
C          2.87520       -1.12930       -3.32230
C          3.69320       -2.23970       -3.09460
C          3.83380       -2.74240       -1.79820
C          3.16110       -2.14590       -0.73230
H          3.90030        1.44030       -0.37330
H          5.95450        1.45250       -1.75970
H          7.84270       -0.09420       -1.23030
H          7.65820       -1.62620        0.73470
H          5.58900       -1.62170        2.13110
H         -2.36070        0.55580        0.84460
H         -3.01770        1.09880        2.39450
H         -2.53170       -1.84370        1.60930
H         -4.11590       -1.02560        1.69570
H         -3.16310       -1.29750        3.18360
H          2.42840       -0.18630        3.96260
H          0.66910       -0.05290        4.29570
H          2.49640        2.24400        3.34020
H          1.87480        2.04560        4.99900
H          0.73760        2.37940        3.66690
H          1.60960        0.38020       -2.42020
H          2.75840       -0.73120       -4.33280
H          4.21970       -2.71300       -3.92620
H          4.47010       -3.61040       -1.61220
H          3.26670       -2.53820        0.27890
