41
rmsd18.gzmat
O          0.00000        0.00000        0.00000
C          1.21540        0.00000        0.00000
N          1.95580        0.00000        1.15420
C          3.40700        0.19050        1.13270
C          1.23420        0.39150        2.40240
H          0.18260       -0.02550        2.30710
C          1.87100       -0.25230        3.63320
C          1.16600        1.90120        2.47300
C          0.05060        2.53490        1.91940
C         -0.04360        3.92360        1.93360
C          0.97810        4.68540        2.49860
C          2.08880        4.05480        3.05540
C          2.18280        2.66410        3.04510
C          1.92400       -0.11410       -1.32280
C          2.27920        1.04230       -2.02450
C          2.82900        0.87780       -3.31440
C          2.98460       -0.38440       -3.84950
N          2.61060       -1.49970       -3.13810
H          2.72150       -2.43080       -3.55910
C          2.07270       -1.38620       -1.87950
C          1.66290       -2.61910       -1.17650
C          2.06510        2.38470       -1.45740
H          3.85510       -0.11830        0.17790
H          3.87010       -0.43350        1.92450
H          3.68560        1.24450        1.32600
H          2.89520        0.08420        3.82440
H          1.88910       -1.34690        3.54790
H          1.28260       -0.00440        4.53150
H         -0.75210        1.93880        1.47840
H         -0.92270        4.41320        1.51390
H          0.90090        5.77330        2.51720
H          2.88080        4.64860        3.51280
H          3.04500        2.18250        3.50300
H          3.12240        1.76020       -3.89840
H          3.40490       -0.55140       -4.85640
H          0.57270       -2.59640       -0.93250
H          2.16290       -2.71930       -0.18900
H          1.84040       -3.56140       -1.71660
H          2.38730        2.47110       -0.40140
H          0.98230        2.64400       -1.43900
H          2.56810        3.19630       -2.00880
