rmsd61.gzmat
 OpenBabel08211713363D

 41 42  0  0  1  0  0  0  0  0999 V2000
    0.0000    0.0000    0.0000 O   0  0  0  0  0  0  0  0  0  0  0  0
    1.2150    0.0000    0.0000 C   0  0  0  0  0  0  0  0  0  0  0  0
    1.9575    0.0000    1.1544 N   0  0  0  0  0  0  0  0  0  0  0  0
    3.4075    0.2031    1.1184 C   0  0  0  0  0  0  0  0  0  0  0  0
    1.2486    0.4188    2.4011 C   0  0  1  0  0  0  0  0  0  0  0  0
    0.1647    0.1035    2.2812 H   0  0  0  0  0  0  0  0  0  0  0  0
    1.8038   -0.3225    3.6168 C   0  0  0  0  0  0  0  0  0  0  0  0
    1.3174    1.9262    2.5111 C   0  0  0  0  0  0  0  0  0  0  0  0
    0.3241    2.6760    1.8752 C   0  0  0  0  0  0  0  0  0  0  0  0
    0.3651    4.0666    1.9140 C   0  0  0  0  0  0  0  0  0  0  0  0
    1.3982    4.7146    2.5903 C   0  0  0  0  0  0  0  0  0  0  0  0
    2.3845    3.9684    3.2311 C   0  0  0  0  0  0  0  0  0  0  0  0
    2.3464    2.5758    3.1908 C   0  0  0  0  0  0  0  0  0  0  0  0
    1.9312   -0.1147   -1.3190 C   0  0  0  0  0  0  0  0  0  0  0  0
    2.2736    1.0414   -2.0269 C   0  0  1  0  0  0  0  0  0  0  0  0
    2.8666    0.8753   -3.2972 C   0  0  0  0  0  0  0  0  0  0  0  0
    3.0678   -0.3886   -3.8122 C   0  0  0  0  0  0  0  0  0  0  0  0
    2.6897   -1.5035   -3.1026 N   0  0  0  0  0  0  0  0  0  0  0  0
    2.8278   -2.4358   -3.5121 H   0  0  0  0  0  0  0  0  0  0  0  0
    2.1124   -1.3883   -1.8616 C   0  0  0  0  0  0  0  0  0  0  0  0
    1.6928   -2.6205   -1.1636 C   0  0  0  0  0  0  0  0  0  0  0  0
    2.0255    2.3866   -1.4785 C   0  0  0  0  0  0  0  0  0  0  0  0
    3.8629   -0.2402    0.2215 H   0  0  0  0  0  0  0  0  0  0  0  0
    3.8712   -0.2948    1.9944 H   0  0  0  0  0  0  0  0  0  0  0  0
    3.6758    1.2756    1.1632 H   0  0  0  0  0  0  0  0  0  0  0  0
    2.8495   -0.0854    3.8367 H   0  0  0  0  0  0  0  0  0  0  0  0
    1.7313   -1.4106    3.4864 H   0  0  0  0  0  0  0  0  0  0  0  0
    1.2214   -0.0611    4.5149 H   0  0  0  0  0  0  0  0  0  0  0  0
   -0.4923    2.1698    1.3554 H   0  0  0  0  0  0  0  0  0  0  0  0
   -0.4182    4.6481    1.4272 H   0  0  0  0  0  0  0  0  0  0  0  0
    1.4279    5.8040    2.6283 H   0  0  0  0  0  0  0  0  0  0  0  0
    3.1831    4.4734    3.7752 H   0  0  0  0  0  0  0  0  0  0  0  0
    3.1181    2.0049    3.7045 H   0  0  0  0  0  0  0  0  0  0  0  0
    3.1598    1.7575   -3.8813 H   0  0  0  0  0  0  0  0  0  0  0  0
    3.5278   -0.5568   -4.8014 H   0  0  0  0  0  0  0  0  0  0  0  0
    0.5982   -2.5982   -0.9395 H   0  0  0  0  0  0  0  0  0  0  0  0
    2.1750   -2.7192   -0.1671 H   0  0  0  0  0  0  0  0  0  0  0  0
    1.8801   -3.5632   -1.6993 H   0  0  0  0  0  0  0  0  0  0  0  0
    1.0472    2.4629   -0.9563 H   0  0  0  0  0  0  0  0  0  0  0  0
    2.0295    3.1872   -2.2386 H   0  0  0  0  0  0  0  0  0  0  0  0
    2.7804    2.6731   -0.7198 H   0  0  0  0  0  0  0  0  0  0  0  0
  1  2  2  0  0  0  0
  2  3  1  0  0  0  0
  3  5  1  0  0  0  0
  4  3  1  0  0  0  0
  4 25  1  0  0  0  0
  4 24  1  0  0  0  0
  5  6  1  6  0  0  0
  5  8  1  0  0  0  0
  5  7  1  0  0  0  0
  7 26  1  0  0  0  0
  7 28  1  0  0  0  0
  8 13  2  0  0  0  0
  9 10  2  0  0  0  0
  9  8  1  0  0  0  0
 10 11  1  0  0  0  0
 11 31  1  0  0  0  0
 11 12  2  0  0  0  0
 12 32  1  0  0  0  0
 13 12  1  0  0  0  0
 13 33  1  0  0  0  0
 14  2  1  0  0  0  0
 15 22  1  6  0  0  0
 15 14  1  0  0  0  0
 16 15  1  0  0  0  0
 17 16  2  0  0  0  0
 17 18  1  0  0  0  0
 18 20  1  0  0  0  0
 19 18  1  0  0  0  0
 20 14  2  0  0  0  0
 20 21  1  0  0  0  0
 21 36  1  0  0  0  0
 21 37  1  0  0  0  0
 22 39  1  0  0  0  0
 22 41  1  0  0  0  0
 23  4  1  0  0  0  0
 27  7  1  0  0  0  0
 29  9  1  0  0  0  0
 30 10  1  0  0  0  0
 34 16  1  0  0  0  0
 35 17  1  0  0  0  0
 38 21  1  0  0  0  0
 40 22  1  0  0  0  0
M  END
$$$$
