41
rmsd59.gzmat
O          0.00000        0.00000        0.00000
C          1.21490        0.00000        0.00000
N          1.95630        0.00000        1.15440
C          3.40600        0.20580        1.13120
C          1.23860        0.39120        2.40480
H          0.16280        0.05110        2.28090
C          1.81130       -0.34830        3.61340
C          1.27250        1.89820        2.53690
C          0.23040        2.63340        1.96600
C          0.23880        4.02380        2.03210
C          1.28570        4.68600        2.67170
C          2.32260        3.95430        3.24630
C          2.31640        2.56230        3.17970
C          1.92950       -0.09630       -1.32090
C          2.14710        1.07120       -2.06130
C          2.73780        0.93260       -3.33530
C          3.06150       -0.31770       -3.82050
N          2.80940       -1.44600       -3.07740
H          3.04330       -2.36920       -3.46300
C          2.23180       -1.35810       -1.83360
C          1.93910       -2.61010       -1.10630
C          1.76210        2.39380       -1.53950
H          3.86040       -0.12760        0.18820
H          3.87380       -0.38490        1.94520
H          3.67230        1.26840        1.29150
H          2.84060       -0.06270        3.85310
H          1.79370       -1.43560        3.46150
H          1.20220       -0.13350        4.50630
H         -0.59730        2.11670        1.47530
H         -0.58050        4.59470        1.59470
H          1.28530        5.77500        2.73450
H          3.13580        4.46940        3.75830
H          3.12430        2.00160        3.64690
H          2.93110        1.82370       -3.94670
H          3.52200       -0.46440       -4.81270
H          0.84830       -2.69820       -0.88470
H          2.42470       -2.63550       -0.10700
H          2.22560       -3.54000       -1.62040
H          0.70890        2.40640       -1.17830
H          1.84810        3.21310       -2.27270
H          2.36520        2.69420       -0.65980
