41
rmsd61.gzmat
O          0.00000        0.00000        0.00000
C          1.21500        0.00000        0.00000
N          1.95750        0.00000        1.15440
C          3.40750        0.20310        1.11840
C          1.24860        0.41880        2.40110
H          0.16470        0.10350        2.28120
C          1.80380       -0.32250        3.61680
C          1.31740        1.92620        2.51110
C          0.32410        2.67600        1.87520
C          0.36510        4.06660        1.91400
C          1.39820        4.71460        2.59030
C          2.38450        3.96840        3.23110
C          2.34640        2.57580        3.19080
C          1.93120       -0.11470       -1.31900
C          2.27360        1.04140       -2.02690
C          2.86660        0.87530       -3.29720
C          3.06780       -0.38860       -3.81220
N          2.68970       -1.50350       -3.10260
H          2.82780       -2.43580       -3.51210
C          2.11240       -1.38830       -1.86160
C          1.69280       -2.62050       -1.16360
C          2.02550        2.38660       -1.47850
H          3.86290       -0.24020        0.22150
H          3.87120       -0.29480        1.99440
H          3.67580        1.27560        1.16320
H          2.84950       -0.08540        3.83670
H          1.73130       -1.41060        3.48640
H          1.22140       -0.06110        4.51490
H         -0.49230        2.16980        1.35540
H         -0.41820        4.64810        1.42720
H          1.42790        5.80400        2.62830
H          3.18310        4.47340        3.77520
H          3.11810        2.00490        3.70450
H          3.15980        1.75750       -3.88130
H          3.52780       -0.55680       -4.80140
H          0.59820       -2.59820       -0.93950
H          2.17500       -2.71920       -0.16710
H          1.88010       -3.56320       -1.69930
H          1.04720        2.46290       -0.95630
H          2.02950        3.18720       -2.23860
H          2.78040        2.67310       -0.71980
