41
rmsd49.gzmat
O          0.00000        0.00000        0.00000
C          1.21600        0.00000        0.00000
N          1.95210        0.00000        1.15460
C          3.41050        0.12480        1.14900
C          1.23850        0.42230        2.39640
H          0.16590        0.06500        2.29130
C          1.82770       -0.26070        3.62940
C          1.25100        1.93370        2.47250
C          0.22430        2.63150        1.83050
C          0.19860        4.02260        1.86230
C          1.19920        4.72340        2.53460
C          2.22340        4.02900        3.17410
C          2.25180        2.63590        3.14200
C          1.92190       -0.09480       -1.32580
C          2.34780        1.06500       -1.97780
C          2.89120        0.92080       -3.27410
C          2.98080       -0.32460       -3.85870
N          2.53690       -1.44390       -3.19480
H          2.59980       -2.36210       -3.65220
C          1.99240       -1.34920       -1.93810
C          1.48900       -2.58030       -1.29630
C          2.24560        2.40320       -1.36740
H          3.84840       -0.07100        0.16090
H          3.84190       -0.61670        1.85250
H          3.73380        1.13250        1.47530
H          2.88130       -0.01890        3.80240
H          1.74270       -1.35310        3.55720
H          1.27520        0.05150        4.53050
H         -0.56690        2.08510        1.31090
H         -0.61280        4.56240        1.37360
H          1.17240        5.81320        2.56940
H          2.99930        4.57480        3.71200
H          3.05090        2.10590        3.65780
H          3.23400        1.80960       -3.82010
H          3.40050       -0.47520       -4.86820
H          0.41130       -2.47190       -1.01770
H          2.00030       -2.78760       -0.33260
H          1.56050       -3.49870       -1.89820
H          1.66020        2.43270       -0.42630
H          1.75870        3.13730       -2.03990
H          3.23820        2.82650       -1.12050
