rmsd48.gzmat
 OpenBabel08211713363D

 41 42  0  0  1  0  0  0  0  0999 V2000
    0.0000    0.0000    0.0000 O   0  0  0  0  0  0  0  0  0  0  0  0
    1.2147    0.0000    0.0000 C   0  0  0  0  0  0  0  0  0  0  0  0
    1.9579    0.0000    1.1546 N   0  0  0  0  0  0  0  0  0  0  0  0
    3.4077    0.2041    1.1194 C   0  0  0  0  0  0  0  0  0  0  0  0
    1.2431    0.4114    2.4002 C   0  0  1  0  0  0  0  0  0  0  0  0
    0.1770    0.0361    2.2969 H   0  0  0  0  0  0  0  0  0  0  0  0
    1.8467   -0.2669    3.6295 C   0  0  0  0  0  0  0  0  0  0  0  0
    1.2347    1.9222    2.4811 C   0  0  0  0  0  0  0  0  0  0  0  0
    0.1495    2.6071    1.9287 C   0  0  0  0  0  0  0  0  0  0  0  0
    0.1143    3.9986    1.9550 C   0  0  0  0  0  0  0  0  0  0  0  0
    1.1672    4.7115    2.5274 C   0  0  0  0  0  0  0  0  0  0  0  0
    2.2507    4.0301    3.0774 C   0  0  0  0  0  0  0  0  0  0  0  0
    2.2826    2.6370    3.0593 C   0  0  0  0  0  0  0  0  0  0  0  0
    1.9299   -0.1108   -1.3198 C   0  0  0  0  0  0  0  0  0  0  0  0
    2.2621    1.0504   -2.0252 C   0  0  1  0  0  0  0  0  0  0  0  0
    2.8401    0.8924   -3.3032 C   0  0  0  0  0  0  0  0  0  0  0  0
    3.0376   -0.3684   -3.8272 C   0  0  0  0  0  0  0  0  0  0  0  0
    2.6776   -1.4883   -3.1164 N   0  0  0  0  0  0  0  0  0  0  0  0
    2.8164   -2.4180   -3.5313 H   0  0  0  0  0  0  0  0  0  0  0  0
    2.1186   -1.3815   -1.8660 C   0  0  0  0  0  0  0  0  0  0  0  0
    1.7283   -2.6209   -1.1638 C   0  0  0  0  0  0  0  0  0  0  0  0
    1.9985    2.3896   -1.4713 C   0  0  0  0  0  0  0  0  0  0  0  0
    3.8601   -0.2040    0.2046 H   0  0  0  0  0  0  0  0  0  0  0  0
    3.8757   -0.3271    1.9733 H   0  0  0  0  0  0  0  0  0  0  0  0
    3.6764    1.2744    1.1998 H   0  0  0  0  0  0  0  0  0  0  0  0
    2.8783    0.0358    3.8364 H   0  0  0  0  0  0  0  0  0  0  0  0
    1.8328   -1.3602    3.5287 H   0  0  0  0  0  0  0  0  0  0  0  0
    1.2560   -0.0136    4.5246 H   0  0  0  0  0  0  0  0  0  0  0  0
   -0.6758    2.0498    1.4797 H   0  0  0  0  0  0  0  0  0  0  0  0
   -0.7428    4.5296    1.5391 H   0  0  0  0  0  0  0  0  0  0  0  0
    1.1372    5.8012    2.5553 H   0  0  0  0  0  0  0  0  0  0  0  0
    3.0710    4.5848    3.5333 H   0  0  0  0  0  0  0  0  0  0  0  0
    3.1233    2.1157    3.5137 H   0  0  0  0  0  0  0  0  0  0  0  0
    3.1247    1.7779   -3.8863 H   0  0  0  0  0  0  0  0  0  0  0  0
    3.4812   -0.5308   -4.8248 H   0  0  0  0  0  0  0  0  0  0  0  0
    0.6294   -2.6393   -0.9661 H   0  0  0  0  0  0  0  0  0  0  0  0
    2.1882   -2.6896   -0.1544 H   0  0  0  0  0  0  0  0  0  0  0  0
    1.9668   -3.5614   -1.6828 H   0  0  0  0  0  0  0  0  0  0  0  0
    2.3506    2.5076   -0.4281 H   0  0  0  0  0  0  0  0  0  0  0  0
    0.9054    2.5949   -1.4196 H   0  0  0  0  0  0  0  0  0  0  0  0
    2.4419    3.2168   -2.0497 H   0  0  0  0  0  0  0  0  0  0  0  0
  2  1  2  0  0  0  0
  2  3  1  0  0  0  0
  3  5  1  0  0  0  0
  4  3  1  0  0  0  0
  4 25  1  0  0  0  0
  4 24  1  0  0  0  0
  5  6  1  6  0  0  0
  5  8  1  0  0  0  0
  5  7  1  0  0  0  0
  7 26  1  0  0  0  0
  7 28  1  0  0  0  0
  8 13  2  0  0  0  0
  9 10  2  0  0  0  0
  9  8  1  0  0  0  0
 10 11  1  0  0  0  0
 11 31  1  0  0  0  0
 11 12  2  0  0  0  0
 12 32  1  0  0  0  0
 13 12  1  0  0  0  0
 13 33  1  0  0  0  0
 14  2  1  0  0  0  0
 15 22  1  6  0  0  0
 15 14  1  0  0  0  0
 16 15  1  0  0  0  0
 17 16  2  0  0  0  0
 17 18  1  0  0  0  0
 18 20  1  0  0  0  0
 19 18  1  0  0  0  0
 20 14  2  0  0  0  0
 20 21  1  0  0  0  0
 21 36  1  0  0  0  0
 21 37  1  0  0  0  0
 22 40  1  0  0  0  0
 22 39  1  0  0  0  0
 23  4  1  0  0  0  0
 27  7  1  0  0  0  0
 29  9  1  0  0  0  0
 30 10  1  0  0  0  0
 34 16  1  0  0  0  0
 35 17  1  0  0  0  0
 38 21  1  0  0  0  0
 41 22  1  0  0  0  0
M  END
$$$$
