41
rmsd53.gzmat
O          0.00000        0.00000        0.00000
C          1.21450        0.00000        0.00000
N          1.95630        0.00000        1.15590
C          3.41380        0.13650        1.11880
C          1.25650        0.48070        2.38510
H          0.18110        0.12700        2.30030
C          1.84650       -0.15350        3.64350
C          1.28650        1.99400        2.39320
C          0.21860        2.67780        1.80660
C          0.22040        4.06910        1.76030
C          1.29010        4.78340        2.29860
C          2.35400        4.10310        2.88680
C          2.35290        2.71040        2.93550
C          1.93180       -0.09370       -1.31990
C          2.29550        1.07820       -1.99100
C          2.88290        0.94080       -3.26770
C          3.05710       -0.30940       -3.82360
N          2.66340       -1.43900       -3.14690
H          2.78500       -2.36020       -3.58530
C          2.09450       -1.35260       -1.89960
C          1.66890       -2.60040       -1.23420
C          2.05220        2.41180       -1.41520
H          3.84730       -0.31980        0.21750
H          3.85440       -0.39220        1.98910
H          3.73410        1.19410        1.16910
H          2.88390        0.13730        3.83810
H          1.81160       -1.25010        3.59140
H          1.26080        0.15070        4.52600
H         -0.62340        2.12040        1.38930
H         -0.62180        4.59980        1.31510
H          1.28800        5.87380        2.27160
H          3.18440        4.66060        3.32120
H          3.18170        2.19130        3.41390
H          3.19270        1.83520       -3.82380
H          3.50740       -0.45480       -4.82070
H          0.57880       -2.57240       -0.99000
H          2.16630       -2.73790       -0.25030
H          1.83450       -3.52760       -1.80350
H          1.00730        2.74310       -1.61120
H          2.70710        3.20280       -1.81690
H          2.15080        2.44930       -0.31190
