rmsd53.gzmat
 OpenBabel08211713363D

 41 42  0  0  1  0  0  0  0  0999 V2000
    0.0000    0.0000    0.0000 O   0  0  0  0  0  0  0  0  0  0  0  0
    1.2145    0.0000    0.0000 C   0  0  0  0  0  0  0  0  0  0  0  0
    1.9563    0.0000    1.1559 N   0  0  0  0  0  0  0  0  0  0  0  0
    3.4138    0.1365    1.1188 C   0  0  0  0  0  0  0  0  0  0  0  0
    1.2565    0.4807    2.3851 C   0  0  1  0  0  0  0  0  0  0  0  0
    0.1811    0.1270    2.3003 H   0  0  0  0  0  0  0  0  0  0  0  0
    1.8465   -0.1535    3.6435 C   0  0  0  0  0  0  0  0  0  0  0  0
    1.2865    1.9940    2.3932 C   0  0  0  0  0  0  0  0  0  0  0  0
    0.2186    2.6778    1.8066 C   0  0  0  0  0  0  0  0  0  0  0  0
    0.2204    4.0691    1.7603 C   0  0  0  0  0  0  0  0  0  0  0  0
    1.2901    4.7834    2.2986 C   0  0  0  0  0  0  0  0  0  0  0  0
    2.3540    4.1031    2.8868 C   0  0  0  0  0  0  0  0  0  0  0  0
    2.3529    2.7104    2.9355 C   0  0  0  0  0  0  0  0  0  0  0  0
    1.9318   -0.0937   -1.3199 C   0  0  0  0  0  0  0  0  0  0  0  0
    2.2955    1.0782   -1.9910 C   0  0  1  0  0  0  0  0  0  0  0  0
    2.8829    0.9408   -3.2677 C   0  0  0  0  0  0  0  0  0  0  0  0
    3.0571   -0.3094   -3.8236 C   0  0  0  0  0  0  0  0  0  0  0  0
    2.6634   -1.4390   -3.1469 N   0  0  0  0  0  0  0  0  0  0  0  0
    2.7850   -2.3602   -3.5853 H   0  0  0  0  0  0  0  0  0  0  0  0
    2.0945   -1.3526   -1.8996 C   0  0  0  0  0  0  0  0  0  0  0  0
    1.6689   -2.6004   -1.2342 C   0  0  0  0  0  0  0  0  0  0  0  0
    2.0522    2.4118   -1.4152 C   0  0  0  0  0  0  0  0  0  0  0  0
    3.8473   -0.3198    0.2175 H   0  0  0  0  0  0  0  0  0  0  0  0
    3.8544   -0.3922    1.9891 H   0  0  0  0  0  0  0  0  0  0  0  0
    3.7341    1.1941    1.1691 H   0  0  0  0  0  0  0  0  0  0  0  0
    2.8839    0.1373    3.8381 H   0  0  0  0  0  0  0  0  0  0  0  0
    1.8116   -1.2501    3.5914 H   0  0  0  0  0  0  0  0  0  0  0  0
    1.2608    0.1507    4.5260 H   0  0  0  0  0  0  0  0  0  0  0  0
   -0.6234    2.1204    1.3893 H   0  0  0  0  0  0  0  0  0  0  0  0
   -0.6218    4.5998    1.3151 H   0  0  0  0  0  0  0  0  0  0  0  0
    1.2880    5.8738    2.2716 H   0  0  0  0  0  0  0  0  0  0  0  0
    3.1844    4.6606    3.3212 H   0  0  0  0  0  0  0  0  0  0  0  0
    3.1817    2.1913    3.4139 H   0  0  0  0  0  0  0  0  0  0  0  0
    3.1927    1.8352   -3.8238 H   0  0  0  0  0  0  0  0  0  0  0  0
    3.5074   -0.4548   -4.8207 H   0  0  0  0  0  0  0  0  0  0  0  0
    0.5788   -2.5724   -0.9900 H   0  0  0  0  0  0  0  0  0  0  0  0
    2.1663   -2.7379   -0.2503 H   0  0  0  0  0  0  0  0  0  0  0  0
    1.8345   -3.5276   -1.8035 H   0  0  0  0  0  0  0  0  0  0  0  0
    1.0073    2.7431   -1.6112 H   0  0  0  0  0  0  0  0  0  0  0  0
    2.7071    3.2028   -1.8169 H   0  0  0  0  0  0  0  0  0  0  0  0
    2.1508    2.4493   -0.3119 H   0  0  0  0  0  0  0  0  0  0  0  0
  1  2  2  0  0  0  0
  2  3  1  0  0  0  0
  3  5  1  0  0  0  0
  4  3  1  0  0  0  0
  4 25  1  0  0  0  0
  4 24  1  0  0  0  0
  5  6  1  6  0  0  0
  5  8  1  0  0  0  0
  5  7  1  0  0  0  0
  7 26  1  0  0  0  0
  7 28  1  0  0  0  0
  8 13  2  0  0  0  0
  9  8  1  0  0  0  0
 10  9  2  0  0  0  0
 10 11  1  0  0  0  0
 11 12  2  0  0  0  0
 12 13  1  0  0  0  0
 12 32  1  0  0  0  0
 13 33  1  0  0  0  0
 14  2  1  0  0  0  0
 15 22  1  6  0  0  0
 15 14  1  0  0  0  0
 16 15  1  0  0  0  0
 17 16  2  0  0  0  0
 17 18  1  0  0  0  0
 18 20  1  0  0  0  0
 19 18  1  0  0  0  0
 20 14  2  0  0  0  0
 20 21  1  0  0  0  0
 21 36  1  0  0  0  0
 21 37  1  0  0  0  0
 22 41  1  0  0  0  0
 23  4  1  0  0  0  0
 27  7  1  0  0  0  0
 29  9  1  0  0  0  0
 30 10  1  0  0  0  0
 31 11  1  0  0  0  0
 34 16  1  0  0  0  0
 35 17  1  0  0  0  0
 38 21  1  0  0  0  0
 39 22  1  0  0  0  0
 40 22  1  0  0  0  0
M  END
$$$$
