
     RDKit          3D

 32 31  0  0  0  0  0  0  0  0999 V2000
    0.1424   -0.1413   -0.2111 O   0  0  0  0  0  0  0  0  0  0  0  0
    1.5464   -0.0005   -0.0186 C   0  0  0  0  0  0  0  0  0  0  0  0
    1.9824    0.0348    1.4573 C   0  0  0  0  0  0  0  0  0  0  0  0
    1.9089   -1.3776    2.0588 C   0  0  0  0  0  0  0  0  0  0  0  0
    3.4220    0.5578    1.5251 C   0  0  0  0  0  0  0  0  0  0  0  0
    1.0435    0.9490    2.3144 C   0  0  1  0  0  0  0  0  0  0  0  0
    0.0374    0.4937    2.3079 H   0  0  0  0  0  0  0  0  0  0  0  0
    1.5027    1.0325    3.6344 O   0  0  0  0  0  0  0  0  0  0  0  0
    0.9196    2.3825    1.7724 C   0  0  0  0  0  0  0  0  0  0  0  0
    1.5198    3.2896    2.3463 O   0  0  0  0  0  0  0  0  0  0  0  0
    0.1405    2.5713    0.6884 N   0  0  0  0  0  0  0  0  0  0  0  0
   -0.0042    3.8774    0.0699 C   0  0  0  0  0  0  0  0  0  0  0  0
   -0.8746    4.8217    0.8979 C   0  0  0  0  0  0  0  0  0  0  0  0
   -1.0643    6.1578    0.2252 C   0  0  0  0  0  0  0  0  0  0  0  0
   -0.6219    6.4654   -0.8549 O   0  0  0  0  0  0  0  0  0  0  0  0
   -1.8046    6.9979    0.9743 O   0  0  0  0  0  0  0  0  0  0  0  0
   -0.1453   -0.9756    0.1828 H   0  0  0  0  0  0  0  0  0  0  0  0
    1.8161    0.9422   -0.5154 H   0  0  0  0  0  0  0  0  0  0  0  0
    2.0953   -0.8082   -0.5383 H   0  0  0  0  0  0  0  0  0  0  0  0
    0.9016   -1.8162    1.9451 H   0  0  0  0  0  0  0  0  0  0  0  0
    2.1280   -1.3423    3.1348 H   0  0  0  0  0  0  0  0  0  0  0  0
    2.6308   -2.0522    1.5715 H   0  0  0  0  0  0  0  0  0  0  0  0
    3.4952    1.5912    1.1516 H   0  0  0  0  0  0  0  0  0  0  0  0
    4.0967   -0.0730    0.9242 H   0  0  0  0  0  0  0  0  0  0  0  0
    3.7782    0.5494    2.5642 H   0  0  0  0  0  0  0  0  0  0  0  0
    1.8363    1.9480    3.7143 H   0  0  0  0  0  0  0  0  0  0  0  0
   -0.2848    1.7477    0.2636 H   0  0  0  0  0  0  0  0  0  0  0  0
   -0.4342    3.7420   -0.9319 H   0  0  0  0  0  0  0  0  0  0  0  0
    0.9890    4.3328   -0.0626 H   0  0  0  0  0  0  0  0  0  0  0  0
   -0.4160    4.9869    1.8856 H   0  0  0  0  0  0  0  0  0  0  0  0
   -1.8693    4.3847    1.0890 H   0  0  0  0  0  0  0  0  0  0  0  0
   -1.8766    7.8288    0.4737 H   0  0  0  0  0  0  0  0  0  0  0  0
  1  2  1  0
  1 17  1  0
  3  2  1  0
  2 18  1  0
  2 19  1  0
  3  4  1  0
  3  5  1  0
  3  6  1  0
  4 20  1  0
  4 21  1  0
  4 22  1  0
  5 23  1  0
  5 24  1  0
  5 25  1  0
  6  7  1  1
  6  8  1  0
  6  9  1  0
  8 26  1  0
  9 10  2  0
  9 11  1  0
 11 12  1  0
 11 27  1  0
 12 13  1  0
 12 28  1  0
 12 29  1  0
 13 14  1  0
 13 30  1  0
 13 31  1  0
 14 15  2  0
 14 16  1  0
 16 32  1  0
M  END

