32

O         -0.15620       -0.09900        0.09040
C          1.26630       -0.08030        0.03990
C          1.94970       -0.01040        1.41720
C          1.86020       -1.37600        2.11650
C          3.41900        0.37410        1.20820
C          1.25410        1.03310        2.35610
H          0.22920        0.67350        2.55450
O          1.94560        1.14580        3.56810
C          1.15770        2.43890        1.74180
O          1.93810        3.30940        2.12330
N          0.20170        2.64620        0.81390
C          0.05640        3.92570        0.14400
C          1.16860        4.18490       -0.87240
C          0.99150        5.49760       -1.59390
O          0.07760        6.26790       -1.42880
O          1.98760        5.72590       -2.47230
H         -0.44200       -0.87920        0.58400
H          1.52570        0.80660       -0.55570
H          1.64990       -0.96060       -0.50960
H          0.81460       -1.72090        2.20300
H          2.26400       -1.30530        3.13580
H          2.42670       -2.14160        1.56270
H          3.51590        1.37380        0.75670
H          3.92370       -0.35050        0.54910
H          3.94630        0.38790        2.17170
H          2.36600        2.02740        3.52290
H         -0.34750        1.84050        0.51500
H          0.06570        4.72800        0.89600
H         -0.92530        3.95360       -0.34820
H          1.21920        3.38210       -1.62770
H          2.14650        4.19490       -0.36510
H          1.80110        6.58470       -2.88940
