32

O         -0.05700       -0.08380       -0.12460
C          1.35230       -0.16450       -0.00820
C          1.97200        0.00590        1.39690
C          3.48600       -0.19690        1.20420
C          1.71850        1.41090        1.96040
C          1.47840       -1.07980        2.41800
H          1.36900       -2.03450        1.86400
O          2.40300       -1.23330        3.45730
C          0.12270       -0.76290        3.09420
O          0.10990       -0.55000        4.30850
N         -0.98390       -0.75030        2.33290
C         -2.26010       -0.33990        2.87880
C         -2.33430        1.14410        3.26390
C         -2.22600        2.10880        2.11240
O         -1.64630        1.91730        1.06200
O         -2.83770        3.27300        2.36810
H         -0.38540        0.79520        0.13590
H          1.82810        0.57820       -0.67640
H          1.62530       -1.16030       -0.39330
H          3.71130       -1.21610        0.85110
H          4.01560       -0.05090        2.15280
H          3.87680        0.51760        0.46200
H          0.64770        1.65660        1.98250
H          2.22630        2.17660        1.35240
H          2.10500        1.47710        2.98830
H          1.89310       -1.01210        4.26400
H         -0.84110       -0.73930        1.31550
H         -2.46120       -0.92460        3.78890
H         -3.03880       -0.58540        2.14190
H         -1.50680        1.36520        3.96060
H         -3.26350        1.35780        3.81250
H         -2.68770        3.85080        1.59880
