32

O          0.04940       -0.73080        0.48320
C          1.28580       -0.16130        0.15980
C          2.19460        0.15560        1.37910
C          2.26810       -1.06980        2.29760
C          3.58550        0.50840        0.83290
C          1.56730        1.37250        2.13500
H          1.71640        2.27250        1.50900
O          0.18490        1.19140        2.35100
C          2.17940        1.62330        3.52340
O          1.50730        1.35510        4.51730
N          3.42460        2.13680        3.60160
C          4.10780        2.25740        4.87860
C          4.65740        0.92280        5.37850
C          5.68210        0.33540        4.43870
O          6.05060        0.84460        3.40400
O          6.15240       -0.84380        4.87240
H         -0.34080       -0.13430        1.14550
H          1.17500        0.76990       -0.43910
H          1.81840       -0.88470       -0.48130
H          1.28320       -1.29790        2.72520
H          2.98210       -0.91510        3.12220
H          2.59690       -1.95430        1.73020
H          3.56110        1.42870        0.22510
H          3.94630       -0.30260        0.18090
H          4.33980        0.62780        1.62320
H          0.10430        1.09690        3.32450
H          3.98450        2.21140        2.76140
H          3.39210        2.64880        5.61400
H          4.92160        2.98620        4.76050
H          3.83830        0.19650        5.50590
H          5.12150        1.03130        6.37310
H          6.79610       -1.15630        4.21280
