32
rmsd116.gzmat
O          0.00000        0.00000        0.00000
C          1.40750        0.00000        0.00000
C          1.99390        0.00000        1.43410
C          1.45760       -1.20860        2.19780
C          3.52060       -0.06570        1.32950
C          1.58420        1.32310        2.13190
H          1.80960        2.20680        1.49070
O          0.18610        1.40430        2.28760
C          2.19770        1.44500        3.53260
O          1.67910        0.91230        4.49570
N          3.36380        2.16360        3.64710
C          3.95050        2.40950        4.96510
C          3.72420        3.86760        5.40990
C          4.34620        4.82940        4.45140
O          4.56970        4.68600        3.27490
O          4.65120        5.99200        5.07580
H         -0.32900        0.61490        0.69580
H          1.75120        0.87440       -0.58090
H          1.66710       -0.92760       -0.54270
H          0.36150       -1.26690        2.14020
H          1.73800       -1.18800        3.25870
H          1.83850       -2.14690        1.77790
H          3.93980        0.80890        0.82120
H          3.84320       -0.95400        0.77180
H          3.99120       -0.13230        2.31890
H         -0.11120        0.81880        3.03130
H          3.73730        2.73250        2.89470
H          5.04050        2.18000        4.91880
H          3.50370        1.71380        5.71970
H          4.11470        4.02060        6.43970
H          2.63130        4.08150        5.48450
H          5.04500        6.67730        4.47840
