rmsd133.gzmat
 OpenBabel08211713373D

 32 31  0  0  1  0  0  0  0  0999 V2000
    0.0000    0.0000    0.0000 O   0  0  0  0  0  0  0  0  0  0  0  0
    1.4146    0.0000    0.0000 C   0  0  0  0  0  0  0  0  0  0  0  0
    1.9739    0.0000    1.4369 C   0  0  0  0  0  0  0  0  0  0  0  0
    1.8286   -1.3965    2.0505 C   0  0  0  0  0  0  0  0  0  0  0  0
    3.4500    0.3988    1.3894 C   0  0  0  0  0  0  0  0  0  0  0  0
    1.1750    0.9902    2.3240 C   0  0  1  0  0  0  0  0  0  0  0  0
    0.1331    0.6289    2.4917 H   0  0  0  0  0  0  0  0  0  0  0  0
    1.7201    1.0078    3.6166 O   0  0  0  0  0  0  0  0  0  0  0  0
    1.1947    2.4176    1.7610 C   0  0  0  0  0  0  0  0  0  0  0  0
    2.0302    3.2261    2.1194 O   0  0  0  0  0  0  0  0  0  0  0  0
    0.1874    2.7415    0.8828 N   0  0  0  0  0  0  0  0  0  0  0  0
    0.1482    4.0702    0.2779 C   0  0  0  0  0  0  0  0  0  0  0  0
    1.0896    4.1532   -0.9417 C   0  0  0  0  0  0  0  0  0  0  0  0
    0.8482    5.4269   -1.6773 C   0  0  0  0  0  0  0  0  0  0  0  0
   -0.0004    6.2582   -1.4904 O   0  0  0  0  0  0  0  0  0  0  0  0
    1.7523    5.5715   -2.6819 O   0  0  0  0  0  0  0  0  0  0  0  0
   -0.3509   -0.8114    0.4179 H   0  0  0  0  0  0  0  0  0  0  0  0
    1.6612    0.9284   -0.5490 H   0  0  0  0  0  0  0  0  0  0  0  0
    1.7770   -0.8661   -0.5800 H   0  0  0  0  0  0  0  0  0  0  0  0
    0.7958   -1.7567    2.0268 H   0  0  0  0  0  0  0  0  0  0  0  0
    2.1346   -1.3853    3.1093 H   0  0  0  0  0  0  0  0  0  0  0  0
    2.4570   -2.1330    1.5396 H   0  0  0  0  0  0  0  0  0  0  0  0
    3.5857    1.4519    1.1085 H   0  0  0  0  0  0  0  0  0  0  0  0
    4.0163   -0.2142    0.6805 H   0  0  0  0  0  0  0  0  0  0  0  0
    3.9237    0.2714    2.3729 H   0  0  0  0  0  0  0  0  0  0  0  0
    2.4537    1.6704    3.6740 H   0  0  0  0  0  0  0  0  0  0  0  0
   -0.3786    2.0106    0.4651 H   0  0  0  0  0  0  0  0  0  0  0  0
    0.4455    4.8361    1.0374 H   0  0  0  0  0  0  0  0  0  0  0  0
   -0.9011    4.3034   -0.0195 H   0  0  0  0  0  0  0  0  0  0  0  0
    0.9457    3.2865   -1.6215 H   0  0  0  0  0  0  0  0  0  0  0  0
    2.1523    4.0882   -0.6106 H   0  0  0  0  0  0  0  0  0  0  0  0
    1.6344    6.4041   -3.2022 H   0  0  0  0  0  0  0  0  0  0  0  0
  1  2  1  0  0  0  0
  1 17  1  0  0  0  0
  2  3  1  0  0  0  0
  3  4  1  0  0  0  0
  3  6  1  0  0  0  0
  4 21  1  0  0  0  0
  5  3  1  0  0  0  0
  5 25  1  0  0  0  0
  6  7  1  1  0  0  0
  6  8  1  0  0  0  0
  8 26  1  0  0  0  0
  9 10  2  0  0  0  0
  9  6  1  0  0  0  0
 11  9  1  0  0  0  0
 12 11  1  0  0  0  0
 12 28  1  0  0  0  0
 13 31  1  0  0  0  0
 13 12  1  0  0  0  0
 14 15  2  0  0  0  0
 14 13  1  0  0  0  0
 16 14  1  0  0  0  0
 18  2  1  0  0  0  0
 19  2  1  0  0  0  0
 20  4  1  0  0  0  0
 22  4  1  0  0  0  0
 23  5  1  0  0  0  0
 24  5  1  0  0  0  0
 27 11  1  0  0  0  0
 29 12  1  0  0  0  0
 30 13  1  0  0  0  0
 32 16  1  0  0  0  0
M  END
$$$$
