32
rmsd49.gzmat
O          0.00000        0.00000        0.00000
C          1.41890        0.00000        0.00000
C          1.96780        0.00000        1.44200
C          3.49220        0.10630        1.38730
C          1.40120        1.19560        2.21950
C          1.53480       -1.29610        2.17120
H          1.92330       -1.32100        3.21720
O          0.13750       -1.33500        2.32960
C          1.97690       -2.57860        1.44680
O          3.05940       -2.69650        0.90110
N          1.07440       -3.60900        1.46170
C          1.40520       -4.90290        0.86640
C          1.23440       -6.03450        1.89910
C         -0.21020       -6.35160        2.12210
O         -0.80500       -7.35950        1.85190
O         -0.85230       -5.30770        2.71460
H         -0.34420        0.87560        0.27290
H          1.78710        0.86110       -0.58170
H          1.66670       -0.93510       -0.54100
H          3.93780       -0.70400        0.78670
H          3.94110        0.03440        2.38430
H          3.81750        1.05520        0.94850
H          0.32390        1.09220        2.40330
H          1.57330        2.13840        1.69130
H          1.87430        1.28550        3.20550
H         -0.29390       -1.01640        1.49300
H          0.19300       -3.54610        1.96260
H          2.45920       -4.89050        0.48880
H          0.75140       -5.07910       -0.01980
H          1.71900       -5.74910        2.86020
H          1.76310       -6.94880        1.55060
H         -1.81580       -5.46580        2.86980
