rmsd175.gzmat
 OpenBabel08211713373D

 32 31  0  0  1  0  0  0  0  0999 V2000
    0.0000    0.0000    0.0000 O   0  0  0  0  0  0  0  0  0  0  0  0
    1.4068    0.0000    0.0000 C   0  0  0  0  0  0  0  0  0  0  0  0
    1.9951    0.0000    1.4344 C   0  0  0  0  0  0  0  0  0  0  0  0
    1.4264   -1.1835    2.2139 C   0  0  0  0  0  0  0  0  0  0  0  0
    3.5177   -0.1142    1.3156 C   0  0  0  0  0  0  0  0  0  0  0  0
    1.6252    1.3393    2.1238 C   0  0  1  0  0  0  0  0  0  0  0  0
    1.9196    2.2151    1.4996 H   0  0  0  0  0  0  0  0  0  0  0  0
    0.2278    1.4867    2.2262 O   0  0  0  0  0  0  0  0  0  0  0  0
    2.1975    1.4235    3.5440 C   0  0  0  0  0  0  0  0  0  0  0  0
    1.5691    1.0116    4.5006 O   0  0  0  0  0  0  0  0  0  0  0  0
    3.4120    2.0562    3.6962 N   0  0  0  0  0  0  0  0  0  0  0  0
    4.0475    2.0831    5.0137 C   0  0  0  0  0  0  0  0  0  0  0  0
    5.0064    0.8915    5.2086 C   0  0  0  0  0  0  0  0  0  0  0  0
    6.0699    0.8790    4.1615 C   0  0  0  0  0  0  0  0  0  0  0  0
    6.0304    1.3186    3.0385 O   0  0  0  0  0  0  0  0  0  0  0  0
    7.1805    0.2522    4.6169 O   0  0  0  0  0  0  0  0  0  0  0  0
   -0.3251    0.6429    0.6726 H   0  0  0  0  0  0  0  0  0  0  0  0
    1.7532    0.8734   -0.5805 H   0  0  0  0  0  0  0  0  0  0  0  0
    1.6651   -0.9291   -0.5405 H   0  0  0  0  0  0  0  0  0  0  0  0
    0.3267   -1.1876    2.1864 H   0  0  0  0  0  0  0  0  0  0  0  0
    1.7313   -1.1757    3.2666 H   0  0  0  0  0  0  0  0  0  0  0  0
    1.7501   -2.1381    1.7823 H   0  0  0  0  0  0  0  0  0  0  0  0
    3.9649    0.7512    0.8134 H   0  0  0  0  0  0  0  0  0  0  0  0
    3.8047   -1.0026    0.7377 H   0  0  0  0  0  0  0  0  0  0  0  0
    4.0038   -0.2147    2.2928 H   0  0  0  0  0  0  0  0  0  0  0  0
   -0.1174    0.9745    3.0029 H   0  0  0  0  0  0  0  0  0  0  0  0
    4.0355    2.2119    2.9098 H   0  0  0  0  0  0  0  0  0  0  0  0
    3.2618    2.0644    5.8111 H   0  0  0  0  0  0  0  0  0  0  0  0
    4.5976    3.0466    5.1201 H   0  0  0  0  0  0  0  0  0  0  0  0
    4.4375   -0.0674    5.1683 H   0  0  0  0  0  0  0  0  0  0  0  0
    5.4486    0.9147    6.2289 H   0  0  0  0  0  0  0  0  0  0  0  0
    7.9122    0.1984    3.9512 H   0  0  0  0  0  0  0  0  0  0  0  0
  1 17  1  0  0  0  0
  2  1  1  0  0  0  0
  2  3  1  0  0  0  0
  3  6  1  0  0  0  0
  3  4  1  0  0  0  0
  4 21  1  0  0  0  0
  5  3  1  0  0  0  0
  5 25  1  0  0  0  0
  6  7  1  6  0  0  0
  6  8  1  0  0  0  0
  6  9  1  0  0  0  0
  8 26  1  0  0  0  0
  9 11  1  0  0  0  0
  9 10  2  0  0  0  0
 11 12  1  0  0  0  0
 12 29  1  0  0  0  0
 12 13  1  0  0  0  0
 12 28  1  0  0  0  0
 13 31  1  0  0  0  0
 14 16  1  0  0  0  0
 14 13  1  0  0  0  0
 15 14  2  0  0  0  0
 18  2  1  0  0  0  0
 19  2  1  0  0  0  0
 20  4  1  0  0  0  0
 22  4  1  0  0  0  0
 23  5  1  0  0  0  0
 24  5  1  0  0  0  0
 27 11  1  0  0  0  0
 30 13  1  0  0  0  0
 32 16  1  0  0  0  0
M  END
$$$$
