32

O          0.15480        0.01010       -0.18260
C          1.56980        0.00300        0.03430
C          1.95500       -0.08280        1.52360
C          3.48610       -0.05530        1.63620
C          1.38120        1.12550        2.28440
C          1.35160       -1.38430        2.13620
H          1.71880       -1.46920        3.17440
O         -0.06300       -1.32370        2.20440
C          1.81740       -2.67660        1.42780
O          2.99400       -2.92970        1.20070
N          0.80270       -3.51340        1.09930
C          1.04510       -4.82870        0.54820
C          1.32560       -5.87870        1.62570
C          0.23240       -6.05580        2.65750
O          0.37640       -6.55760        3.74180
O         -0.96960       -5.59990        2.22740
H         -0.17330        0.90370       -0.01800
H          2.03400        0.89710       -0.42010
H          1.95820       -0.87500       -0.50280
H          3.94910       -0.87770        1.07940
H          3.79430       -0.15370        2.68900
H          3.87260        0.90780        1.26400
H          0.28320        1.15400        2.25640
H          1.77520        2.06500        1.86330
H          1.67260        1.08640        3.34530
H         -0.34590       -0.95270        1.34590
H         -0.11740       -3.27140        1.45290
H          1.92060       -4.76060       -0.11280
H          0.17390       -5.12180       -0.05440
H          2.25020       -5.63660        2.17000
H          1.48810       -6.86660        1.15950
H         -1.60180       -5.76370        2.94840
