
     RDKit          3D

 32 31  0  0  0  0  0  0  0  0999 V2000
    0.0016   -0.4545    0.1175 O   0  0  0  0  0  0  0  0  0  0  0  0
    1.3417   -0.0562    0.0486 C   0  0  0  0  0  0  0  0  0  0  0  0
    2.0405    0.1113    1.4246 C   0  0  0  0  0  0  0  0  0  0  0  0
    1.8018   -1.1376    2.2810 C   0  0  0  0  0  0  0  0  0  0  0  0
    3.5395    0.3081    1.1641 C   0  0  0  0  0  0  0  0  0  0  0  0
    1.4301    1.3736    2.1144 C   0  0  1  0  0  0  0  0  0  0  0  0
    1.7257    2.2586    1.5199 H   0  0  0  0  0  0  0  0  0  0  0  0
    0.0204    1.3110    2.1572 O   0  0  0  0  0  0  0  0  0  0  0  0
    1.8925    1.5678    3.5670 C   0  0  0  0  0  0  0  0  0  0  0  0
    1.1167    1.2761    4.4734 O   0  0  0  0  0  0  0  0  0  0  0  0
    3.1391    2.0442    3.7709 N   0  0  0  0  0  0  0  0  0  0  0  0
    3.6697    2.3160    5.0926 C   0  0  0  0  0  0  0  0  0  0  0  0
    3.7207    3.8108    5.4091 C   0  0  0  0  0  0  0  0  0  0  0  0
    4.5905    4.5807    4.4420 C   0  0  0  0  0  0  0  0  0  0  0  0
    5.0179    4.1490    3.3943 O   0  0  0  0  0  0  0  0  0  0  0  0
    4.8372    5.8299    4.8616 O   0  0  0  0  0  0  0  0  0  0  0  0
   -0.4173    0.1476    0.7569 H   0  0  0  0  0  0  0  0  0  0  0  0
    1.4670    0.8931   -0.5188 H   0  0  0  0  0  0  0  0  0  0  0  0
    1.8835   -0.8333   -0.5179 H   0  0  0  0  0  0  0  0  0  0  0  0
    0.7308   -1.2779    2.4761 H   0  0  0  0  0  0  0  0  0  0  0  0
    2.3286   -1.0753    3.2458 H   0  0  0  0  0  0  0  0  0  0  0  0
    2.1623   -2.0345    1.7532 H   0  0  0  0  0  0  0  0  0  0  0  0
    3.7370    1.2294    0.5898 H   0  0  0  0  0  0  0  0  0  0  0  0
    3.9327   -0.5361    0.5767 H   0  0  0  0  0  0  0  0  0  0  0  0
    4.1171    0.3519    2.0981 H   0  0  0  0  0  0  0  0  0  0  0  0
   -0.1838    1.1416    3.1009 H   0  0  0  0  0  0  0  0  0  0  0  0
    3.6865    2.3855    2.9880 H   0  0  0  0  0  0  0  0  0  0  0  0
    4.6803    1.8843    5.1723 H   0  0  0  0  0  0  0  0  0  0  0  0
    3.0194    1.8068    5.8150 H   0  0  0  0  0  0  0  0  0  0  0  0
    4.0900    3.9888    6.4317 H   0  0  0  0  0  0  0  0  0  0  0  0
    2.7085    4.2490    5.3697 H   0  0  0  0  0  0  0  0  0  0  0  0
    5.3763    6.2626    4.1763 H   0  0  0  0  0  0  0  0  0  0  0  0
  1  2  1  0
  1 17  1  0
  3  2  1  0
  2 18  1  0
  2 19  1  0
  3  4  1  0
  3  5  1  0
  3  6  1  0
  4 20  1  0
  4 21  1  0
  4 22  1  0
  5 23  1  0
  5 24  1  0
  5 25  1  0
  6  7  1  6
  6  8  1  0
  6  9  1  0
  8 26  1  0
  9 10  2  0
  9 11  1  0
 11 12  1  0
 11 27  1  0
 12 13  1  0
 12 28  1  0
 12 29  1  0
 13 14  1  0
 13 30  1  0
 13 31  1  0
 14 15  2  0
 14 16  1  0
 16 32  1  0
M  END

