
     RDKit          3D

 32 31  0  0  0  0  0  0  0  0999 V2000
   -0.1562   -0.0990    0.0904 O   0  0  0  0  0  0  0  0  0  0  0  0
    1.2663   -0.0803    0.0399 C   0  0  0  0  0  0  0  0  0  0  0  0
    1.9497   -0.0104    1.4172 C   0  0  0  0  0  0  0  0  0  0  0  0
    1.8602   -1.3760    2.1165 C   0  0  0  0  0  0  0  0  0  0  0  0
    3.4190    0.3741    1.2082 C   0  0  0  0  0  0  0  0  0  0  0  0
    1.2541    1.0331    2.3561 C   0  0  1  0  0  0  0  0  0  0  0  0
    0.2292    0.6735    2.5545 H   0  0  0  0  0  0  0  0  0  0  0  0
    1.9456    1.1458    3.5681 O   0  0  0  0  0  0  0  0  0  0  0  0
    1.1577    2.4389    1.7418 C   0  0  0  0  0  0  0  0  0  0  0  0
    1.9381    3.3094    2.1233 O   0  0  0  0  0  0  0  0  0  0  0  0
    0.2017    2.6462    0.8139 N   0  0  0  0  0  0  0  0  0  0  0  0
    0.0564    3.9257    0.1440 C   0  0  0  0  0  0  0  0  0  0  0  0
    1.1686    4.1849   -0.8724 C   0  0  0  0  0  0  0  0  0  0  0  0
    0.9915    5.4976   -1.5939 C   0  0  0  0  0  0  0  0  0  0  0  0
    0.0776    6.2679   -1.4288 O   0  0  0  0  0  0  0  0  0  0  0  0
    1.9876    5.7259   -2.4723 O   0  0  0  0  0  0  0  0  0  0  0  0
   -0.4420   -0.8792    0.5840 H   0  0  0  0  0  0  0  0  0  0  0  0
    1.5257    0.8066   -0.5557 H   0  0  0  0  0  0  0  0  0  0  0  0
    1.6499   -0.9606   -0.5096 H   0  0  0  0  0  0  0  0  0  0  0  0
    0.8146   -1.7209    2.2030 H   0  0  0  0  0  0  0  0  0  0  0  0
    2.2640   -1.3053    3.1358 H   0  0  0  0  0  0  0  0  0  0  0  0
    2.4267   -2.1416    1.5627 H   0  0  0  0  0  0  0  0  0  0  0  0
    3.5159    1.3738    0.7567 H   0  0  0  0  0  0  0  0  0  0  0  0
    3.9237   -0.3505    0.5491 H   0  0  0  0  0  0  0  0  0  0  0  0
    3.9463    0.3879    2.1717 H   0  0  0  0  0  0  0  0  0  0  0  0
    2.3660    2.0274    3.5229 H   0  0  0  0  0  0  0  0  0  0  0  0
   -0.3475    1.8405    0.5150 H   0  0  0  0  0  0  0  0  0  0  0  0
    0.0657    4.7280    0.8960 H   0  0  0  0  0  0  0  0  0  0  0  0
   -0.9253    3.9536   -0.3482 H   0  0  0  0  0  0  0  0  0  0  0  0
    1.2192    3.3821   -1.6277 H   0  0  0  0  0  0  0  0  0  0  0  0
    2.1465    4.1949   -0.3651 H   0  0  0  0  0  0  0  0  0  0  0  0
    1.8011    6.5847   -2.8894 H   0  0  0  0  0  0  0  0  0  0  0  0
  1  2  1  0
  1 17  1  0
  3  2  1  0
  2 18  1  0
  2 19  1  0
  3  4  1  0
  3  5  1  0
  3  6  1  0
  4 20  1  0
  4 21  1  0
  4 22  1  0
  5 23  1  0
  5 24  1  0
  5 25  1  0
  6  7  1  1
  6  8  1  0
  6  9  1  0
  8 26  1  0
  9 10  2  0
  9 11  1  0
 11 12  1  0
 11 27  1  0
 12 13  1  0
 12 28  1  0
 12 29  1  0
 13 14  1  0
 13 30  1  0
 13 31  1  0
 14 15  2  0
 14 16  1  0
 16 32  1  0
M  END

