rmsd116.gzmat
 OpenBabel08211713373D

 32 31  0  0  1  0  0  0  0  0999 V2000
    0.0000    0.0000    0.0000 O   0  0  0  0  0  0  0  0  0  0  0  0
    1.4075    0.0000    0.0000 C   0  0  0  0  0  0  0  0  0  0  0  0
    1.9939    0.0000    1.4341 C   0  0  0  0  0  0  0  0  0  0  0  0
    1.4576   -1.2086    2.1978 C   0  0  0  0  0  0  0  0  0  0  0  0
    3.5206   -0.0657    1.3295 C   0  0  0  0  0  0  0  0  0  0  0  0
    1.5842    1.3231    2.1319 C   0  0  1  0  0  0  0  0  0  0  0  0
    1.8096    2.2068    1.4907 H   0  0  0  0  0  0  0  0  0  0  0  0
    0.1861    1.4043    2.2876 O   0  0  0  0  0  0  0  0  0  0  0  0
    2.1977    1.4450    3.5326 C   0  0  0  0  0  0  0  0  0  0  0  0
    1.6791    0.9123    4.4957 O   0  0  0  0  0  0  0  0  0  0  0  0
    3.3638    2.1636    3.6471 N   0  0  0  0  0  0  0  0  0  0  0  0
    3.9505    2.4095    4.9651 C   0  0  0  0  0  0  0  0  0  0  0  0
    3.7242    3.8676    5.4099 C   0  0  0  0  0  0  0  0  0  0  0  0
    4.3462    4.8294    4.4514 C   0  0  0  0  0  0  0  0  0  0  0  0
    4.5697    4.6860    3.2749 O   0  0  0  0  0  0  0  0  0  0  0  0
    4.6512    5.9920    5.0758 O   0  0  0  0  0  0  0  0  0  0  0  0
   -0.3290    0.6149    0.6958 H   0  0  0  0  0  0  0  0  0  0  0  0
    1.7512    0.8744   -0.5809 H   0  0  0  0  0  0  0  0  0  0  0  0
    1.6671   -0.9276   -0.5427 H   0  0  0  0  0  0  0  0  0  0  0  0
    0.3615   -1.2669    2.1402 H   0  0  0  0  0  0  0  0  0  0  0  0
    1.7380   -1.1880    3.2587 H   0  0  0  0  0  0  0  0  0  0  0  0
    1.8385   -2.1469    1.7779 H   0  0  0  0  0  0  0  0  0  0  0  0
    3.9398    0.8089    0.8212 H   0  0  0  0  0  0  0  0  0  0  0  0
    3.8432   -0.9540    0.7718 H   0  0  0  0  0  0  0  0  0  0  0  0
    3.9912   -0.1323    2.3189 H   0  0  0  0  0  0  0  0  0  0  0  0
   -0.1112    0.8188    3.0313 H   0  0  0  0  0  0  0  0  0  0  0  0
    3.7373    2.7325    2.8947 H   0  0  0  0  0  0  0  0  0  0  0  0
    5.0405    2.1800    4.9188 H   0  0  0  0  0  0  0  0  0  0  0  0
    3.5037    1.7138    5.7197 H   0  0  0  0  0  0  0  0  0  0  0  0
    4.1147    4.0206    6.4397 H   0  0  0  0  0  0  0  0  0  0  0  0
    2.6313    4.0815    5.4845 H   0  0  0  0  0  0  0  0  0  0  0  0
    5.0450    6.6773    4.4784 H   0  0  0  0  0  0  0  0  0  0  0  0
  1 17  1  0  0  0  0
  2  1  1  0  0  0  0
  2  3  1  0  0  0  0
  3  6  1  0  0  0  0
  3  4  1  0  0  0  0
  4 21  1  0  0  0  0
  5  3  1  0  0  0  0
  5 25  1  0  0  0  0
  6  7  1  6  0  0  0
  6  8  1  0  0  0  0
  6  9  1  0  0  0  0
  8 26  1  0  0  0  0
  9 11  1  0  0  0  0
  9 10  2  0  0  0  0
 11 12  1  0  0  0  0
 12 13  1  0  0  0  0
 12 29  1  0  0  0  0
 13 31  1  0  0  0  0
 13 30  1  0  0  0  0
 14 16  1  0  0  0  0
 14 13  1  0  0  0  0
 15 14  2  0  0  0  0
 18  2  1  0  0  0  0
 19  2  1  0  0  0  0
 20  4  1  0  0  0  0
 22  4  1  0  0  0  0
 23  5  1  0  0  0  0
 24  5  1  0  0  0  0
 27 11  1  0  0  0  0
 28 12  1  0  0  0  0
 32 16  1  0  0  0  0
M  END
$$$$
