32
rmsd139.gzmat
O          0.00000        0.00000        0.00000
C          1.41380        0.00000        0.00000
C          1.96960        0.00000        1.44190
C          3.39960       -0.54530        1.39340
C          1.96090        1.42000        2.01080
C          1.06390       -0.89780        2.32650
H          0.11060       -0.37840        2.58410
O          0.75420       -2.10210        1.66200
C          1.77800       -1.28750        3.62510
O          1.96790       -0.46370        4.50340
N          2.16540       -2.59320        3.76870
C          2.92990       -3.00950        4.94120
C          4.44400       -3.00190        4.64820
C          4.78520       -3.98220        3.57580
O          4.06220       -4.53140        2.78600
O          6.12450       -4.21080        3.56130
H         -0.35020        0.82180        0.39600
H          1.78370        0.85900       -0.58400
H          1.65460       -0.93860       -0.53800
H          3.40910       -1.61460        1.14040
H          3.90420       -0.43260        2.36160
H          4.01060       -0.01980        0.65170
H          0.97590        1.89090        1.94490
H          2.67760        2.06750        1.49500
H          2.24100        1.41890        3.07850
H          0.16000       -1.91110        0.89720
H          2.09670       -3.26090        3.00480
H          2.59820       -4.03060        5.24120
H          2.71330       -2.32510        5.79960
H          5.02130       -3.21070        5.57410
H          4.76760       -1.98150        4.33660
H          6.41510       -4.84340        2.85950
