rmsd79.gzmat
 OpenBabel08211713373D

 32 31  0  0  1  0  0  0  0  0999 V2000
    0.0000    0.0000    0.0000 O   0  0  0  0  0  0  0  0  0  0  0  0
    1.4056    0.0000    0.0000 C   0  0  0  0  0  0  0  0  0  0  0  0
    1.9977    0.0000    1.4289 C   0  0  0  0  0  0  0  0  0  0  0  0
    3.5068   -0.2432    1.2949 C   0  0  0  0  0  0  0  0  0  0  0  0
    1.7552    1.3483    2.1060 C   0  0  0  0  0  0  0  0  0  0  0  0
    1.3794   -1.1673    2.2461 C   0  0  1  0  0  0  0  0  0  0  0  0
    1.1624   -2.0448    1.5922 H   0  0  0  0  0  0  0  0  0  0  0  0
    2.3129   -1.6801    3.1612 O   0  0  0  0  0  0  0  0  0  0  0  0
    0.1421   -0.7208    3.0342 C   0  0  0  0  0  0  0  0  0  0  0  0
    0.2240   -0.3857    4.2027 O   0  0  0  0  0  0  0  0  0  0  0  0
   -1.0699   -0.7662    2.3795 N   0  0  0  0  0  0  0  0  0  0  0  0
   -2.2555   -0.2277    3.0410 C   0  0  0  0  0  0  0  0  0  0  0  0
   -2.1804    1.2989    3.2633 C   0  0  0  0  0  0  0  0  0  0  0  0
   -2.2090    2.0556    1.9810 C   0  0  0  0  0  0  0  0  0  0  0  0
   -1.4446    2.0213    1.0452 O   0  0  0  0  0  0  0  0  0  0  0  0
   -3.2595    2.9089    1.9528 O   0  0  0  0  0  0  0  0  0  0  0  0
   -0.3795    0.8471    0.3198 H   0  0  0  0  0  0  0  0  0  0  0  0
    1.7676    0.8667   -0.5811 H   0  0  0  0  0  0  0  0  0  0  0  0
    1.6483   -0.9335   -0.5444 H   0  0  0  0  0  0  0  0  0  0  0  0
    3.7221   -1.2446    0.9027 H   0  0  0  0  0  0  0  0  0  0  0  0
    4.0040   -0.1826    2.2726 H   0  0  0  0  0  0  0  0  0  0  0  0
    3.9801    0.4929    0.6380 H   0  0  0  0  0  0  0  0  0  0  0  0
    0.7027    1.6538    2.0570 H   0  0  0  0  0  0  0  0  0  0  0  0
    2.3411    2.1467    1.6361 H   0  0  0  0  0  0  0  0  0  0  0  0
    2.0380    1.3202    3.1669 H   0  0  0  0  0  0  0  0  0  0  0  0
    2.2936   -1.1631    4.0039 H   0  0  0  0  0  0  0  0  0  0  0  0
   -1.0834   -0.8412    1.3620 H   0  0  0  0  0  0  0  0  0  0  0  0
   -2.3623   -0.7217    4.0415 H   0  0  0  0  0  0  0  0  0  0  0  0
   -3.1553   -0.4942    2.4432 H   0  0  0  0  0  0  0  0  0  0  0  0
   -1.2411    1.5418    3.8224 H   0  0  0  0  0  0  0  0  0  0  0  0
   -3.0078    1.6200    3.9358 H   0  0  0  0  0  0  0  0  0  0  0  0
   -3.3240    3.4450    1.1207 H   0  0  0  0  0  0  0  0  0  0  0  0
  1 17  1  0  0  0  0
  2  1  1  0  0  0  0
  2  3  1  0  0  0  0
  3  5  1  0  0  0  0
  3  6  1  0  0  0  0
  4  3  1  0  0  0  0
  4 21  1  0  0  0  0
  5 25  1  0  0  0  0
  6  7  1  6  0  0  0
  6  9  1  0  0  0  0
  6  8  1  0  0  0  0
  8 26  1  0  0  0  0
  9 10  2  0  0  0  0
 11  9  1  0  0  0  0
 11 12  1  0  0  0  0
 12 13  1  0  0  0  0
 12 28  1  0  0  0  0
 13 30  1  0  0  0  0
 13 31  1  0  0  0  0
 14 13  1  0  0  0  0
 15 14  2  0  0  0  0
 16 14  1  0  0  0  0
 18  2  1  0  0  0  0
 19  2  1  0  0  0  0
 20  4  1  0  0  0  0
 22  4  1  0  0  0  0
 23  5  1  0  0  0  0
 24  5  1  0  0  0  0
 27 11  1  0  0  0  0
 29 12  1  0  0  0  0
 32 16  1  0  0  0  0
M  END
$$$$
