
     RDKit          3D

 32 31  0  0  0  0  0  0  0  0999 V2000
   -0.1913    0.2589    0.0428 O   0  0  0  0  0  0  0  0  0  0  0  0
    1.1683   -0.1545    0.0852 C   0  0  0  0  0  0  0  0  0  0  0  0
    1.8856   -0.0538    1.4479 C   0  0  0  0  0  0  0  0  0  0  0  0
    3.3634   -0.3767    1.1569 C   0  0  0  0  0  0  0  0  0  0  0  0
    1.7761    1.3572    2.0401 C   0  0  0  0  0  0  0  0  0  0  0  0
    1.3722   -1.1128    2.4804 C   0  0  1  0  0  0  0  0  0  0  0  0
    1.1729   -2.0497    1.9151 H   0  0  0  0  0  0  0  0  0  0  0  0
    2.3449   -1.3338    3.4601 O   0  0  0  0  0  0  0  0  0  0  0  0
    0.0642   -0.7828    3.2486 C   0  0  0  0  0  0  0  0  0  0  0  0
    0.0937   -0.8489    4.4792 O   0  0  0  0  0  0  0  0  0  0  0  0
   -1.0520   -0.4958    2.5608 N   0  0  0  0  0  0  0  0  0  0  0  0
   -2.3177   -0.2868    3.2388 C   0  0  0  0  0  0  0  0  0  0  0  0
   -3.0082   -1.5998    3.5995 C   0  0  0  0  0  0  0  0  0  0  0  0
   -3.3967   -2.3962    2.3764 C   0  0  0  0  0  0  0  0  0  0  0  0
   -3.3201   -2.0066    1.2361 O   0  0  0  0  0  0  0  0  0  0  0  0
   -3.8642   -3.6174    2.6966 O   0  0  0  0  0  0  0  0  0  0  0  0
   -0.2245    1.2178    0.1589 H   0  0  0  0  0  0  0  0  0  0  0  0
    1.7516    0.4224   -0.6555 H   0  0  0  0  0  0  0  0  0  0  0  0
    1.1717   -1.2037   -0.2502 H   0  0  0  0  0  0  0  0  0  0  0  0
    3.4734   -1.3880    0.7321 H   0  0  0  0  0  0  0  0  0  0  0  0
    3.9519   -0.3399    2.0806 H   0  0  0  0  0  0  0  0  0  0  0  0
    3.7795    0.3448    0.4359 H   0  0  0  0  0  0  0  0  0  0  0  0
    0.7275    1.6646    2.1793 H   0  0  0  0  0  0  0  0  0  0  0  0
    2.2752    2.1014    1.3983 H   0  0  0  0  0  0  0  0  0  0  0  0
    2.2591    1.3798    3.0283 H   0  0  0  0  0  0  0  0  0  0  0  0
    1.8452   -1.2767    4.3026 H   0  0  0  0  0  0  0  0  0  0  0  0
   -1.0041   -0.4187    1.5416 H   0  0  0  0  0  0  0  0  0  0  0  0
   -2.9635    0.3053    2.5754 H   0  0  0  0  0  0  0  0  0  0  0  0
   -2.1358    0.2849    4.1601 H   0  0  0  0  0  0  0  0  0  0  0  0
   -3.9246   -1.4145    4.1863 H   0  0  0  0  0  0  0  0  0  0  0  0
   -2.3574   -2.2140    4.2413 H   0  0  0  0  0  0  0  0  0  0  0  0
   -4.1020   -4.0550    1.8609 H   0  0  0  0  0  0  0  0  0  0  0  0
  1  2  1  0
  1 17  1  0
  3  2  1  0
  2 18  1  0
  2 19  1  0
  3  4  1  0
  3  5  1  0
  3  6  1  0
  4 20  1  0
  4 21  1  0
  4 22  1  0
  5 23  1  0
  5 24  1  0
  5 25  1  0
  6  7  1  6
  6  8  1  0
  6  9  1  0
  8 26  1  0
  9 10  2  0
  9 11  1  0
 11 12  1  0
 11 27  1  0
 12 13  1  0
 12 28  1  0
 12 29  1  0
 13 14  1  0
 13 30  1  0
 13 31  1  0
 14 15  2  0
 14 16  1  0
 16 32  1  0
M  END

