rmsd246.gzmat
 OpenBabel08211713373D

 32 31  0  0  1  0  0  0  0  0999 V2000
    0.0000    0.0000    0.0000 O   0  0  0  0  0  0  0  0  0  0  0  0
    1.4069    0.0000    0.0000 C   0  0  0  0  0  0  0  0  0  0  0  0
    1.9945    0.0000    1.4348 C   0  0  0  0  0  0  0  0  0  0  0  0
    1.4079   -1.1688    2.2235 C   0  0  0  0  0  0  0  0  0  0  0  0
    3.5154   -0.1380    1.3174 C   0  0  0  0  0  0  0  0  0  0  0  0
    1.6454    1.3499    2.1150 C   0  0  1  0  0  0  0  0  0  0  0  0
    1.9679    2.2172    1.4929 H   0  0  0  0  0  0  0  0  0  0  0  0
    0.2496    1.5263    2.1953 O   0  0  0  0  0  0  0  0  0  0  0  0
    2.1983    1.4284    3.5435 C   0  0  0  0  0  0  0  0  0  0  0  0
    1.5324    1.0615    4.4935 O   0  0  0  0  0  0  0  0  0  0  0  0
    3.4379    2.0043    3.7122 N   0  0  0  0  0  0  0  0  0  0  0  0
    4.0439    2.0332    5.0438 C   0  0  0  0  0  0  0  0  0  0  0  0
    5.0114    0.8514    5.2556 C   0  0  0  0  0  0  0  0  0  0  0  0
    6.1142    0.8748    4.2497 C   0  0  0  0  0  0  0  0  0  0  0  0
    6.0856    1.2642    3.1084 O   0  0  0  0  0  0  0  0  0  0  0  0
    7.2500    0.3580    4.7751 O   0  0  0  0  0  0  0  0  0  0  0  0
   -0.3228    0.6539    0.6631 H   0  0  0  0  0  0  0  0  0  0  0  0
    1.7538    0.8743   -0.5794 H   0  0  0  0  0  0  0  0  0  0  0  0
    1.6640   -0.9283   -0.5425 H   0  0  0  0  0  0  0  0  0  0  0  0
    0.3082   -1.1622    2.1870 H   0  0  0  0  0  0  0  0  0  0  0  0
    1.7032   -1.1514    3.2788 H   0  0  0  0  0  0  0  0  0  0  0  0
    1.7252   -2.1321    1.8070 H   0  0  0  0  0  0  0  0  0  0  0  0
    3.9759    0.7200    0.8146 H   0  0  0  0  0  0  0  0  0  0  0  0
    3.7886   -1.0306    0.7394 H   0  0  0  0  0  0  0  0  0  0  0  0
    4.0000   -0.2473    2.2945 H   0  0  0  0  0  0  0  0  0  0  0  0
   -0.1148    1.0443    2.9828 H   0  0  0  0  0  0  0  0  0  0  0  0
    4.0825    2.1294    2.9376 H   0  0  0  0  0  0  0  0  0  0  0  0
    3.2425    2.0030    5.8254 H   0  0  0  0  0  0  0  0  0  0  0  0
    4.5804    3.0029    5.1657 H   0  0  0  0  0  0  0  0  0  0  0  0
    4.4598   -0.1147    5.1763 H   0  0  0  0  0  0  0  0  0  0  0  0
    5.4140    0.8640    6.2927 H   0  0  0  0  0  0  0  0  0  0  0  0
    8.0124    0.3350    4.1426 H   0  0  0  0  0  0  0  0  0  0  0  0
  1 17  1  0  0  0  0
  2  1  1  0  0  0  0
  2  3  1  0  0  0  0
  3  6  1  0  0  0  0
  3  4  1  0  0  0  0
  4 21  1  0  0  0  0
  5  3  1  0  0  0  0
  5 25  1  0  0  0  0
  6  7  1  6  0  0  0
  6  8  1  0  0  0  0
  6  9  1  0  0  0  0
  8 26  1  0  0  0  0
  9 11  1  0  0  0  0
  9 10  2  0  0  0  0
 11 12  1  0  0  0  0
 12 29  1  0  0  0  0
 12 13  1  0  0  0  0
 12 28  1  0  0  0  0
 13 31  1  0  0  0  0
 14 16  1  0  0  0  0
 14 13  1  0  0  0  0
 15 14  2  0  0  0  0
 18  2  1  0  0  0  0
 19  2  1  0  0  0  0
 20  4  1  0  0  0  0
 22  4  1  0  0  0  0
 23  5  1  0  0  0  0
 24  5  1  0  0  0  0
 27 11  1  0  0  0  0
 30 13  1  0  0  0  0
 32 16  1  0  0  0  0
M  END
$$$$
