32

O          0.06700        0.02310        0.02350
C          1.47280       -0.18380        0.05300
C          2.07880       -0.15650        1.47360
C          3.44500       -0.85390        1.40380
C          2.23220        1.29080        1.95950
C          1.09700       -0.92180        2.42530
H          0.29590       -0.22190        2.72370
O          0.54870       -2.06770        1.80690
C          1.79980       -1.33160        3.71900
O          2.22330       -0.50090        4.51600
N          1.95240       -2.66470        3.87810
C          2.76390       -3.21630        4.94300
C          4.25220       -2.93520        4.73780
C          4.76670       -3.49840        3.43560
O          4.18010       -4.28440        2.72980
O          5.98670       -3.02000        3.12580
H         -0.12510        0.89730        0.38830
H          2.00050        0.55410       -0.58060
H          1.63060       -1.17440       -0.39650
H          3.32520       -1.93260        1.22250
H          4.01050       -0.71740        2.33650
H          4.05290       -0.43360        0.58580
H          1.27560        1.83930        1.89450
H          2.97360        1.83120        1.34930
H          2.54590        1.30980        3.01190
H         -0.04670       -1.73620        1.11590
H          1.63580       -3.25990        3.12040
H          2.58070       -4.29870        4.98170
H          2.45060       -2.77490        5.90100
H          4.85240       -3.36810        5.55690
H          4.43780       -1.85110        4.75990
H          6.24550       -3.43620        2.28550
