25
rmsd33.gzmat
O          0.00000        0.00000        0.00000
C          1.20960        0.00000        0.00000
C          2.09260        0.00000        1.16200
C          1.40390        0.00190        2.47760
C          3.44470       -0.01290        1.00200
N          4.00840       -0.01170       -0.26810
H          5.03380        0.05470       -0.36490
C          3.23320        0.01690       -1.44100
O          3.75870        0.05560       -2.53250
N          1.84860        0.00430       -1.26900
H          1.26600        0.00570       -2.10980
C          4.43600       -0.05300        2.13090
C          5.30980        1.20930        2.17630
C          6.69540        0.99070        1.56210
O          6.62680        0.95750        0.14980
H          1.94830        0.56120        3.24780
H          1.24260       -1.02240        2.84770
H          0.40070        0.46180        2.40570
H          5.06570       -0.96600        2.03980
H          3.90890       -0.18140        3.10070
H          5.42550        1.54120        3.22710
H          4.79930        2.04950        1.66430
H          7.12150       -0.00080        1.80830
H          7.41010        1.77420        1.87060
H          6.45540        1.84950       -0.21780
