rmsd52.gzmat
 OpenBabel08211713413D

 25 25  0  0  0  0  0  0  0  0999 V2000
    0.0000    0.0000    0.0000 O   0  0  0  0  0  0  0  0  0  0  0  0
    1.2097    0.0000    0.0000 C   0  0  0  0  0  0  0  0  0  0  0  0
    2.0954    0.0000    1.1588 C   0  0  0  0  0  0  0  0  0  0  0  0
    1.4253   -0.0012    2.4841 C   0  0  0  0  0  0  0  0  0  0  0  0
    3.4477   -0.0053    0.9947 C   0  0  0  0  0  0  0  0  0  0  0  0
    4.0081   -0.0173   -0.2760 N   0  0  0  0  0  0  0  0  0  0  0  0
    5.0351    0.0207   -0.3753 H   0  0  0  0  0  0  0  0  0  0  0  0
    3.2299    0.0102   -1.4469 C   0  0  0  0  0  0  0  0  0  0  0  0
    3.7531    0.0399   -2.5400 O   0  0  0  0  0  0  0  0  0  0  0  0
    1.8460    0.0071   -1.2708 N   0  0  0  0  0  0  0  0  0  0  0  0
    1.2602    0.0133   -2.1092 H   0  0  0  0  0  0  0  0  0  0  0  0
    4.4388   -0.0231    2.1244 C   0  0  0  0  0  0  0  0  0  0  0  0
    5.3654    1.2026    2.1050 C   0  0  0  0  0  0  0  0  0  0  0  0
    6.7472    0.8919    1.5218 C   0  0  0  0  0  0  0  0  0  0  0  0
    6.6907    0.7721    0.1132 O   0  0  0  0  0  0  0  0  0  0  0  0
    0.3351    0.1596    2.3883 H   0  0  0  0  0  0  0  0  0  0  0  0
    1.7976    0.7950    3.1427 H   0  0  0  0  0  0  0  0  0  0  0  0
    1.5480   -0.9642    3.0017 H   0  0  0  0  0  0  0  0  0  0  0  0
    5.0302   -0.9655    2.0809 H   0  0  0  0  0  0  0  0  0  0  0  0
    3.9074   -0.0741    3.0992 H   0  0  0  0  0  0  0  0  0  0  0  0
    5.4862    1.5898    3.1364 H   0  0  0  0  0  0  0  0  0  0  0  0
    4.8951    2.0333    1.5415 H   0  0  0  0  0  0  0  0  0  0  0  0
    7.1303   -0.0990    1.8355 H   0  0  0  0  0  0  0  0  0  0  0  0
    7.4889    1.6651    1.7914 H   0  0  0  0  0  0  0  0  0  0  0  0
    6.6212    1.6499   -0.3163 H   0  0  0  0  0  0  0  0  0  0  0  0
  1  2  2  0  0  0  0
  2  3  1  0  0  0  0
  3  4  1  0  0  0  0
  4 18  1  0  0  0  0
  4 17  1  0  0  0  0
  5  3  2  0  0  0  0
  5 12  1  0  0  0  0
  6  5  1  0  0  0  0
  7  6  1  0  0  0  0
  8 10  1  0  0  0  0
  8  6  1  0  0  0  0
  9  8  2  0  0  0  0
 10  2  1  0  0  0  0
 11 10  1  0  0  0  0
 12 20  1  0  0  0  0
 13 12  1  0  0  0  0
 13 21  1  0  0  0  0
 14 24  1  0  0  0  0
 14 23  1  0  0  0  0
 14 13  1  0  0  0  0
 15 14  1  0  0  0  0
 16  4  1  0  0  0  0
 19 12  1  0  0  0  0
 22 13  1  0  0  0  0
 25 15  1  0  0  0  0
M  END
$$$$
