rmsd3.gzmat
 OpenBabel08211713413D

 25 25  0  0  0  0  0  0  0  0999 V2000
    0.0000    0.0000    0.0000 O   0  0  0  0  0  0  0  0  0  0  0  0
    1.2097    0.0000    0.0000 C   0  0  0  0  0  0  0  0  0  0  0  0
    2.0931    0.0000    1.1618 C   0  0  0  0  0  0  0  0  0  0  0  0
    1.4056   -0.0005    2.4780 C   0  0  0  0  0  0  0  0  0  0  0  0
    3.4454   -0.0131    1.0017 C   0  0  0  0  0  0  0  0  0  0  0  0
    4.0087   -0.0113   -0.2685 N   0  0  0  0  0  0  0  0  0  0  0  0
    5.0343    0.0483   -0.3648 H   0  0  0  0  0  0  0  0  0  0  0  0
    3.2333    0.0151   -1.4412 C   0  0  0  0  0  0  0  0  0  0  0  0
    3.7590    0.0522   -2.5327 O   0  0  0  0  0  0  0  0  0  0  0  0
    1.8487    0.0024   -1.2691 N   0  0  0  0  0  0  0  0  0  0  0  0
    1.2662    0.0003   -2.1100 H   0  0  0  0  0  0  0  0  0  0  0  0
    4.4373   -0.0564    2.1301 C   0  0  0  0  0  0  0  0  0  0  0  0
    5.3252    1.1965    2.1708 C   0  0  0  0  0  0  0  0  0  0  0  0
    6.7123    0.9559    1.5679 C   0  0  0  0  0  0  0  0  0  0  0  0
    6.6523    0.9045    0.1554 O   0  0  0  0  0  0  0  0  0  0  0  0
    1.9552    0.5496    3.2510 H   0  0  0  0  0  0  0  0  0  0  0  0
    1.2370   -1.0259    2.8416 H   0  0  0  0  0  0  0  0  0  0  0  0
    0.4057    0.4672    2.4102 H   0  0  0  0  0  0  0  0  0  0  0  0
    5.0580   -0.9765    2.0417 H   0  0  0  0  0  0  0  0  0  0  0  0
    3.9093   -0.1748    3.1007 H   0  0  0  0  0  0  0  0  0  0  0  0
    5.4385    1.5353    3.2199 H   0  0  0  0  0  0  0  0  0  0  0  0
    4.8268    2.0399    1.6518 H   0  0  0  0  0  0  0  0  0  0  0  0
    7.1272   -0.0369    1.8295 H   0  0  0  0  0  0  0  0  0  0  0  0
    7.4328    1.7363    1.8723 H   0  0  0  0  0  0  0  0  0  0  0  0
    6.5050    1.7954   -0.2255 H   0  0  0  0  0  0  0  0  0  0  0  0
  1  2  2  0  0  0  0
  2  3  1  0  0  0  0
  3  4  1  0  0  0  0
  4 17  1  0  0  0  0
  4 16  1  0  0  0  0
  5  3  2  0  0  0  0
  5 12  1  0  0  0  0
  6  5  1  0  0  0  0
  7  6  1  0  0  0  0
  8 10  1  0  0  0  0
  8  6  1  0  0  0  0
  9  8  2  0  0  0  0
 10  2  1  0  0  0  0
 11 10  1  0  0  0  0
 12 13  1  0  0  0  0
 12 20  1  0  0  0  0
 13 21  1  0  0  0  0
 14 23  1  0  0  0  0
 14 24  1  0  0  0  0
 14 13  1  0  0  0  0
 15 14  1  0  0  0  0
 18  4  1  0  0  0  0
 19 12  1  0  0  0  0
 22 13  1  0  0  0  0
 25 15  1  0  0  0  0
M  END
$$$$
