25
rmsd36.gzmat
O          0.00000        0.00000        0.00000
C          1.21000        0.00000        0.00000
C          2.09520        0.00000        1.15860
C          1.42160        0.00820        2.48240
C          3.44830       -0.00220        0.99610
N          4.00890       -0.01830       -0.27380
H          5.03660        0.00360       -0.37540
C          3.23090        0.00070       -1.44530
O          3.75370        0.01910       -2.53870
N          1.84700        0.00180       -1.27040
H          1.26230        0.00210       -2.10980
C          4.43190       -0.02070        2.13280
C          5.44570        1.13170        2.06550
C          6.79540        0.70700        1.47850
O          6.73590        0.63260        0.06640
H          0.32820       -0.12970        2.38350
H          1.56450        0.96430        3.00610
H          1.77450       -0.80040        3.13630
H          4.95230       -1.00450        2.14820
H          3.89030        0.02410        3.10310
H          5.60550        1.53790        3.08460
H          5.02900        1.97860        1.48360
H          7.08080       -0.32430        1.76440
H          7.60680        1.39760        1.77070
H          6.73810        1.52490       -0.33820
