25
rmsd44.gzmat
O          0.00000        0.00000        0.00000
C          1.20940        0.00000        0.00000
C          2.08820        0.00000        1.16660
C          1.36660       -0.02230        2.46360
C          3.44030        0.01680        1.01400
N          4.00810        0.01700       -0.25560
H          5.03290       -0.06090       -0.34720
C          3.23850       -0.00910       -1.43180
O          3.76730       -0.04320       -2.52190
N          1.85250       -0.00000       -1.26610
H          1.27350       -0.00050       -2.10910
C          4.43180        0.06440        2.14250
C          5.24070       -1.23580        2.25500
C          6.62270       -1.12810        1.60450
O          6.53020       -1.11690        0.19350
H          0.67530        0.83480        2.54540
H          2.02170       -0.00000        3.34040
H          0.73870       -0.92660        2.54670
H          3.90850        0.26710        3.10260
H          5.10910        0.93810        2.00930
H          4.67690       -2.08100        1.81240
H          5.36330       -1.50360        3.32380
H          7.28560       -1.95630        1.91370
H          7.12520       -0.16550        1.82120
H          6.24140       -1.98830       -0.14910
