25
rmsd52.gzmat
O          0.00000        0.00000        0.00000
C          1.20970        0.00000        0.00000
C          2.09540        0.00000        1.15880
C          1.42530       -0.00120        2.48410
C          3.44770       -0.00530        0.99470
N          4.00810       -0.01730       -0.27600
H          5.03510        0.02070       -0.37530
C          3.22990        0.01020       -1.44690
O          3.75310        0.03990       -2.54000
N          1.84600        0.00710       -1.27080
H          1.26020        0.01330       -2.10920
C          4.43880       -0.02310        2.12440
C          5.36540        1.20260        2.10500
C          6.74720        0.89190        1.52180
O          6.69070        0.77210        0.11320
H          0.33510        0.15960        2.38830
H          1.79760        0.79500        3.14270
H          1.54800       -0.96420        3.00170
H          5.03020       -0.96550        2.08090
H          3.90740       -0.07410        3.09920
H          5.48620        1.58980        3.13640
H          4.89510        2.03330        1.54150
H          7.13030       -0.09900        1.83550
H          7.48890        1.66510        1.79140
H          6.62120        1.64990       -0.31630
