25

O         -0.04800        0.01280       -0.03620
C          1.17040       -0.01980       -0.03690
C          2.02120       -0.00350        1.16360
C          1.31610        0.06020        2.49250
C          3.37720       -0.03540        1.00380
N          3.94650       -0.08550       -0.25140
H          4.96650       -0.16930       -0.32690
C          3.23880       -0.14720       -1.43790
O          3.76860       -0.24720       -2.52580
N          1.86930       -0.08680       -1.25020
H          1.30220       -0.11710       -2.09290
C          4.35250       -0.01110        2.15310
C          5.31400       -1.22070        2.24540
C          6.66970       -1.04210        1.56220
O          6.60800       -0.88800        0.14890
H          1.52220        1.00050        3.03050
H          1.59610       -0.77290        3.15710
H          0.23390        0.00650        2.31680
H          3.77770        0.06140        3.08270
H          4.94720        0.91860        2.08750
H          4.81530       -2.13100        1.86840
H          5.52460       -1.41370        3.31070
H          7.33120       -1.88680        1.82620
H          7.15170       -0.12650        1.94170
H          6.47550       -1.75550       -0.25840
