rmsd53.gzmat
 OpenBabel08211713413D

 25 25  0  0  0  0  0  0  0  0999 V2000
    0.0000    0.0000    0.0000 O   0  0  0  0  0  0  0  0  0  0  0  0
    1.2098    0.0000    0.0000 C   0  0  0  0  0  0  0  0  0  0  0  0
    2.0956    0.0000    1.1590 C   0  0  0  0  0  0  0  0  0  0  0  0
    1.4265   -0.0026    2.4849 C   0  0  0  0  0  0  0  0  0  0  0  0
    3.4479   -0.0037    0.9949 C   0  0  0  0  0  0  0  0  0  0  0  0
    4.0084   -0.0048   -0.2759 N   0  0  0  0  0  0  0  0  0  0  0  0
    5.0345    0.0511   -0.3754 H   0  0  0  0  0  0  0  0  0  0  0  0
    3.2305    0.0139   -1.4469 C   0  0  0  0  0  0  0  0  0  0  0  0
    3.7538    0.0445   -2.5399 O   0  0  0  0  0  0  0  0  0  0  0  0
    1.8465    0.0012   -1.2710 N   0  0  0  0  0  0  0  0  0  0  0  0
    1.2613   -0.0017   -2.1099 H   0  0  0  0  0  0  0  0  0  0  0  0
    4.4426   -0.0351    2.1214 C   0  0  0  0  0  0  0  0  0  0  0  0
    5.3472    1.2068    2.1333 C   0  0  0  0  0  0  0  0  0  0  0  0
    6.7289    0.9390    1.5291 C   0  0  0  0  0  0  0  0  0  0  0  0
    6.6616    0.8710    0.1176 O   0  0  0  0  0  0  0  0  0  0  0  0
    0.3292    0.0965    2.3884 H   0  0  0  0  0  0  0  0  0  0  0  0
    1.7564    0.8316    3.1187 H   0  0  0  0  0  0  0  0  0  0  0  0
    1.6026   -0.9405    3.0305 H   0  0  0  0  0  0  0  0  0  0  0  0
    5.0521   -0.9644    2.0477 H   0  0  0  0  0  0  0  0  0  0  0  0
    3.9173   -0.1251    3.0964 H   0  0  0  0  0  0  0  0  0  0  0  0
    5.4676    1.5647    3.1752 H   0  0  0  0  0  0  0  0  0  0  0  0
    4.8582    2.0458    1.5983 H   0  0  0  0  0  0  0  0  0  0  0  0
    7.1318   -0.0562    1.8000 H   0  0  0  0  0  0  0  0  0  0  0  0
    7.4611    1.7125    1.8210 H   0  0  0  0  0  0  0  0  0  0  0  0
    6.5566    1.7608   -0.2777 H   0  0  0  0  0  0  0  0  0  0  0  0
  1  2  2  0  0  0  0
  2  3  1  0  0  0  0
  3  4  1  0  0  0  0
  4 18  1  0  0  0  0
  4 17  1  0  0  0  0
  5  3  2  0  0  0  0
  5 12  1  0  0  0  0
  6  5  1  0  0  0  0
  7  6  1  0  0  0  0
  8 10  1  0  0  0  0
  8  6  1  0  0  0  0
  9  8  2  0  0  0  0
 10  2  1  0  0  0  0
 11 10  1  0  0  0  0
 12 13  1  0  0  0  0
 12 20  1  0  0  0  0
 13 21  1  0  0  0  0
 14 23  1  0  0  0  0
 14 24  1  0  0  0  0
 14 13  1  0  0  0  0
 15 14  1  0  0  0  0
 16  4  1  0  0  0  0
 19 12  1  0  0  0  0
 22 13  1  0  0  0  0
 25 15  1  0  0  0  0
M  END
$$$$
