rmsd12.gzmat
 OpenBabel08211713413D

 25 25  0  0  0  0  0  0  0  0999 V2000
    0.0000    0.0000    0.0000 O   0  0  0  0  0  0  0  0  0  0  0  0
    1.2099    0.0000    0.0000 C   0  0  0  0  0  0  0  0  0  0  0  0
    2.0968    0.0000    1.1563 C   0  0  0  0  0  0  0  0  0  0  0  0
    1.4347   -0.0177    2.4856 C   0  0  0  0  0  0  0  0  0  0  0  0
    3.4495    0.0059    0.9948 C   0  0  0  0  0  0  0  0  0  0  0  0
    4.0111    0.0035   -0.2778 N   0  0  0  0  0  0  0  0  0  0  0  0
    5.0305    0.0741   -0.3798 H   0  0  0  0  0  0  0  0  0  0  0  0
    3.2308    0.0182   -1.4489 C   0  0  0  0  0  0  0  0  0  0  0  0
    3.7536    0.0462   -2.5420 O   0  0  0  0  0  0  0  0  0  0  0  0
    1.8475    0.0035   -1.2718 N   0  0  0  0  0  0  0  0  0  0  0  0
    1.2626   -0.0015   -2.1107 H   0  0  0  0  0  0  0  0  0  0  0  0
    4.4330   -0.0047    2.1288 C   0  0  0  0  0  0  0  0  0  0  0  0
    4.8922    1.4132    2.4953 C   0  0  0  0  0  0  0  0  0  0  0  0
    5.7008    2.0572    1.3620 C   0  0  0  0  0  0  0  0  0  0  0  0
    6.5776    1.0832    0.8257 O   0  0  0  0  0  0  0  0  0  0  0  0
    1.8202    0.7619    3.1554 H   0  0  0  0  0  0  0  0  0  0  0  0
    1.5574   -0.9897    2.9865 H   0  0  0  0  0  0  0  0  0  0  0  0
    0.3454    0.1508    2.4010 H   0  0  0  0  0  0  0  0  0  0  0  0
    5.3217   -0.6282    1.8747 H   0  0  0  0  0  0  0  0  0  0  0  0
    3.9851   -0.4956    3.0194 H   0  0  0  0  0  0  0  0  0  0  0  0
    5.5036    1.3661    3.4171 H   0  0  0  0  0  0  0  0  0  0  0  0
    4.0201    2.0514    2.7393 H   0  0  0  0  0  0  0  0  0  0  0  0
    6.2559    2.9456    1.7018 H   0  0  0  0  0  0  0  0  0  0  0  0
    5.0599    2.3408    0.5032 H   0  0  0  0  0  0  0  0  0  0  0  0
    7.4967    1.2222    1.1131 H   0  0  0  0  0  0  0  0  0  0  0  0
  2  1  2  0  0  0  0
  2  3  1  0  0  0  0
  3  4  1  0  0  0  0
  4 17  1  0  0  0  0
  4 16  1  0  0  0  0
  5  3  2  0  0  0  0
  5 12  1  0  0  0  0
  6  5  1  0  0  0  0
  7  6  1  0  0  0  0
  8 10  1  0  0  0  0
  8  6  1  0  0  0  0
  9  8  2  0  0  0  0
 10  2  1  0  0  0  0
 11 10  1  0  0  0  0
 12 13  1  0  0  0  0
 12 20  1  0  0  0  0
 13 22  1  0  0  0  0
 13 21  1  0  0  0  0
 14 23  1  0  0  0  0
 14 13  1  0  0  0  0
 15 25  1  0  0  0  0
 15 14  1  0  0  0  0
 18  4  1  0  0  0  0
 19 12  1  0  0  0  0
 24 14  1  0  0  0  0
M  END
$$$$
