25

O          0.00480        0.06220       -0.03390
C          1.22260        0.02160       -0.03560
C          2.07340        0.01050        1.16380
C          1.38140        0.06240        2.49900
C          3.42770       -0.02720        1.00580
N          4.00200       -0.07190       -0.25060
H          5.01190       -0.20830       -0.32580
C          3.29330       -0.09020       -1.44050
O          3.82020       -0.16030       -2.53060
N          1.92390       -0.01970       -1.24890
H          1.35800       -0.02000       -2.09310
C          4.40450       -0.03240        2.15210
C          4.96420       -1.42440        2.50780
C          5.61210       -2.15260        1.32900
O          6.46470       -1.31380        0.55960
H          0.29950       -0.03290        2.33920
H          1.55880        1.01800        3.02160
H          1.70390       -0.74860        3.17090
H          3.92580        0.39850        3.04040
H          5.24450        0.63050        1.88970
H          4.16210       -2.06370        2.91330
H          5.70100       -1.29680        3.32090
H          4.83970       -2.50370        0.62840
H          6.15180       -3.04900        1.68580
H          7.21710       -1.04090        1.10150
