rmsd36.gzmat
 OpenBabel08211713413D

 25 25  0  0  0  0  0  0  0  0999 V2000
    0.0000    0.0000    0.0000 O   0  0  0  0  0  0  0  0  0  0  0  0
    1.2100    0.0000    0.0000 C   0  0  0  0  0  0  0  0  0  0  0  0
    2.0952    0.0000    1.1586 C   0  0  0  0  0  0  0  0  0  0  0  0
    1.4216    0.0082    2.4824 C   0  0  0  0  0  0  0  0  0  0  0  0
    3.4483   -0.0022    0.9961 C   0  0  0  0  0  0  0  0  0  0  0  0
    4.0089   -0.0183   -0.2738 N   0  0  0  0  0  0  0  0  0  0  0  0
    5.0366    0.0036   -0.3754 H   0  0  0  0  0  0  0  0  0  0  0  0
    3.2309    0.0007   -1.4453 C   0  0  0  0  0  0  0  0  0  0  0  0
    3.7537    0.0191   -2.5387 O   0  0  0  0  0  0  0  0  0  0  0  0
    1.8470    0.0018   -1.2704 N   0  0  0  0  0  0  0  0  0  0  0  0
    1.2623    0.0021   -2.1098 H   0  0  0  0  0  0  0  0  0  0  0  0
    4.4319   -0.0207    2.1328 C   0  0  0  0  0  0  0  0  0  0  0  0
    5.4457    1.1317    2.0655 C   0  0  0  0  0  0  0  0  0  0  0  0
    6.7954    0.7070    1.4785 C   0  0  0  0  0  0  0  0  0  0  0  0
    6.7359    0.6326    0.0664 O   0  0  0  0  0  0  0  0  0  0  0  0
    0.3282   -0.1297    2.3835 H   0  0  0  0  0  0  0  0  0  0  0  0
    1.5645    0.9643    3.0061 H   0  0  0  0  0  0  0  0  0  0  0  0
    1.7745   -0.8004    3.1363 H   0  0  0  0  0  0  0  0  0  0  0  0
    4.9523   -1.0045    2.1482 H   0  0  0  0  0  0  0  0  0  0  0  0
    3.8903    0.0241    3.1031 H   0  0  0  0  0  0  0  0  0  0  0  0
    5.6055    1.5379    3.0846 H   0  0  0  0  0  0  0  0  0  0  0  0
    5.0290    1.9786    1.4836 H   0  0  0  0  0  0  0  0  0  0  0  0
    7.0808   -0.3243    1.7644 H   0  0  0  0  0  0  0  0  0  0  0  0
    7.6068    1.3976    1.7707 H   0  0  0  0  0  0  0  0  0  0  0  0
    6.7381    1.5249   -0.3382 H   0  0  0  0  0  0  0  0  0  0  0  0
  1  2  2  0  0  0  0
  2  3  1  0  0  0  0
  3  4  1  0  0  0  0
  4 17  1  0  0  0  0
  4 18  1  0  0  0  0
  5  3  2  0  0  0  0
  5 12  1  0  0  0  0
  6  5  1  0  0  0  0
  7  6  1  0  0  0  0
  8 10  1  0  0  0  0
  8  6  1  0  0  0  0
  9  8  2  0  0  0  0
 10  2  1  0  0  0  0
 11 10  1  0  0  0  0
 12 19  1  0  0  0  0
 12 20  1  0  0  0  0
 13 12  1  0  0  0  0
 13 21  1  0  0  0  0
 14 23  1  0  0  0  0
 14 24  1  0  0  0  0
 14 13  1  0  0  0  0
 15 14  1  0  0  0  0
 16  4  1  0  0  0  0
 22 13  1  0  0  0  0
 25 15  1  0  0  0  0
M  END
$$$$
