52
rmsd227.gzmat
N          0.00000        0.00000        0.00000
C          1.35680        0.00000        0.00000
N          2.11240        0.00000        1.12230
C          1.48960       -0.01430        2.32450
C          0.09210       -0.02120        2.42230
C         -0.64280       -0.08870        3.71310
C         -1.99150        0.62480        3.61010
C         -2.75930        0.24480        2.37210
O         -3.96580        0.19460        2.32550
N         -2.02400       -0.03590        1.19990
C         -0.63110       -0.00800        1.20210
C         -2.76260       -0.11150       -0.07760
C         -3.02460        1.27240       -0.61170
C         -2.12490        1.85700       -1.50320
C         -2.36960        3.13360       -2.00080
C         -3.51880        3.82170       -1.60690
C         -4.40460        3.24980       -0.69060
C         -4.15860        1.97260       -0.19720
C         -3.81360        5.14500       -2.17140
C         -4.32480        5.28690       -3.46960
C         -4.58550        6.56700       -3.97610
C         -4.34790        7.69190       -3.19330
C         -3.84430        7.54820       -1.90130
C         -3.57820        6.27960       -1.39280
C         -4.58890        4.15360       -4.33440
N         -4.90940        2.84600       -3.94770
H         -4.94540        2.42710       -3.03110
N         -5.09320        2.11030       -5.08010
N         -4.91470        2.90030       -6.09410
N         -4.60820        4.14620       -5.69880
C          2.37630       -0.02520        3.52220
C          2.04510        0.00050       -1.32270
H         -0.79340       -1.15500        3.99980
H         -0.05070        0.35690        4.54080
H         -2.61590        0.41320        4.50610
H         -1.84900        1.72960        3.60480
H         -3.71890       -0.66400        0.10380
H         -2.17660       -0.72290       -0.80870
H         -1.22370        1.31290       -1.80130
H         -1.66990        3.59460       -2.69690
H         -5.28110        3.80530       -0.36050
H         -4.84660        1.52080        0.52240
H         -4.97300        6.67550       -4.99400
H         -4.55400        8.68400       -3.59260
H         -3.65720        8.42900       -1.28850
H         -3.18020        6.16430       -0.38450
H          3.44270       -0.09070        3.23850
H          2.16300       -0.88310        4.17630
H          2.26020        0.89580        4.11360
H          1.63370        0.77650       -1.98870
H          1.91170       -0.96830       -1.83280
H          3.12830        0.17650       -1.21620
