52
rmsd50.gzmat
N          0.00000        0.00000        0.00000
C          1.35710        0.00000        0.00000
N          2.11250        0.00000        1.12240
C          1.48920       -0.01200        2.32480
C          0.09170       -0.01830        2.42260
C         -0.64700       -0.07780        3.71190
C         -1.99050        0.64470        3.59950
C         -2.76020        0.23880        2.37100
O         -3.96570        0.17060        2.32850
N         -2.02360       -0.04710        1.20090
C         -0.63110       -0.01030        1.20200
C         -2.76640       -0.16840       -0.07000
C         -3.12720        1.19470       -0.59990
C         -4.34750        1.77380       -0.24850
C         -4.69360        3.02300       -0.75330
C         -3.81820        3.68880       -1.61470
C         -2.57980        3.12860       -1.93510
C         -2.23730        1.87820       -1.42910
C         -4.22160        4.96950       -2.20900
C         -4.67560        5.04490       -3.53410
C         -5.04720        6.28600       -4.06850
C         -4.97280        7.43550       -3.28900
C         -4.52510        7.35660       -1.97110
C         -4.15140        6.12780       -1.43340
C         -4.76850        3.88550       -4.40030
N         -4.91450        2.54460       -4.02250
H         -4.91310        2.11910       -3.10750
N         -4.97140        1.79500       -5.15930
N         -4.88230        2.60580       -6.16850
N         -4.75790        3.88000       -5.76560
C          2.37660       -0.02610        3.52210
C          2.04430       -0.00210       -1.32340
H         -0.80790       -1.14210        4.00070
H         -0.05480        0.36610        4.54050
H         -2.61460        0.45740        4.50070
H         -1.83960        1.74790        3.56880
H         -3.68080       -0.78500        0.12020
H         -2.14910       -0.73620       -0.81100
H         -5.02560        1.25000        0.43070
H         -5.64230        3.48210       -0.47800
H         -1.88950        3.66710       -2.58360
H         -1.27090        1.42960       -1.67640
H         -5.39200        6.34520       -5.10570
H         -5.26320        8.39640       -3.71140
H         -4.46560        8.25690       -1.36060
H         -3.79770        6.06300       -0.40430
H          3.44440       -0.02520        3.23590
H          2.20880       -0.92340        4.13610
H          2.21460        0.85920        4.15510
H          1.57470        0.70940       -2.02240
H          1.98720       -1.00020       -1.78990
H          3.11090        0.25960       -1.22730
