52
rmsd228.gzmat
N          0.00000        0.00000        0.00000
C          1.35700        0.00000        0.00000
N          2.11240        0.00000        1.12240
C          1.48940       -0.00120        2.32480
C          0.09200        0.00900        2.42280
C         -0.64530       -0.01820        3.71410
C         -1.98240        0.71370        3.58730
C         -2.75670        0.29280        2.36650
O         -3.96310        0.23910        2.32530
N         -2.02370       -0.02440        1.20210
C         -0.63110        0.00610        1.20210
C         -2.76420       -0.14660       -0.07060
C         -3.06090        1.21690       -0.63820
C         -2.16460        1.81150       -1.52680
C         -2.44100        3.06950       -2.05430
C         -3.61840        3.72790       -1.69390
C         -4.50280        3.14640       -0.78200
C         -4.22430        1.88820       -0.25790
C         -3.93980        5.03180       -2.28840
C         -4.45530        5.13390       -3.58870
C         -4.73620        6.39680       -4.12660
C         -4.51080        7.54390       -3.37310
C         -4.00260        7.43950       -2.07900
C         -3.71870        6.18800       -1.53870
C         -4.69830        3.97490       -4.42490
N         -5.01120        2.67560       -4.00500
H         -5.05330        2.28240       -3.07750
N         -5.17110        1.90580       -5.11810
N         -4.98530        2.66810       -6.15160
N         -4.69730        3.92820       -5.78840
C          2.37590       -0.01570        3.52240
C          2.04640        0.00090       -1.32210
H         -0.81370       -1.07440        4.02640
H         -0.04850        0.43970        4.53180
H         -2.60720        0.55140        4.49320
H         -1.82000        1.81460        3.53450
H         -3.70660       -0.71670        0.12780
H         -2.16610       -0.76100       -0.78930
H         -1.24240        1.28980       -1.79970
H         -1.74410        3.53930       -2.74780
H         -5.40190        3.68070       -0.47790
H         -4.90830        1.42890        0.46110
H         -5.12710        6.47450       -5.14590
H         -4.72940        8.52290       -3.79690
H         -3.82450        8.33790       -1.48900
H         -3.31710        6.10430       -0.52850
H          3.43600       -0.15100        3.24030
H          2.11640       -0.83190        4.21180
H          2.31280        0.93410        4.07560
H          1.66740        0.80740       -1.97100
H          1.87590       -0.95000       -1.85380
H          3.13540        0.13340       -1.21130
