52
rmsd119.gzmat
N          0.00000        0.00000        0.00000
C          1.35700        0.00000        0.00000
N          2.11240        0.00000        1.12210
C          1.48930       -0.01390        2.32430
C          0.09170       -0.02100        2.42180
C         -0.64700       -0.09570        3.71010
C         -1.98800        0.63260        3.61010
C         -2.75830        0.26710        2.36910
O         -3.96540        0.23940        2.31780
N         -2.02440       -0.03190        1.20070
C         -0.63120       -0.00630        1.20170
C         -2.76280       -0.13120       -0.07540
C         -3.02990        1.24110       -0.63600
C         -2.11470        1.82750       -1.51110
C         -2.36290        3.09490       -2.02910
C         -3.53260        3.77110       -1.67550
C         -4.43680        3.19630       -0.77900
C         -4.18490        1.92930       -0.26210
C         -3.82350        5.08630       -2.26040
C         -4.27400        5.21700       -3.58210
C         -4.52560        6.49280       -4.10490
C         -4.33670        7.62300       -3.31670
C         -3.89370        7.48980       -2.00160
C         -3.64020        6.22600       -1.47550
C         -4.48310        4.07920       -4.45610
N         -4.76550        2.75870       -4.08410
H         -4.80370        2.33200       -3.17120
N         -4.90330        2.02480       -5.22420
N         -4.73270        2.82720       -6.22960
N         -4.47660        4.07990       -5.82100
C          2.37660       -0.02320        3.52150
C          2.04440        0.00880       -1.32320
H         -0.81000       -1.16410        3.98210
H         -0.05330        0.33310        4.54530
H         -2.61550        0.42200        4.50420
H         -1.83280        1.73540        3.61270
H         -3.71700       -0.68330        0.11690
H         -2.17370       -0.75340       -0.79510
H         -1.19940        1.29220       -1.78100
H         -1.65020        3.55940       -2.71010
H         -5.33130        3.74170       -0.48120
H         -4.88490        1.47670        0.44550
H         -4.86580        6.59370       -5.14060
H         -4.53470        8.61110       -3.72980
H         -3.74330        8.37450       -1.38410
H         -3.29170        6.11900       -0.44810
H          3.44110       -0.11600        3.23800
H          2.14700       -0.86300        4.19280
H          2.28050        0.91200        4.09430
H          1.87500        0.96410       -1.84740
H          1.66100       -0.79180       -1.97690
H          3.13330       -0.12660       -1.21620
