rmsd107.gzmat
 OpenBabel08211713413D

 52 56  0  0  1  0  0  0  0  0999 V2000
    0.0000    0.0000    0.0000 N   0  0  0  0  0  0  0  0  0  0  0  0
    1.3570    0.0000    0.0000 C   0  0  0  0  0  0  0  0  0  0  0  0
    2.1122    0.0000    1.1222 N   0  0  0  0  0  0  0  0  0  0  0  0
    1.4888   -0.0124    2.3246 C   0  0  0  0  0  0  0  0  0  0  0  0
    0.0912   -0.0202    2.4219 C   0  0  2  0  0  0  0  0  0  0  0  0
   -0.6477   -0.0880    3.7105 C   0  0  0  0  0  0  0  0  0  0  0  0
   -1.9892    0.6390    3.6039 C   0  0  0  0  0  0  0  0  0  0  0  0
   -2.7600    0.2499    2.3706 C   0  0  0  0  0  0  0  0  0  0  0  0
   -3.9661    0.1951    2.3251 O   0  0  0  0  0  0  0  0  0  0  0  0
   -2.0243   -0.0359    1.1995 N   0  0  0  0  0  0  0  0  0  0  0  0
   -0.6317   -0.0078    1.2016 C   0  0  0  0  0  0  0  0  0  0  0  0
   -2.7640   -0.1254   -0.0762 C   0  0  0  0  0  0  0  0  0  0  0  0
   -3.0683    1.2528   -0.6029 C   0  0  0  0  0  0  0  0  0  0  0  0
   -2.1511    1.9004   -1.4312 C   0  0  0  0  0  0  0  0  0  0  0  0
   -2.4352    3.1702   -1.9243 C   0  0  0  0  0  0  0  0  0  0  0  0
   -3.6446    3.7856   -1.5944 C   0  0  0  0  0  0  0  0  0  0  0  0
   -4.5502    3.1523   -0.7396 C   0  0  0  0  0  0  0  0  0  0  0  0
   -4.2611    1.8840   -0.2461 C   0  0  0  0  0  0  0  0  0  0  0  0
   -3.9822    5.0929   -2.1721 C   0  0  0  0  0  0  0  0  0  0  0  0
   -4.4391    5.2061   -3.4935 C   0  0  0  0  0  0  0  0  0  0  0  0
   -4.7415    6.4705   -4.0162 C   0  0  0  0  0  0  0  0  0  0  0  0
   -4.5995    7.6068   -3.2269 C   0  0  0  0  0  0  0  0  0  0  0  0
   -4.1508    7.4908   -1.9121 C   0  0  0  0  0  0  0  0  0  0  0  0
   -3.8410    6.2385   -1.3875 C   0  0  0  0  0  0  0  0  0  0  0  0
   -4.5996    4.0602   -4.3675 C   0  0  0  0  0  0  0  0  0  0  0  0
   -4.8504    2.7330   -3.9963 N   0  0  0  0  0  0  0  0  0  0  0  0
   -4.8973    2.3075   -3.0826 H   0  0  0  0  0  0  0  0  0  0  0  0
   -4.9376    1.9910   -5.1360 N   0  0  0  0  0  0  0  0  0  0  0  0
   -4.7682    2.7945   -6.1408 N   0  0  0  0  0  0  0  0  0  0  0  0
   -4.5606    4.0560   -5.7318 N   0  0  0  0  0  0  0  0  0  0  0  0
    2.3751   -0.0192    3.5228 C   0  0  0  0  0  0  0  0  0  0  0  0
    2.0416    0.0030   -1.3247 C   0  0  0  0  0  0  0  0  0  0  0  0
   -0.8107   -1.1544    3.9902 H   0  0  0  0  0  0  0  0  0  0  0  0
   -0.0553    0.3469    4.5433 H   0  0  0  0  0  0  0  0  0  0  0  0
   -2.6138    0.4443    4.5033 H   0  0  0  0  0  0  0  0  0  0  0  0
   -1.8343    1.7417    3.5852 H   0  0  0  0  0  0  0  0  0  0  0  0
   -3.7023   -0.7075    0.1052 H   0  0  0  0  0  0  0  0  0  0  0  0
   -2.1620   -0.7141   -0.8134 H   0  0  0  0  0  0  0  0  0  0  0  0
   -1.2074    1.4096   -1.6868 H   0  0  0  0  0  0  0  0  0  0  0  0
   -1.7213    3.6810   -2.5699 H   0  0  0  0  0  0  0  0  0  0  0  0
   -5.4759    3.6526   -0.4581 H   0  0  0  0  0  0  0  0  0  0  0  0
   -4.9608    1.3854    0.4301 H   0  0  0  0  0  0  0  0  0  0  0  0
   -5.0841    6.5578   -5.0521 H   0  0  0  0  0  0  0  0  0  0  0  0
   -4.8368    8.5866   -3.6387 H   0  0  0  0  0  0  0  0  0  0  0  0
   -4.0406    8.3810   -1.2940 H   0  0  0  0  0  0  0  0  0  0  0  0
   -3.4821    6.1458   -0.3622 H   0  0  0  0  0  0  0  0  0  0  0  0
    3.4405   -0.1053    3.2412 H   0  0  0  0  0  0  0  0  0  0  0  0
    2.1488   -0.8616    4.1923 H   0  0  0  0  0  0  0  0  0  0  0  0
    2.2743    0.9132    4.0991 H   0  0  0  0  0  0  0  0  0  0  0  0
    1.6834    0.8318   -1.9573 H   0  0  0  0  0  0  0  0  0  0  0  0
    1.8381   -0.9321   -1.8728 H   0  0  0  0  0  0  0  0  0  0  0  0
    3.1343    0.1008   -1.2181 H   0  0  0  0  0  0  0  0  0  0  0  0
  1  2  2  0  0  0  0
  1 11  2  0  0  0  0
  2  3  2  0  0  0  0
  3  4  2  0  0  0  0
  4 31  1  0  0  0  0
  5  4  1  6  0  0  0
  5 11  1  0  0  0  0
  5  6  1  0  0  0  0
  6 33  1  0  0  0  0
  6 34  1  0  0  0  0
  7  6  1  0  0  0  0
  7 35  1  0  0  0  0
  8  7  1  0  0  0  0
  9  8  2  0  0  0  0
 10 11  1  0  0  0  0
 10  8  1  0  0  0  0
 12 37  1  0  0  0  0
 12 10  1  0  0  0  0
 13 18  1  0  0  0  0
 13 12  1  0  0  0  0
 14 13  2  0  0  0  0
 15 16  2  0  0  0  0
 15 14  1  0  0  0  0
 16 17  1  0  0  0  0
 17 41  1  0  0  0  0
 17 18  2  0  0  0  0
 18 42  1  0  0  0  0
 19 16  1  0  0  0  0
 19 24  2  0  0  0  0
 20 19  1  0  0  0  0
 21 20  2  0  0  0  0
 21 22  1  0  0  0  0
 22 23  2  0  0  0  0
 23 24  1  0  0  0  0
 23 45  1  0  0  0  0
 24 46  1  0  0  0  0
 25 26  1  0  0  0  0
 25 20  1  0  0  0  0
 26 27  1  0  0  0  0
 28 26  1  0  0  0  0
 29 30  1  0  0  0  0
 29 28  2  0  0  0  0
 30 25  2  0  0  0  0
 31 49  1  0  0  0  0
 31 48  1  0  0  0  0
 32 52  1  0  0  0  0
 32  2  1  0  0  0  0
 36  7  1  0  0  0  0
 38 12  1  0  0  0  0
 39 14  1  0  0  0  0
 40 15  1  0  0  0  0
 43 21  1  0  0  0  0
 44 22  1  0  0  0  0
 47 31  1  0  0  0  0
 50 32  1  0  0  0  0
 51 32  1  0  0  0  0
M  RAD  1   5   2
M  END
$$$$
