52

N         -0.06460       -0.16530        0.11600
C          1.27070       -0.26890        0.09140
N          2.06100       -0.20470        1.16240
C          1.48070       -0.03450        2.36270
C          0.09340        0.09150        2.49600
C         -0.63770        0.23300        3.80210
C         -1.92870        1.02350        3.59740
C         -2.76140        0.49820        2.44350
O         -3.97620        0.46350        2.46980
N         -2.04550        0.10870        1.31400
C         -0.64680        0.01820        1.29810
C         -2.80150       -0.25320        0.10420
C         -2.98880       -1.74860       -0.02140
C         -3.96450       -2.40480        0.74390
C         -4.12760       -3.78840        0.65060
C         -3.32350       -4.54850       -0.21490
C         -2.33990       -3.88940       -0.97120
C         -2.17450       -2.50750       -0.87390
C         -3.50680       -6.02300       -0.32860
C         -3.99350       -6.63970       -1.50510
C         -4.08220       -8.04290       -1.56700
C         -3.71850       -8.82950       -0.47830
C         -3.26610       -8.22280        0.69710
C         -3.16300       -6.83350        0.76400
C         -4.46340       -5.89640       -2.68190
N         -4.77020       -4.57950       -2.77660
H         -4.68670       -3.84390       -2.08300
N         -5.21400       -4.31670       -4.01600
N         -5.18290       -5.43660       -4.65420
N         -4.72880       -6.43170       -3.86710
C          2.39160        0.00020        3.55980
C          1.91140       -0.49590       -1.24840
H         -0.87580       -0.77130        4.20090
H         -0.00910        0.72310        4.55860
H         -2.57070        1.02170        4.48720
H         -1.68780        2.07650        3.36450
H         -2.25480        0.14000       -0.75870
H         -3.77310        0.24570        0.19020
H         -4.59510       -1.81810        1.41570
H         -4.89850       -4.28920        1.24110
H         -1.70510       -4.47000       -1.64450
H         -1.39860       -2.00480       -1.45390
H         -4.45650       -8.49240       -2.48760
H         -3.79650       -9.91690       -0.54340
H         -2.98630       -8.83160        1.56000
H         -2.79030       -6.35410        1.67180
H          3.42580       -0.15580        3.23000
H          2.12440       -0.78130        4.28950
H          2.32750        0.96810        4.08420
H          1.50750        0.20650       -1.99260
H          1.68110       -1.51390       -1.60540
H          2.99990       -0.38600       -1.17290
