
     RDKit          3D

 52 56  0  0  0  0  0  0  0  0999 V2000
   -0.0345    0.0870    0.0999 N   0  0  0  0  0  0  0  0  0  0  0  0
    1.3046    0.0976    0.0480 C   0  0  0  0  0  0  0  0  0  0  0  0
    2.1094    0.0425    1.1081 N   0  0  0  0  0  0  0  0  0  0  0  0
    1.5427   -0.0399    2.3244 C   0  0  0  0  0  0  0  0  0  0  0  0
    0.1532   -0.0482    2.4875 C   0  0  0  0  0  0  0  0  0  0  0  0
   -0.5613   -0.1868    3.8027 C   0  0  0  0  0  0  0  0  0  0  0  0
   -1.8983    0.5481    3.7485 C   0  0  0  0  0  0  0  0  0  0  0  0
   -2.7218    0.2021    2.5233 C   0  0  0  0  0  0  0  0  0  0  0  0
   -3.9362    0.1612    2.5394 O   0  0  0  0  0  0  0  0  0  0  0  0
   -2.0051   -0.0074    1.3466 N   0  0  0  0  0  0  0  0  0  0  0  0
   -0.6050    0.0238    1.3000 C   0  0  0  0  0  0  0  0  0  0  0  0
   -2.7767   -0.1601    0.1008 C   0  0  0  0  0  0  0  0  0  0  0  0
   -3.1658    1.1662   -0.5186 C   0  0  0  0  0  0  0  0  0  0  0  0
   -4.3659    1.7955   -0.1568 C   0  0  0  0  0  0  0  0  0  0  0  0
   -4.7240    3.0223   -0.7215 C   0  0  0  0  0  0  0  0  0  0  0  0
   -3.8941    3.6462   -1.6661 C   0  0  0  0  0  0  0  0  0  0  0  0
   -2.6864    3.0189   -2.0177 C   0  0  0  0  0  0  0  0  0  0  0  0
   -2.3273    1.7966   -1.4511 C   0  0  0  0  0  0  0  0  0  0  0  0
   -4.2831    4.9447   -2.2855 C   0  0  0  0  0  0  0  0  0  0  0  0
   -4.6255    5.0609   -3.6533 C   0  0  0  0  0  0  0  0  0  0  0  0
   -4.9232    6.3279   -4.1886 C   0  0  0  0  0  0  0  0  0  0  0  0
   -4.9062    7.4639   -3.3850 C   0  0  0  0  0  0  0  0  0  0  0  0
   -4.5980    7.3493   -2.0263 C   0  0  0  0  0  0  0  0  0  0  0  0
   -4.2899    6.0997   -1.4889 C   0  0  0  0  0  0  0  0  0  0  0  0
   -4.7345    3.9160   -4.5673 C   0  0  0  0  0  0  0  0  0  0  0  0
   -4.7940    2.5974   -4.2591 N   0  0  0  0  0  0  0  0  0  0  0  0
   -4.7213    2.1404   -3.3562 H   0  0  0  0  0  0  0  0  0  0  0  0
   -4.9450    1.8857   -5.3871 N   0  0  0  0  0  0  0  0  0  0  0  0
   -4.9807    2.7419   -6.3505 N   0  0  0  0  0  0  0  0  0  0  0  0
   -4.8561    4.0007   -5.8863 N   0  0  0  0  0  0  0  0  0  0  0  0
    2.4737   -0.1378    3.5025 C   0  0  0  0  0  0  0  0  0  0  0  0
    1.9315    0.1937   -1.3139 C   0  0  0  0  0  0  0  0  0  0  0  0
   -0.7338   -1.2585    4.0175 H   0  0  0  0  0  0  0  0  0  0  0  0
    0.0507    0.1982    4.6301 H   0  0  0  0  0  0  0  0  0  0  0  0
   -2.5269    0.3522    4.6265 H   0  0  0  0  0  0  0  0  0  0  0  0
   -1.7238    1.6389    3.7071 H   0  0  0  0  0  0  0  0  0  0  0  0
   -3.6758   -0.7308    0.3608 H   0  0  0  0  0  0  0  0  0  0  0  0
   -2.1599   -0.7395   -0.5930 H   0  0  0  0  0  0  0  0  0  0  0  0
   -5.0145    1.3191    0.5802 H   0  0  0  0  0  0  0  0  0  0  0  0
   -5.6666    3.4981   -0.4406 H   0  0  0  0  0  0  0  0  0  0  0  0
   -2.0305    3.4954   -2.7500 H   0  0  0  0  0  0  0  0  0  0  0  0
   -1.3822    1.3208   -1.7163 H   0  0  0  0  0  0  0  0  0  0  0  0
   -5.1796    6.3896   -5.2470 H   0  0  0  0  0  0  0  0  0  0  0  0
   -5.1424    8.4387   -3.8172 H   0  0  0  0  0  0  0  0  0  0  0  0
   -4.5906    8.2342   -1.3856 H   0  0  0  0  0  0  0  0  0  0  0  0
   -4.0285    6.0059   -0.4326 H   0  0  0  0  0  0  0  0  0  0  0  0
    3.5095   -0.1510    3.1424 H   0  0  0  0  0  0  0  0  0  0  0  0
    2.2846   -1.0521    4.0881 H   0  0  0  0  0  0  0  0  0  0  0  0
    2.3456    0.7173    4.1866 H   0  0  0  0  0  0  0  0  0  0  0  0
    1.7260    1.1838   -1.7539 H   0  0  0  0  0  0  0  0  0  0  0  0
    1.4958   -0.5566   -1.9910 H   0  0  0  0  0  0  0  0  0  0  0  0
    3.0167    0.0537   -1.2432 H   0  0  0  0  0  0  0  0  0  0  0  0
  1  2  2  0
  1 11  1  0
  2  3  1  0
  2 32  1  0
  3  4  2  0
  4  5  1  0
  4 31  1  0
  5  6  1  0
  5 11  2  0
  6  7  1  0
  6 33  1  0
  6 34  1  0
  7  8  1  0
  7 35  1  0
  7 36  1  0
  8  9  2  0
  8 10  1  0
 10 11  1  0
 10 12  1  0
 12 13  1  0
 12 37  1  0
 12 38  1  0
 13 14  2  0
 13 18  1  0
 14 15  1  0
 14 39  1  0
 15 16  2  0
 15 40  1  0
 16 17  1  0
 16 19  1  0
 17 18  2  0
 17 41  1  0
 18 42  1  0
 19 20  1  0
 19 24  2  0
 20 21  2  0
 20 25  1  0
 21 22  1  0
 21 43  1  0
 22 23  2  0
 22 44  1  0
 23 24  1  0
 23 45  1  0
 24 46  1  0
 25 26  1  0
 25 30  2  0
 26 27  1  0
 26 28  1  0
 28 29  2  0
 29 30  1  0
 31 47  1  0
 31 48  1  0
 31 49  1  0
 32 50  1  0
 32 51  1  0
 32 52  1  0
M  END

