rmsd50.gzmat
 OpenBabel08211713413D

 52 56  0  0  1  0  0  0  0  0999 V2000
    0.0000    0.0000    0.0000 N   0  0  0  0  0  0  0  0  0  0  0  0
    1.3571    0.0000    0.0000 C   0  0  0  0  0  0  0  0  0  0  0  0
    2.1125    0.0000    1.1224 N   0  0  0  0  0  0  0  0  0  0  0  0
    1.4892   -0.0120    2.3248 C   0  0  0  0  0  0  0  0  0  0  0  0
    0.0917   -0.0183    2.4226 C   0  0  2  0  0  0  0  0  0  0  0  0
   -0.6470   -0.0778    3.7119 C   0  0  0  0  0  0  0  0  0  0  0  0
   -1.9905    0.6447    3.5995 C   0  0  0  0  0  0  0  0  0  0  0  0
   -2.7602    0.2388    2.3710 C   0  0  0  0  0  0  0  0  0  0  0  0
   -3.9657    0.1706    2.3285 O   0  0  0  0  0  0  0  0  0  0  0  0
   -2.0236   -0.0471    1.2009 N   0  0  0  0  0  0  0  0  0  0  0  0
   -0.6311   -0.0103    1.2020 C   0  0  0  0  0  0  0  0  0  0  0  0
   -2.7664   -0.1684   -0.0700 C   0  0  0  0  0  0  0  0  0  0  0  0
   -3.1272    1.1947   -0.5999 C   0  0  0  0  0  0  0  0  0  0  0  0
   -4.3475    1.7738   -0.2485 C   0  0  0  0  0  0  0  0  0  0  0  0
   -4.6936    3.0230   -0.7533 C   0  0  0  0  0  0  0  0  0  0  0  0
   -3.8182    3.6888   -1.6147 C   0  0  0  0  0  0  0  0  0  0  0  0
   -2.5798    3.1286   -1.9351 C   0  0  0  0  0  0  0  0  0  0  0  0
   -2.2373    1.8782   -1.4291 C   0  0  0  0  0  0  0  0  0  0  0  0
   -4.2216    4.9695   -2.2090 C   0  0  0  0  0  0  0  0  0  0  0  0
   -4.6756    5.0449   -3.5341 C   0  0  0  0  0  0  0  0  0  0  0  0
   -5.0472    6.2860   -4.0685 C   0  0  0  0  0  0  0  0  0  0  0  0
   -4.9728    7.4355   -3.2890 C   0  0  0  0  0  0  0  0  0  0  0  0
   -4.5251    7.3566   -1.9711 C   0  0  0  0  0  0  0  0  0  0  0  0
   -4.1514    6.1278   -1.4334 C   0  0  0  0  0  0  0  0  0  0  0  0
   -4.7685    3.8855   -4.4003 C   0  0  0  0  0  0  0  0  0  0  0  0
   -4.9145    2.5446   -4.0225 N   0  0  0  0  0  0  0  0  0  0  0  0
   -4.9131    2.1191   -3.1075 H   0  0  0  0  0  0  0  0  0  0  0  0
   -4.9714    1.7950   -5.1593 N   0  0  0  0  0  0  0  0  0  0  0  0
   -4.8823    2.6058   -6.1685 N   0  0  0  0  0  0  0  0  0  0  0  0
   -4.7579    3.8800   -5.7656 N   0  0  0  0  0  0  0  0  0  0  0  0
    2.3766   -0.0261    3.5221 C   0  0  0  0  0  0  0  0  0  0  0  0
    2.0443   -0.0021   -1.3234 C   0  0  0  0  0  0  0  0  0  0  0  0
   -0.8079   -1.1421    4.0007 H   0  0  0  0  0  0  0  0  0  0  0  0
   -0.0548    0.3661    4.5405 H   0  0  0  0  0  0  0  0  0  0  0  0
   -2.6146    0.4574    4.5007 H   0  0  0  0  0  0  0  0  0  0  0  0
   -1.8396    1.7479    3.5688 H   0  0  0  0  0  0  0  0  0  0  0  0
   -3.6808   -0.7850    0.1202 H   0  0  0  0  0  0  0  0  0  0  0  0
   -2.1491   -0.7362   -0.8110 H   0  0  0  0  0  0  0  0  0  0  0  0
   -5.0256    1.2500    0.4307 H   0  0  0  0  0  0  0  0  0  0  0  0
   -5.6423    3.4821   -0.4780 H   0  0  0  0  0  0  0  0  0  0  0  0
   -1.8895    3.6671   -2.5836 H   0  0  0  0  0  0  0  0  0  0  0  0
   -1.2709    1.4296   -1.6764 H   0  0  0  0  0  0  0  0  0  0  0  0
   -5.3920    6.3452   -5.1057 H   0  0  0  0  0  0  0  0  0  0  0  0
   -5.2632    8.3964   -3.7114 H   0  0  0  0  0  0  0  0  0  0  0  0
   -4.4656    8.2569   -1.3606 H   0  0  0  0  0  0  0  0  0  0  0  0
   -3.7977    6.0630   -0.4043 H   0  0  0  0  0  0  0  0  0  0  0  0
    3.4444   -0.0252    3.2359 H   0  0  0  0  0  0  0  0  0  0  0  0
    2.2088   -0.9234    4.1361 H   0  0  0  0  0  0  0  0  0  0  0  0
    2.2146    0.8592    4.1551 H   0  0  0  0  0  0  0  0  0  0  0  0
    1.5747    0.7094   -2.0224 H   0  0  0  0  0  0  0  0  0  0  0  0
    1.9872   -1.0002   -1.7899 H   0  0  0  0  0  0  0  0  0  0  0  0
    3.1109    0.2596   -1.2273 H   0  0  0  0  0  0  0  0  0  0  0  0
  1  2  2  0  0  0  0
  1 11  2  0  0  0  0
  2  3  2  0  0  0  0
  3  4  2  0  0  0  0
  4 31  1  0  0  0  0
  5  4  1  6  0  0  0
  5 11  1  0  0  0  0
  5  6  1  0  0  0  0
  6 33  1  0  0  0  0
  6 34  1  0  0  0  0
  7  6  1  0  0  0  0
  7 35  1  0  0  0  0
  8  7  1  0  0  0  0
  9  8  2  0  0  0  0
 10 11  1  0  0  0  0
 10  8  1  0  0  0  0
 12 37  1  0  0  0  0
 12 10  1  0  0  0  0
 13 14  1  0  0  0  0
 13 12  1  0  0  0  0
 14 39  1  0  0  0  0
 15 40  1  0  0  0  0
 15 14  2  0  0  0  0
 16 15  1  0  0  0  0
 17 16  2  0  0  0  0
 17 18  1  0  0  0  0
 18 13  2  0  0  0  0
 19 16  1  0  0  0  0
 19 24  2  0  0  0  0
 20 19  1  0  0  0  0
 21 20  2  0  0  0  0
 21 22  1  0  0  0  0
 22 23  2  0  0  0  0
 23 24  1  0  0  0  0
 23 45  1  0  0  0  0
 24 46  1  0  0  0  0
 25 26  1  0  0  0  0
 25 20  1  0  0  0  0
 26 27  1  0  0  0  0
 28 26  1  0  0  0  0
 29 30  1  0  0  0  0
 29 28  2  0  0  0  0
 30 25  2  0  0  0  0
 31 48  1  0  0  0  0
 31 49  1  0  0  0  0
 32 52  1  0  0  0  0
 32  2  1  0  0  0  0
 36  7  1  0  0  0  0
 38 12  1  0  0  0  0
 41 17  1  0  0  0  0
 42 18  1  0  0  0  0
 43 21  1  0  0  0  0
 44 22  1  0  0  0  0
 47 31  1  0  0  0  0
 50 32  1  0  0  0  0
 51 32  1  0  0  0  0
M  RAD  1   5   2
M  END
$$$$
