42
rmsd163.gzmat
N          0.00000        0.00000        0.00000
N          1.36810        0.00000        0.00000
C          1.72040        0.00000        1.30380
N          0.60190       -0.00020        2.13880
C         -0.46150        0.00260        1.32490
C         -0.74740        0.02110       -1.20800
C         -0.20090       -0.29170       -2.39140
C         -0.99560       -0.32140       -3.64420
O         -1.72500       -1.25190       -3.87840
C         -0.81410        0.83710       -4.62530
C         -2.04490        0.90750       -5.53380
C         -0.65260        2.15600       -3.86680
C          0.44330        0.52760       -5.44810
C         -2.15740        0.41510       -1.02990
C         -3.14500       -0.51390       -1.25780
C         -4.50500       -0.16320       -1.08410
C         -4.84460        1.10230       -0.68210
C         -3.84090        2.08490       -0.45650
C         -2.48220        1.75130       -0.65110
C         -1.49350        2.75820       -0.47310
C         -1.84950        4.02310       -0.08330
C         -3.21020        4.34770        0.14440
C         -4.18430        3.40180       -0.04190
H          2.73170       -0.00010        1.67550
H         -1.50210        0.00550        1.60720
H          0.85090       -0.57010       -2.50280
H         -2.24180       -0.05930       -6.01710
H         -1.91840        1.65520       -6.32310
H         -2.94780        1.16650       -4.96780
H          0.25610        2.16970       -3.25320
H         -1.50420        2.34550       -3.20010
H         -0.59160        3.00360       -4.55930
H          1.33930        0.46950       -4.81940
H          0.62150        1.30750       -6.19770
H          0.34510       -0.42290       -5.98700
H         -2.89340       -1.52740       -1.58770
H         -5.26870       -0.91630       -1.27480
H         -5.88770        1.37930       -0.53330
H         -0.44610        2.51370       -0.65440
H         -1.09320        4.79470        0.05810
H         -3.46380        5.35650        0.46540
H         -5.23320        3.64100        0.12570
