rmsd120.gzmat
 OpenBabel08211713383D

 42 44  0  0  0  0  0  0  0  0999 V2000
    0.0000    0.0000    0.0000 N   0  0  0  0  0  0  0  0  0  0  0  0
    1.3682    0.0000    0.0000 N   0  0  0  0  0  0  0  0  0  0  0  0
    1.7207    0.0000    1.3037 C   0  0  0  0  0  0  0  0  0  0  0  0
    0.6022   -0.0009    2.1389 N   0  0  0  0  0  0  0  0  0  0  0  0
   -0.4611   -0.0033    1.3253 C   0  0  0  0  0  0  0  0  0  0  0  0
   -0.7471   -0.0116   -1.2072 C   0  0  0  0  0  0  0  0  0  0  0  0
   -0.1940    0.2627   -2.3976 C   0  0  0  0  0  0  0  0  0  0  0  0
   -1.0021    0.2922   -3.6421 C   0  0  0  0  0  0  0  0  0  0  0  0
   -1.7449    1.2153   -3.8636 O   0  0  0  0  0  0  0  0  0  0  0  0
   -0.8299   -0.8680   -4.6228 C   0  0  0  0  0  0  0  0  0  0  0  0
   -2.0299   -0.8867   -5.5735 C   0  0  0  0  0  0  0  0  0  0  0  0
    0.4684   -0.6139   -5.3979 C   0  0  0  0  0  0  0  0  0  0  0  0
   -0.7510   -2.1923   -3.8599 C   0  0  0  0  0  0  0  0  0  0  0  0
   -2.1714   -0.3524   -1.0319 C   0  0  0  0  0  0  0  0  0  0  0  0
   -3.1210    0.6147   -1.2626 C   0  0  0  0  0  0  0  0  0  0  0  0
   -4.4962    0.3092   -1.1278 C   0  0  0  0  0  0  0  0  0  0  0  0
   -4.8888   -0.9533   -0.7673 C   0  0  0  0  0  0  0  0  0  0  0  0
   -3.9247   -1.9725   -0.5319 C   0  0  0  0  0  0  0  0  0  0  0  0
   -2.5501   -1.6796   -0.6735 C   0  0  0  0  0  0  0  0  0  0  0  0
   -1.6002   -2.7174   -0.4641 C   0  0  0  0  0  0  0  0  0  0  0  0
   -2.0087   -3.9746   -0.1023 C   0  0  0  0  0  0  0  0  0  0  0  0
   -3.3871   -4.2618    0.0596 C   0  0  0  0  0  0  0  0  0  0  0  0
   -4.3239   -3.2850   -0.1562 C   0  0  0  0  0  0  0  0  0  0  0  0
    2.7321    0.0015    1.6748 H   0  0  0  0  0  0  0  0  0  0  0  0
   -1.5017   -0.0062    1.6070 H   0  0  0  0  0  0  0  0  0  0  0  0
    0.8652    0.5030   -2.5194 H   0  0  0  0  0  0  0  0  0  0  0  0
   -2.9633   -1.0913   -5.0349 H   0  0  0  0  0  0  0  0  0  0  0  0
   -1.9168   -1.6498   -6.3495 H   0  0  0  0  0  0  0  0  0  0  0  0
   -2.1610    0.0840   -6.0709 H   0  0  0  0  0  0  0  0  0  0  0  0
    1.3382   -0.5719   -4.7322 H   0  0  0  0  0  0  0  0  0  0  0  0
    0.4258    0.3274   -5.9585 H   0  0  0  0  0  0  0  0  0  0  0  0
    0.6532   -1.4147   -6.1232 H   0  0  0  0  0  0  0  0  0  0  0  0
    0.1261   -2.2373   -3.2033 H   0  0  0  0  0  0  0  0  0  0  0  0
   -0.6844   -3.0410   -4.5504 H   0  0  0  0  0  0  0  0  0  0  0  0
   -1.6396   -2.3532   -3.2356 H   0  0  0  0  0  0  0  0  0  0  0  0
   -2.8275    1.6241   -1.5697 H   0  0  0  0  0  0  0  0  0  0  0  0
   -5.2282    1.0927   -1.3196 H   0  0  0  0  0  0  0  0  0  0  0  0
   -5.9447   -1.1989   -0.6579 H   0  0  0  0  0  0  0  0  0  0  0  0
   -0.5397   -2.5020   -0.5964 H   0  0  0  0  0  0  0  0  0  0  0  0
   -1.2817   -4.7684    0.0668 H   0  0  0  0  0  0  0  0  0  0  0  0
   -3.6844   -5.2665    0.3544 H   0  0  0  0  0  0  0  0  0  0  0  0
   -5.3860   -3.4953   -0.0420 H   0  0  0  0  0  0  0  0  0  0  0  0
  1  2  1  0  0  0  0
  1  5  1  0  0  0  0
  2  3  2  0  0  0  0
  3 24  1  0  0  0  0
  3  4  2  0  0  0  0
  5 25  1  0  0  0  0
  5  4  2  0  0  0  0
  6 14  1  0  0  0  0
  6  1  1  0  0  0  0
  7  6  2  0  0  0  0
  8  7  1  0  0  0  0
  9  8  2  0  0  0  0
 10 13  1  0  0  0  0
 10  8  1  0  0  0  0
 11 27  1  0  0  0  0
 11 10  1  0  0  0  0
 12 30  1  0  0  0  0
 12 10  1  0  0  0  0
 13 35  1  0  0  0  0
 13 33  1  0  0  0  0
 14 19  2  0  0  0  0
 15 16  2  0  0  0  0
 15 14  1  0  0  0  0
 16 17  1  0  0  0  0
 17 38  1  0  0  0  0
 17 18  2  0  0  0  0
 18 23  1  0  0  0  0
 19 18  1  0  0  0  0
 19 20  1  0  0  0  0
 20 21  2  0  0  0  0
 21 22  1  0  0  0  0
 21 40  1  0  0  0  0
 22 41  1  0  0  0  0
 23 42  1  0  0  0  0
 23 22  2  0  0  0  0
 26  7  1  0  0  0  0
 28 11  1  0  0  0  0
 29 11  1  0  0  0  0
 31 12  1  0  0  0  0
 32 12  1  0  0  0  0
 34 13  1  0  0  0  0
 36 15  1  0  0  0  0
 37 16  1  0  0  0  0
 39 20  1  0  0  0  0
M  END
$$$$
