rmsd118.gzmat
 OpenBabel08211713383D

 42 44  0  0  0  0  0  0  0  0999 V2000
    0.0000    0.0000    0.0000 N   0  0  0  0  0  0  0  0  0  0  0  0
    1.3684    0.0000    0.0000 N   0  0  0  0  0  0  0  0  0  0  0  0
    1.7209    0.0000    1.3036 C   0  0  0  0  0  0  0  0  0  0  0  0
    0.6022   -0.0014    2.1389 N   0  0  0  0  0  0  0  0  0  0  0  0
   -0.4612   -0.0031    1.3253 C   0  0  0  0  0  0  0  0  0  0  0  0
   -0.7452   -0.0046   -1.2089 C   0  0  0  0  0  0  0  0  0  0  0  0
   -0.1818    0.2700   -2.3942 C   0  0  0  0  0  0  0  0  0  0  0  0
   -0.9710    0.3137   -3.6498 C   0  0  0  0  0  0  0  0  0  0  0  0
   -1.6816    1.2568   -3.8896 O   0  0  0  0  0  0  0  0  0  0  0  0
   -0.8199   -0.8610   -4.6165 C   0  0  0  0  0  0  0  0  0  0  0  0
   -0.9570   -2.1768   -3.8467 C   0  0  0  0  0  0  0  0  0  0  0  0
   -1.9161   -0.7628   -5.6807 C   0  0  0  0  0  0  0  0  0  0  0  0
    0.5663   -0.7511   -5.2618 C   0  0  0  0  0  0  0  0  0  0  0  0
   -2.1724   -0.3360   -1.0387 C   0  0  0  0  0  0  0  0  0  0  0  0
   -3.1152    0.6339   -1.2859 C   0  0  0  0  0  0  0  0  0  0  0  0
   -4.4931    0.3385   -1.1554 C   0  0  0  0  0  0  0  0  0  0  0  0
   -4.8960   -0.9173   -0.7829 C   0  0  0  0  0  0  0  0  0  0  0  0
   -3.9398   -1.9401   -0.5314 C   0  0  0  0  0  0  0  0  0  0  0  0
   -2.5625   -1.6571   -0.6671 C   0  0  0  0  0  0  0  0  0  0  0  0
   -1.6209   -2.6987   -0.4406 C   0  0  0  0  0  0  0  0  0  0  0  0
   -2.0400   -3.9499   -0.0701 C   0  0  0  0  0  0  0  0  0  0  0  0
   -3.4213   -4.2274    0.0831 C   0  0  0  0  0  0  0  0  0  0  0  0
   -4.3504   -3.2467   -0.1482 C   0  0  0  0  0  0  0  0  0  0  0  0
    2.7327    0.0015    1.6737 H   0  0  0  0  0  0  0  0  0  0  0  0
   -1.5020   -0.0057    1.6071 H   0  0  0  0  0  0  0  0  0  0  0  0
    0.8808    0.5035   -2.5050 H   0  0  0  0  0  0  0  0  0  0  0  0
   -0.1439   -2.3185   -3.1246 H   0  0  0  0  0  0  0  0  0  0  0  0
   -0.9404   -3.0356   -4.5267 H   0  0  0  0  0  0  0  0  0  0  0  0
   -1.9016   -2.2228   -3.2899 H   0  0  0  0  0  0  0  0  0  0  0  0
   -1.8600    0.1889   -6.2255 H   0  0  0  0  0  0  0  0  0  0  0  0
   -2.9148   -0.8054   -5.2285 H   0  0  0  0  0  0  0  0  0  0  0  0
   -1.8434   -1.5743   -6.4105 H   0  0  0  0  0  0  0  0  0  0  0  0
    0.7089    0.2214   -5.7481 H   0  0  0  0  0  0  0  0  0  0  0  0
    0.7014   -1.5213   -6.0301 H   0  0  0  0  0  0  0  0  0  0  0  0
    1.3695   -0.8814   -4.5268 H   0  0  0  0  0  0  0  0  0  0  0  0
   -2.8139    1.6381   -1.6021 H   0  0  0  0  0  0  0  0  0  0  0  0
   -5.2197    1.1241   -1.3597 H   0  0  0  0  0  0  0  0  0  0  0  0
   -5.9539   -1.1554   -0.6768 H   0  0  0  0  0  0  0  0  0  0  0  0
   -0.5581   -2.4919   -0.5670 H   0  0  0  0  0  0  0  0  0  0  0  0
   -1.3195   -4.7465    0.1126 H   0  0  0  0  0  0  0  0  0  0  0  0
   -3.7259   -5.2277    0.3850 H   0  0  0  0  0  0  0  0  0  0  0  0
   -5.4147   -3.4499   -0.0417 H   0  0  0  0  0  0  0  0  0  0  0  0
  1  2  1  0  0  0  0
  1  5  1  0  0  0  0
  2  3  2  0  0  0  0
  3 24  1  0  0  0  0
  3  4  2  0  0  0  0
  5 25  1  0  0  0  0
  5  4  2  0  0  0  0
  6 14  1  0  0  0  0
  6  1  1  0  0  0  0
  7  6  2  0  0  0  0
  8  7  1  0  0  0  0
  9  8  2  0  0  0  0
 10 11  1  0  0  0  0
 10  8  1  0  0  0  0
 11 29  1  0  0  0  0
 11 27  1  0  0  0  0
 12 31  1  0  0  0  0
 12 10  1  0  0  0  0
 13 10  1  0  0  0  0
 13 35  1  0  0  0  0
 14 19  2  0  0  0  0
 15 16  2  0  0  0  0
 15 14  1  0  0  0  0
 16 17  1  0  0  0  0
 17 38  1  0  0  0  0
 17 18  2  0  0  0  0
 18 23  1  0  0  0  0
 19 18  1  0  0  0  0
 19 20  1  0  0  0  0
 20 21  2  0  0  0  0
 21 22  1  0  0  0  0
 21 40  1  0  0  0  0
 22 41  1  0  0  0  0
 23 42  1  0  0  0  0
 23 22  2  0  0  0  0
 26  7  1  0  0  0  0
 28 11  1  0  0  0  0
 30 12  1  0  0  0  0
 32 12  1  0  0  0  0
 33 13  1  0  0  0  0
 34 13  1  0  0  0  0
 36 15  1  0  0  0  0
 37 16  1  0  0  0  0
 39 20  1  0  0  0  0
M  END
$$$$
