42
rmsd117.gzmat
N          0.00000        0.00000        0.00000
N          1.36850        0.00000        0.00000
C          1.72120        0.00000        1.30340
N          0.60260       -0.00020        2.13840
C         -0.46110       -0.00260        1.32480
C         -0.74370       -0.02010       -1.20970
C         -0.18240        0.25590       -2.39570
C         -0.96980        0.26760       -3.65310
O         -1.72230        1.17780       -3.89290
C         -0.76310       -0.89730       -4.62220
C         -0.78000       -2.22020       -3.85230
C         -1.89430       -0.87770       -5.65420
C          0.59330       -0.69050       -5.30660
C         -2.16540       -0.37350       -1.03880
C         -3.12320        0.58880       -1.25610
C         -4.49570        0.27110       -1.12010
C         -4.87760       -1.00130       -0.78240
C         -3.90540       -2.01740       -0.56770
C         -2.53320       -1.70900       -0.69880
C         -1.57360       -2.74040       -0.50210
C         -1.97180       -4.01020       -0.17450
C         -3.34830       -4.31550       -0.03050
C         -4.29370       -3.34270       -0.22590
H          2.73280        0.00090        1.67380
H         -1.50160       -0.00320        1.60770
H          0.87560        0.50920       -2.50460
H          0.05460       -2.29470       -3.14490
H         -0.70330       -3.07460       -4.53430
H         -1.70900       -2.34480       -3.28130
H         -1.91450        0.07240       -6.20520
H         -2.87460       -0.98080       -5.17190
H         -1.79170       -1.68740       -6.38240
H          0.63830        0.26910       -5.83520
H          0.77940       -1.47680       -6.04760
H          1.42010       -0.71900       -4.58720
H         -2.83730        1.60300       -1.55360
H         -5.23500        1.05240       -1.29340
H         -5.93100       -1.25770       -0.67590
H         -0.51410       -2.51010       -0.61790
H         -1.23870       -4.80140       -0.02040
H         -3.63730       -5.33070        0.23590
H         -5.35400       -3.56730       -0.12300
