rmsd163.gzmat
 OpenBabel08211713383D

 42 44  0  0  0  0  0  0  0  0999 V2000
    0.0000    0.0000    0.0000 N   0  0  0  0  0  0  0  0  0  0  0  0
    1.3681    0.0000    0.0000 N   0  0  0  0  0  0  0  0  0  0  0  0
    1.7204    0.0000    1.3038 C   0  0  0  0  0  0  0  0  0  0  0  0
    0.6019   -0.0002    2.1388 N   0  0  0  0  0  0  0  0  0  0  0  0
   -0.4615    0.0026    1.3249 C   0  0  0  0  0  0  0  0  0  0  0  0
   -0.7474    0.0211   -1.2080 C   0  0  0  0  0  0  0  0  0  0  0  0
   -0.2009   -0.2917   -2.3914 C   0  0  0  0  0  0  0  0  0  0  0  0
   -0.9956   -0.3214   -3.6442 C   0  0  0  0  0  0  0  0  0  0  0  0
   -1.7250   -1.2519   -3.8784 O   0  0  0  0  0  0  0  0  0  0  0  0
   -0.8141    0.8371   -4.6253 C   0  0  0  0  0  0  0  0  0  0  0  0
   -2.0449    0.9075   -5.5338 C   0  0  0  0  0  0  0  0  0  0  0  0
   -0.6526    2.1560   -3.8668 C   0  0  0  0  0  0  0  0  0  0  0  0
    0.4433    0.5276   -5.4481 C   0  0  0  0  0  0  0  0  0  0  0  0
   -2.1574    0.4151   -1.0299 C   0  0  0  0  0  0  0  0  0  0  0  0
   -3.1450   -0.5139   -1.2578 C   0  0  0  0  0  0  0  0  0  0  0  0
   -4.5050   -0.1632   -1.0841 C   0  0  0  0  0  0  0  0  0  0  0  0
   -4.8446    1.1023   -0.6821 C   0  0  0  0  0  0  0  0  0  0  0  0
   -3.8409    2.0849   -0.4565 C   0  0  0  0  0  0  0  0  0  0  0  0
   -2.4822    1.7513   -0.6511 C   0  0  0  0  0  0  0  0  0  0  0  0
   -1.4935    2.7582   -0.4731 C   0  0  0  0  0  0  0  0  0  0  0  0
   -1.8495    4.0231   -0.0833 C   0  0  0  0  0  0  0  0  0  0  0  0
   -3.2102    4.3477    0.1444 C   0  0  0  0  0  0  0  0  0  0  0  0
   -4.1843    3.4018   -0.0419 C   0  0  0  0  0  0  0  0  0  0  0  0
    2.7317   -0.0001    1.6755 H   0  0  0  0  0  0  0  0  0  0  0  0
   -1.5021    0.0055    1.6072 H   0  0  0  0  0  0  0  0  0  0  0  0
    0.8509   -0.5701   -2.5028 H   0  0  0  0  0  0  0  0  0  0  0  0
   -2.2418   -0.0593   -6.0171 H   0  0  0  0  0  0  0  0  0  0  0  0
   -1.9184    1.6552   -6.3231 H   0  0  0  0  0  0  0  0  0  0  0  0
   -2.9478    1.1665   -4.9678 H   0  0  0  0  0  0  0  0  0  0  0  0
    0.2561    2.1697   -3.2532 H   0  0  0  0  0  0  0  0  0  0  0  0
   -1.5042    2.3455   -3.2001 H   0  0  0  0  0  0  0  0  0  0  0  0
   -0.5916    3.0036   -4.5593 H   0  0  0  0  0  0  0  0  0  0  0  0
    1.3393    0.4695   -4.8194 H   0  0  0  0  0  0  0  0  0  0  0  0
    0.6215    1.3075   -6.1977 H   0  0  0  0  0  0  0  0  0  0  0  0
    0.3451   -0.4229   -5.9870 H   0  0  0  0  0  0  0  0  0  0  0  0
   -2.8934   -1.5274   -1.5877 H   0  0  0  0  0  0  0  0  0  0  0  0
   -5.2687   -0.9163   -1.2748 H   0  0  0  0  0  0  0  0  0  0  0  0
   -5.8877    1.3793   -0.5333 H   0  0  0  0  0  0  0  0  0  0  0  0
   -0.4461    2.5137   -0.6544 H   0  0  0  0  0  0  0  0  0  0  0  0
   -1.0932    4.7947    0.0581 H   0  0  0  0  0  0  0  0  0  0  0  0
   -3.4638    5.3565    0.4654 H   0  0  0  0  0  0  0  0  0  0  0  0
   -5.2332    3.6410    0.1257 H   0  0  0  0  0  0  0  0  0  0  0  0
  1  2  1  0  0  0  0
  1  5  1  0  0  0  0
  2  3  2  0  0  0  0
  3 24  1  0  0  0  0
  3  4  2  0  0  0  0
  5 25  1  0  0  0  0
  5  4  2  0  0  0  0
  6 14  1  0  0  0  0
  6  1  1  0  0  0  0
  7  6  2  0  0  0  0
  8  7  1  0  0  0  0
  9  8  2  0  0  0  0
 10 12  1  0  0  0  0
 10  8  1  0  0  0  0
 11 29  1  0  0  0  0
 11 10  1  0  0  0  0
 12 30  1  0  0  0  0
 12 31  1  0  0  0  0
 13 33  1  0  0  0  0
 13 10  1  0  0  0  0
 14 19  2  0  0  0  0
 15 16  2  0  0  0  0
 15 14  1  0  0  0  0
 16 17  1  0  0  0  0
 17 38  1  0  0  0  0
 17 18  2  0  0  0  0
 18 23  1  0  0  0  0
 19 20  1  0  0  0  0
 19 18  1  0  0  0  0
 20 21  2  0  0  0  0
 21 40  1  0  0  0  0
 21 22  1  0  0  0  0
 22 41  1  0  0  0  0
 23 42  1  0  0  0  0
 23 22  2  0  0  0  0
 26  7  1  0  0  0  0
 27 11  1  0  0  0  0
 28 11  1  0  0  0  0
 32 12  1  0  0  0  0
 34 13  1  0  0  0  0
 35 13  1  0  0  0  0
 36 15  1  0  0  0  0
 37 16  1  0  0  0  0
 39 20  1  0  0  0  0
M  END
$$$$
