rmsd117.gzmat
 OpenBabel08211713383D

 42 44  0  0  0  0  0  0  0  0999 V2000
    0.0000    0.0000    0.0000 N   0  0  0  0  0  0  0  0  0  0  0  0
    1.3685    0.0000    0.0000 N   0  0  0  0  0  0  0  0  0  0  0  0
    1.7212    0.0000    1.3034 C   0  0  0  0  0  0  0  0  0  0  0  0
    0.6026   -0.0002    2.1384 N   0  0  0  0  0  0  0  0  0  0  0  0
   -0.4611   -0.0026    1.3248 C   0  0  0  0  0  0  0  0  0  0  0  0
   -0.7437   -0.0201   -1.2097 C   0  0  0  0  0  0  0  0  0  0  0  0
   -0.1824    0.2559   -2.3957 C   0  0  0  0  0  0  0  0  0  0  0  0
   -0.9698    0.2676   -3.6531 C   0  0  0  0  0  0  0  0  0  0  0  0
   -1.7223    1.1778   -3.8929 O   0  0  0  0  0  0  0  0  0  0  0  0
   -0.7631   -0.8973   -4.6222 C   0  0  0  0  0  0  0  0  0  0  0  0
   -0.7800   -2.2202   -3.8523 C   0  0  0  0  0  0  0  0  0  0  0  0
   -1.8943   -0.8777   -5.6542 C   0  0  0  0  0  0  0  0  0  0  0  0
    0.5933   -0.6905   -5.3066 C   0  0  0  0  0  0  0  0  0  0  0  0
   -2.1654   -0.3735   -1.0388 C   0  0  0  0  0  0  0  0  0  0  0  0
   -3.1232    0.5888   -1.2561 C   0  0  0  0  0  0  0  0  0  0  0  0
   -4.4957    0.2711   -1.1201 C   0  0  0  0  0  0  0  0  0  0  0  0
   -4.8776   -1.0013   -0.7824 C   0  0  0  0  0  0  0  0  0  0  0  0
   -3.9054   -2.0174   -0.5677 C   0  0  0  0  0  0  0  0  0  0  0  0
   -2.5332   -1.7090   -0.6988 C   0  0  0  0  0  0  0  0  0  0  0  0
   -1.5736   -2.7404   -0.5021 C   0  0  0  0  0  0  0  0  0  0  0  0
   -1.9718   -4.0102   -0.1745 C   0  0  0  0  0  0  0  0  0  0  0  0
   -3.3483   -4.3155   -0.0305 C   0  0  0  0  0  0  0  0  0  0  0  0
   -4.2937   -3.3427   -0.2259 C   0  0  0  0  0  0  0  0  0  0  0  0
    2.7328    0.0009    1.6738 H   0  0  0  0  0  0  0  0  0  0  0  0
   -1.5016   -0.0032    1.6077 H   0  0  0  0  0  0  0  0  0  0  0  0
    0.8756    0.5092   -2.5046 H   0  0  0  0  0  0  0  0  0  0  0  0
    0.0546   -2.2947   -3.1449 H   0  0  0  0  0  0  0  0  0  0  0  0
   -0.7033   -3.0746   -4.5343 H   0  0  0  0  0  0  0  0  0  0  0  0
   -1.7090   -2.3448   -3.2813 H   0  0  0  0  0  0  0  0  0  0  0  0
   -1.9145    0.0724   -6.2052 H   0  0  0  0  0  0  0  0  0  0  0  0
   -2.8746   -0.9808   -5.1719 H   0  0  0  0  0  0  0  0  0  0  0  0
   -1.7917   -1.6874   -6.3824 H   0  0  0  0  0  0  0  0  0  0  0  0
    0.6383    0.2691   -5.8352 H   0  0  0  0  0  0  0  0  0  0  0  0
    0.7794   -1.4768   -6.0476 H   0  0  0  0  0  0  0  0  0  0  0  0
    1.4201   -0.7190   -4.5872 H   0  0  0  0  0  0  0  0  0  0  0  0
   -2.8373    1.6030   -1.5536 H   0  0  0  0  0  0  0  0  0  0  0  0
   -5.2350    1.0524   -1.2934 H   0  0  0  0  0  0  0  0  0  0  0  0
   -5.9310   -1.2577   -0.6759 H   0  0  0  0  0  0  0  0  0  0  0  0
   -0.5141   -2.5101   -0.6179 H   0  0  0  0  0  0  0  0  0  0  0  0
   -1.2387   -4.8014   -0.0204 H   0  0  0  0  0  0  0  0  0  0  0  0
   -3.6373   -5.3307    0.2359 H   0  0  0  0  0  0  0  0  0  0  0  0
   -5.3540   -3.5673   -0.1230 H   0  0  0  0  0  0  0  0  0  0  0  0
  1  2  1  0  0  0  0
  1  5  1  0  0  0  0
  2  3  2  0  0  0  0
  3 24  1  0  0  0  0
  3  4  2  0  0  0  0
  5 25  1  0  0  0  0
  5  4  2  0  0  0  0
  6 14  1  0  0  0  0
  6  1  1  0  0  0  0
  7  6  2  0  0  0  0
  8  7  1  0  0  0  0
  9  8  2  0  0  0  0
 10 11  1  0  0  0  0
 10  8  1  0  0  0  0
 11 29  1  0  0  0  0
 11 27  1  0  0  0  0
 12 31  1  0  0  0  0
 12 10  1  0  0  0  0
 13 10  1  0  0  0  0
 13 35  1  0  0  0  0
 14 19  2  0  0  0  0
 15 16  2  0  0  0  0
 15 14  1  0  0  0  0
 16 17  1  0  0  0  0
 17 38  1  0  0  0  0
 17 18  2  0  0  0  0
 18 23  1  0  0  0  0
 19 18  1  0  0  0  0
 19 20  1  0  0  0  0
 20 21  2  0  0  0  0
 21 22  1  0  0  0  0
 21 40  1  0  0  0  0
 22 41  1  0  0  0  0
 23 42  1  0  0  0  0
 23 22  2  0  0  0  0
 26  7  1  0  0  0  0
 28 11  1  0  0  0  0
 30 12  1  0  0  0  0
 32 12  1  0  0  0  0
 33 13  1  0  0  0  0
 34 13  1  0  0  0  0
 36 15  1  0  0  0  0
 37 16  1  0  0  0  0
 39 20  1  0  0  0  0
M  END
$$$$
