rmsd121.gzmat
 OpenBabel08211713383D

 42 44  0  0  0  0  0  0  0  0999 V2000
    0.0000    0.0000    0.0000 N   0  0  0  0  0  0  0  0  0  0  0  0
    1.3684    0.0000    0.0000 N   0  0  0  0  0  0  0  0  0  0  0  0
    1.7213    0.0000    1.3034 C   0  0  0  0  0  0  0  0  0  0  0  0
    0.6030   -0.0014    2.1385 N   0  0  0  0  0  0  0  0  0  0  0  0
   -0.4609   -0.0045    1.3251 C   0  0  0  0  0  0  0  0  0  0  0  0
   -0.7416   -0.0228   -1.2110 C   0  0  0  0  0  0  0  0  0  0  0  0
   -0.1787    0.2593   -2.3948 C   0  0  0  0  0  0  0  0  0  0  0  0
   -0.9595    0.2699   -3.6562 C   0  0  0  0  0  0  0  0  0  0  0  0
   -1.6675    1.2062   -3.9280 O   0  0  0  0  0  0  0  0  0  0  0  0
   -0.7933   -0.9242   -4.5963 C   0  0  0  0  0  0  0  0  0  0  0  0
   -2.0378   -1.0234   -5.4823 C   0  0  0  0  0  0  0  0  0  0  0  0
    0.4539   -0.6466   -5.4447 C   0  0  0  0  0  0  0  0  0  0  0  0
   -0.6230   -2.2159   -3.7946 C   0  0  0  0  0  0  0  0  0  0  0  0
   -2.1629   -0.3816   -1.0491 C   0  0  0  0  0  0  0  0  0  0  0  0
   -3.1208    0.5668   -1.3216 C   0  0  0  0  0  0  0  0  0  0  0  0
   -4.4942    0.2471   -1.2056 C   0  0  0  0  0  0  0  0  0  0  0  0
   -4.8780   -1.0109   -0.8203 C   0  0  0  0  0  0  0  0  0  0  0  0
   -3.9057   -2.0103   -0.5391 C   0  0  0  0  0  0  0  0  0  0  0  0
   -2.5322   -1.7039   -0.6631 C   0  0  0  0  0  0  0  0  0  0  0  0
   -1.5747   -2.7246   -0.4089 C   0  0  0  0  0  0  0  0  0  0  0  0
   -1.9749   -3.9761   -0.0190 C   0  0  0  0  0  0  0  0  0  0  0  0
   -3.3524   -4.2757    0.1261 C   0  0  0  0  0  0  0  0  0  0  0  0
   -4.2961   -3.3169   -0.1349 C   0  0  0  0  0  0  0  0  0  0  0  0
    2.7331    0.0008    1.6732 H   0  0  0  0  0  0  0  0  0  0  0  0
   -1.5012   -0.0078    1.6075 H   0  0  0  0  0  0  0  0  0  0  0  0
    0.8788    0.5170   -2.5018 H   0  0  0  0  0  0  0  0  0  0  0  0
   -2.9326   -1.2502   -4.8913 H   0  0  0  0  0  0  0  0  0  0  0  0
   -1.9315   -1.8067   -6.2385 H   0  0  0  0  0  0  0  0  0  0  0  0
   -2.2349   -0.0770   -6.0040 H   0  0  0  0  0  0  0  0  0  0  0  0
    1.3577   -0.5741   -4.8291 H   0  0  0  0  0  0  0  0  0  0  0  0
    0.3557    0.2875   -6.0109 H   0  0  0  0  0  0  0  0  0  0  0  0
    0.6177   -1.4503   -6.1713 H   0  0  0  0  0  0  0  0  0  0  0  0
    0.2969   -2.2113   -3.1977 H   0  0  0  0  0  0  0  0  0  0  0  0
   -0.5768   -3.0878   -4.4569 H   0  0  0  0  0  0  0  0  0  0  0  0
   -1.4632   -2.3779   -3.1071 H   0  0  0  0  0  0  0  0  0  0  0  0
   -2.8342    1.5721   -1.6480 H   0  0  0  0  0  0  0  0  0  0  0  0
   -5.2318    1.0162   -1.4319 H   0  0  0  0  0  0  0  0  0  0  0  0
   -5.9326   -1.2679   -0.7261 H   0  0  0  0  0  0  0  0  0  0  0  0
   -0.5144   -2.5015   -0.5294 H   0  0  0  0  0  0  0  0  0  0  0  0
   -1.2423   -4.7562    0.1858 H   0  0  0  0  0  0  0  0  0  0  0  0
   -3.6430   -5.2749    0.4455 H   0  0  0  0  0  0  0  0  0  0  0  0
   -5.3574   -3.5374   -0.0350 H   0  0  0  0  0  0  0  0  0  0  0  0
  1  2  1  0  0  0  0
  1  5  1  0  0  0  0
  2  3  2  0  0  0  0
  3 24  1  0  0  0  0
  3  4  2  0  0  0  0
  5 25  1  0  0  0  0
  5  4  2  0  0  0  0
  6 14  1  0  0  0  0
  6  1  1  0  0  0  0
  7  6  2  0  0  0  0
  8  7  1  0  0  0  0
  9  8  2  0  0  0  0
 10 13  1  0  0  0  0
 10  8  1  0  0  0  0
 11 27  1  0  0  0  0
 11 10  1  0  0  0  0
 12 30  1  0  0  0  0
 12 10  1  0  0  0  0
 13 33  1  0  0  0  0
 13 35  1  0  0  0  0
 14 19  2  0  0  0  0
 15 16  2  0  0  0  0
 15 14  1  0  0  0  0
 16 17  1  0  0  0  0
 17 38  1  0  0  0  0
 17 18  2  0  0  0  0
 18 23  1  0  0  0  0
 19 18  1  0  0  0  0
 19 20  1  0  0  0  0
 20 21  2  0  0  0  0
 21 22  1  0  0  0  0
 21 40  1  0  0  0  0
 22 41  1  0  0  0  0
 23 42  1  0  0  0  0
 23 22  2  0  0  0  0
 26  7  1  0  0  0  0
 28 11  1  0  0  0  0
 29 11  1  0  0  0  0
 31 12  1  0  0  0  0
 32 12  1  0  0  0  0
 34 13  1  0  0  0  0
 36 15  1  0  0  0  0
 37 16  1  0  0  0  0
 39 20  1  0  0  0  0
M  END
$$$$
