rmsd29.gzmat
 OpenBabel08211713383D

 42 44  0  0  0  0  0  0  0  0999 V2000
    0.0000    0.0000    0.0000 N   0  0  0  0  0  0  0  0  0  0  0  0
    1.3683    0.0000    0.0000 N   0  0  0  0  0  0  0  0  0  0  0  0
    1.7210    0.0000    1.3034 C   0  0  0  0  0  0  0  0  0  0  0  0
    0.6026   -0.0007    2.1386 N   0  0  0  0  0  0  0  0  0  0  0  0
   -0.4609   -0.0049    1.3249 C   0  0  0  0  0  0  0  0  0  0  0  0
   -0.7429   -0.0324   -1.2115 C   0  0  0  0  0  0  0  0  0  0  0  0
   -0.1903    0.3005   -2.3870 C   0  0  0  0  0  0  0  0  0  0  0  0
   -0.9581    0.2823   -3.6550 C   0  0  0  0  0  0  0  0  0  0  0  0
   -1.8635    1.0557   -3.8399 O   0  0  0  0  0  0  0  0  0  0  0  0
   -0.5292   -0.7403   -4.7077 C   0  0  0  0  0  0  0  0  0  0  0  0
   -0.3732   -2.1122   -4.0455 C   0  0  0  0  0  0  0  0  0  0  0  0
   -1.6027   -0.8027   -5.7974 C   0  0  0  0  0  0  0  0  0  0  0  0
    0.8041   -0.2682   -5.2997 C   0  0  0  0  0  0  0  0  0  0  0  0
   -2.1425   -0.4634   -1.0443 C   0  0  0  0  0  0  0  0  0  0  0  0
   -3.1518    0.4420   -1.2734 C   0  0  0  0  0  0  0  0  0  0  0  0
   -4.5046    0.0565   -1.1162 C   0  0  0  0  0  0  0  0  0  0  0  0
   -4.8158   -1.2209   -0.7299 C   0  0  0  0  0  0  0  0  0  0  0  0
   -3.7893   -2.1782   -0.4980 C   0  0  0  0  0  0  0  0  0  0  0  0
   -2.4374   -1.8096   -0.6755 C   0  0  0  0  0  0  0  0  0  0  0  0
   -1.4262   -2.7919   -0.4876 C   0  0  0  0  0  0  0  0  0  0  0  0
   -1.7543   -4.0640   -0.0968 C   0  0  0  0  0  0  0  0  0  0  0  0
   -3.1088   -4.4225    0.1158 C   0  0  0  0  0  0  0  0  0  0  0  0
   -4.1044   -3.5031   -0.0886 C   0  0  0  0  0  0  0  0  0  0  0  0
    2.7326    0.0001    1.6735 H   0  0  0  0  0  0  0  0  0  0  0  0
   -1.5013   -0.0076    1.6069 H   0  0  0  0  0  0  0  0  0  0  0  0
    0.8540    0.6120   -2.4781 H   0  0  0  0  0  0  0  0  0  0  0  0
    0.4355   -2.1204   -3.3044 H   0  0  0  0  0  0  0  0  0  0  0  0
   -0.1395   -2.8833   -4.7890 H   0  0  0  0  0  0  0  0  0  0  0  0
   -1.2935   -2.4208   -3.5336 H   0  0  0  0  0  0  0  0  0  0  0  0
   -1.7498    0.1766   -6.2713 H   0  0  0  0  0  0  0  0  0  0  0  0
   -2.5748   -1.0978   -5.3826 H   0  0  0  0  0  0  0  0  0  0  0  0
   -1.3404   -1.5182   -6.5820 H   0  0  0  0  0  0  0  0  0  0  0  0
    0.7271    0.7473   -5.7054 H   0  0  0  0  0  0  0  0  0  0  0  0
    1.1183   -0.9232   -6.1208 H   0  0  0  0  0  0  0  0  0  0  0  0
    1.6092   -0.2738   -4.5556 H   0  0  0  0  0  0  0  0  0  0  0  0
   -2.9237    1.4639   -1.5940 H   0  0  0  0  0  0  0  0  0  0  0  0
   -5.2845    0.7921   -1.3094 H   0  0  0  0  0  0  0  0  0  0  0  0
   -5.8531   -1.5270   -0.5982 H   0  0  0  0  0  0  0  0  0  0  0  0
   -0.3841   -2.5223   -0.6607 H   0  0  0  0  0  0  0  0  0  0  0  0
   -0.9808   -4.8158    0.0572 H   0  0  0  0  0  0  0  0  0  0  0  0
   -3.3404   -5.4353    0.4402 H   0  0  0  0  0  0  0  0  0  0  0  0
   -5.1494   -3.7685    0.0622 H   0  0  0  0  0  0  0  0  0  0  0  0
  1  2  1  0  0  0  0
  1  5  1  0  0  0  0
  2  3  2  0  0  0  0
  3 24  1  0  0  0  0
  3  4  2  0  0  0  0
  5 25  1  0  0  0  0
  5  4  2  0  0  0  0
  6 14  1  0  0  0  0
  6  1  1  0  0  0  0
  7  6  2  0  0  0  0
  8  7  1  0  0  0  0
  9  8  2  0  0  0  0
 10 11  1  0  0  0  0
 10  8  1  0  0  0  0
 11 29  1  0  0  0  0
 11 27  1  0  0  0  0
 12 31  1  0  0  0  0
 12 10  1  0  0  0  0
 13 10  1  0  0  0  0
 13 35  1  0  0  0  0
 14 19  2  0  0  0  0
 15 16  2  0  0  0  0
 15 14  1  0  0  0  0
 16 17  1  0  0  0  0
 17 38  1  0  0  0  0
 17 18  2  0  0  0  0
 18 23  1  0  0  0  0
 19 18  1  0  0  0  0
 19 20  1  0  0  0  0
 20 21  2  0  0  0  0
 21 40  1  0  0  0  0
 21 22  1  0  0  0  0
 22 41  1  0  0  0  0
 23 42  1  0  0  0  0
 23 22  2  0  0  0  0
 26  7  1  0  0  0  0
 28 11  1  0  0  0  0
 30 12  1  0  0  0  0
 32 12  1  0  0  0  0
 33 13  1  0  0  0  0
 34 13  1  0  0  0  0
 36 15  1  0  0  0  0
 37 16  1  0  0  0  0
 39 20  1  0  0  0  0
M  END
$$$$
