51

C         -0.14910       -0.30520       -0.01170
C          1.37950       -0.12710       -0.00550
C          1.88150       -0.12550        1.44740
C          2.10350       -1.26450       -0.78960
H          3.17340       -1.02000       -0.80810
C          1.91180       -2.64620       -0.14600
O          0.83380       -3.23800       -0.24210
N          2.93610       -3.18050        0.55080
C          4.33370       -2.78100        0.48040
N          1.64880       -1.32860       -2.15990
C          2.25010       -2.17640       -3.04200
O          3.27200       -2.78680       -2.75130
C          1.55860       -2.29110       -4.39460
H          2.23490       -2.90940       -5.00160
C          0.23810       -3.08730       -4.29050
N         -0.72230       -2.59130       -3.30420
C         -1.78440       -1.80980       -3.67690
O         -1.85430       -1.21220       -4.73190
O         -0.96200       -3.42770       -2.22110
C          1.37140       -0.92520       -5.07650
C          2.63190       -0.04940       -5.15330
C          3.81420       -0.77380       -5.80620
C          2.31240        1.26050       -5.88020
C          1.74700        1.21300       -0.66640
H         -0.57320       -0.25230       -1.02740
H         -0.61730        0.50510        0.56820
H         -0.44730       -1.26730        0.42470
H          1.43070        0.71190        2.00150
H          2.97550       -0.00230        1.49260
H          1.61890       -1.05510        1.97410
H          2.72510       -4.10620        0.91270
H          4.51290       -1.81820        0.98330
H          4.66540       -2.71750       -0.56760
H          4.93660       -3.54040        0.99540
H          0.71110       -1.01420       -2.37910
H          0.44530       -4.12660       -4.00260
H         -0.24820       -3.07930       -5.27920
H         -2.55710       -1.78030       -2.87530
H         -0.29030       -3.21600       -1.52370
H          0.56590       -0.36350       -4.57740
H          0.99010       -1.10940       -6.09590
H          2.92540        0.20710       -4.11880
H          3.54760       -1.13120       -6.81600
H          4.14390       -1.63890       -5.21170
H          4.67740       -0.09730       -5.91150
H          2.02720        1.06800       -6.92840
H          3.18250        1.93630       -5.88920
H          1.47390        1.79200       -5.40190
H          1.41420        1.25560       -1.71380
H          2.83650        1.37600       -0.65410
H          1.27250        2.04720       -0.12640
