51
rmsd209.gzmat
C          0.00000        0.00000        0.00000
C          1.53140        0.00000        0.00000
C          2.04760        0.00000        1.44640
C          2.12430       -1.25450       -0.72140
H          3.23030       -1.08360       -0.84660
C          1.84780       -2.53840        0.08120
O          0.71500       -2.89620        0.35450
N          2.89350       -3.33020        0.49100
C          4.28920       -3.09540        0.12930
N          1.52620       -1.45760       -2.03850
C          2.30980       -1.86560       -3.09780
O          3.51770       -1.95560       -2.98370
C          1.56510       -2.14020       -4.39420
H          0.89450       -1.26880       -4.61480
C          2.60550       -2.24290       -5.53010
N          2.04640       -2.07400       -6.87570
C          1.28210       -3.11580       -7.46410
O          1.58920       -4.26550       -7.25440
O          1.29390       -0.87900       -6.92520
C          0.73000       -3.42190       -4.24390
C         -0.74960       -3.20470       -4.61550
C         -1.44350       -4.56710       -4.73390
C         -1.46780       -2.34540       -3.56840
C          2.04440        1.25350       -0.72600
H         -0.41390        0.20480       -0.99180
H         -0.39570        0.76450        0.67780
H         -0.40300       -0.96620        0.34270
H          1.75900        0.92020        1.96670
H          3.13790       -0.07370        1.49480
H          1.62710       -0.83560        2.02190
H          2.68460       -4.18420        0.99020
H          4.69670       -2.22000        0.66440
H          4.40270       -2.92720       -0.96330
H          4.90610       -3.97100        0.39150
H          0.51410       -1.49860       -2.07170
H          3.13080       -3.23020       -5.50260
H          3.39790       -1.46650       -5.39180
H          0.51930       -2.80550       -8.19020
H          1.90020       -0.25100       -7.41760
H          0.79800       -3.83040       -3.21700
H          1.15340       -4.22810       -4.88160
H         -0.80200       -2.68850       -5.60430
H         -1.41900       -5.11440       -3.78400
H         -0.96260       -5.19740       -5.49130
H         -2.49420       -4.45570       -5.02070
H         -1.36770       -2.77300       -2.56260
H         -2.54210       -2.28340       -3.77990
H         -1.08780       -1.32010       -3.55150
H          1.75530        1.24920       -1.78370
H          3.13580        1.32970       -0.68680
H          1.63490        2.16410       -0.27640
