51
rmsd91.gzmat
C          0.00000        0.00000        0.00000
C          1.53130        0.00000        0.00000
C          2.04760        0.00000        1.44580
C          2.12580       -1.24970       -0.71860
H          3.24620       -1.10940       -0.76990
C          1.82850       -2.56800        0.03390
O          0.85580       -2.75180        0.73600
N          2.80030       -3.52860       -0.12570
C          2.61550       -4.85240        0.46690
N          1.61220       -1.38790       -2.08330
C          2.35650       -2.04950       -3.03030
O          3.44630       -2.51800       -2.72970
C          1.79740       -2.09130       -4.44100
H          1.54160       -1.03680       -4.74520
C          2.89490       -2.60080       -5.40160
N          3.83910       -1.49410       -5.63290
C          5.11230       -1.52430       -5.01050
O          6.06440       -1.04050       -5.58040
O          3.89300       -1.32400       -7.03120
C          0.52090       -2.93730       -4.53610
C          0.71200       -4.45910       -4.37180
C          0.96700       -4.84790       -2.91430
C         -0.54740       -5.17470       -4.88090
C          2.04510        1.25810       -0.71970
H         -0.42560        0.14920       -0.99440
H         -0.38980        0.80130        0.63860
H         -0.39870       -0.94430        0.40430
H          1.76800        0.92260        1.96560
H          3.13680       -0.08720        1.49530
H          1.61940       -0.83330        2.02220
H          3.48870       -3.43810       -0.86870
H          2.10110       -5.54080       -0.22600
H          2.00120       -4.78440        1.38730
H          3.59590       -5.27980        0.73690
H          0.67750       -1.05470       -2.25680
H          2.43750       -2.91500       -6.37110
H          3.40060       -3.49800       -4.97830
H          5.12390       -1.86740       -3.96280
H          4.58690       -0.61010       -7.18040
H          0.05310       -2.74350       -5.52550
H         -0.22230       -2.58560       -3.79460
H          1.57960       -4.79400       -4.98900
H          0.19530       -4.45400       -2.24340
H          1.93750       -4.47970       -2.56170
H          0.97650       -5.93660       -2.78980
H         -1.44020       -4.86330       -4.32820
H         -0.45700       -6.26070       -4.76400
H         -0.72540       -4.97640       -5.94270
H          1.73600        1.28340       -1.76970
H          3.13890        1.31960       -0.69730
H          1.65910        2.16570       -0.24290
