51
rmsd78.gzmat
C          0.00000        0.00000        0.00000
C          1.53180        0.00000        0.00000
C          2.04850        0.00000        1.44540
C          2.12600       -1.25020       -0.71950
H          3.24600       -1.11420       -0.76940
C          1.81930       -2.57380        0.02330
O          0.86050       -2.74300        0.74800
N          2.75900       -3.55620       -0.17990
C          2.54470       -4.89180        0.37560
N          1.60690       -1.38680       -2.08300
C          2.32690       -2.06010       -3.03480
O          3.42880       -2.52010       -2.74270
C          1.69350       -2.20110       -4.40670
H          1.17710       -1.24760       -4.68730
C          2.77550       -2.48600       -5.47640
N          3.74110       -1.37390       -5.48970
C          4.09130       -0.78750       -6.73060
O          3.26810       -0.75120       -7.61730
O          4.93060       -1.74220       -4.83120
C          0.69240       -3.36810       -4.39210
C         -0.62990       -3.06270       -3.66120
C         -1.37570       -1.89300       -4.31050
C         -1.51350       -4.31770       -3.68520
C          2.04690        1.25680       -0.72120
H         -0.42710        0.17370       -0.99000
H         -0.39050        0.78490        0.65880
H         -0.39920       -0.95360        0.38140
H          1.78080        0.92800        1.96170
H          3.13690       -0.09950        1.49610
H          1.61090       -0.82670        2.02470
H          3.44570       -3.46450       -0.92350
H          1.98740       -5.53940       -0.32300
H          1.96220       -4.83240        1.31610
H          3.51660       -5.36160        0.60280
H          0.67910       -1.02440       -2.25880
H          2.28790       -2.57720       -6.47810
H          3.28230       -3.45630       -5.26790
H          5.06600       -0.28490       -6.77100
H          4.61140       -2.00720       -3.90530
H          1.16550       -4.25960       -3.93150
H          0.46210       -3.66270       -5.43680
H         -0.41790       -2.81900       -2.59200
H         -1.53450       -2.06520       -5.38220
H         -0.83820       -0.94580       -4.20890
H         -2.36460       -1.75570       -3.85630
H         -1.78820       -4.60130       -4.70660
H         -2.44470       -4.15550       -3.12940
H         -1.01000       -5.17430       -3.22400
H          1.75340        1.27290       -1.77580
H          3.13970        1.32600       -0.68500
H          1.64930        2.16610       -0.25750
