rmsd193.gzmat
 OpenBabel08211713363D

 51 50  0  0  1  0  0  0  0  0999 V2000
    0.0000    0.0000    0.0000 C   0  0  0  0  0  0  0  0  0  0  0  0
    1.5314    0.0000    0.0000 C   0  0  0  0  0  0  0  0  0  0  0  0
    2.0463    0.0000    1.4459 C   0  0  0  0  0  0  0  0  0  0  0  0
    2.1229   -1.2489   -0.7225 C   0  0  1  0  0  0  0  0  0  0  0  0
    3.2439   -1.1115   -0.7683 H   0  0  0  0  0  0  0  0  0  0  0  0
    1.8259   -2.5757    0.0145 C   0  0  0  0  0  0  0  0  0  0  0  0
    0.9025   -2.7456    0.7830 O   0  0  0  0  0  0  0  0  0  0  0  0
    2.7375   -3.5683   -0.2552 N   0  0  0  0  0  0  0  0  0  0  0  0
    2.5593   -4.9018    0.3150 C   0  0  0  0  0  0  0  0  0  0  0  0
    1.6066   -1.3825   -2.0868 N   0  0  0  0  0  0  0  0  0  0  0  0
    2.3882   -1.9417   -3.0666 C   0  0  0  0  0  0  0  0  0  0  0  0
    3.5081   -2.3572   -2.8060 O   0  0  0  0  0  0  0  0  0  0  0  0
    1.7932   -2.0061   -4.4635 C   0  0  1  0  0  0  0  0  0  0  0  0
    1.0292   -1.2016   -4.6064 H   0  0  0  0  0  0  0  0  0  0  0  0
    2.9331   -1.7867   -5.4837 C   0  0  0  0  0  0  0  0  0  0  0  0
    3.4514   -0.4248   -5.2846 N   0  0  0  0  0  0  0  0  0  0  0  0
    4.7324   -0.2399   -4.7156 C   0  0  0  0  0  0  0  0  0  0  0  0
    5.4004    0.7146   -5.0445 O   0  0  0  0  0  0  0  0  0  0  0  0
    3.2368    0.2640   -6.4928 O   0  0  0  0  0  0  0  0  0  0  0  0
    1.1520   -3.3883   -4.6421 C   0  0  0  0  0  0  0  0  0  0  0  0
    0.1398   -3.4162   -5.8033 C   0  0  0  0  0  0  0  0  0  0  0  0
   -0.1610   -4.8726   -6.1772 C   0  0  0  0  0  0  0  0  0  0  0  0
   -1.1561   -2.6969   -5.4127 C   0  0  0  0  0  0  0  0  0  0  0  0
    2.0513    1.2549   -0.7210 C   0  0  0  0  0  0  0  0  0  0  0  0
   -0.4254    0.1451   -0.9956 H   0  0  0  0  0  0  0  0  0  0  0  0
   -0.3908    0.8047    0.6341 H   0  0  0  0  0  0  0  0  0  0  0  0
   -0.3970   -0.9429    0.4090 H   0  0  0  0  0  0  0  0  0  0  0  0
    1.7584    0.9191    1.9679 H   0  0  0  0  0  0  0  0  0  0  0  0
    3.1361   -0.0807    1.4977 H   0  0  0  0  0  0  0  0  0  0  0  0
    1.6222   -0.8372    2.0201 H   0  0  0  0  0  0  0  0  0  0  0  0
    3.4116   -3.4613   -1.0071 H   0  0  0  0  0  0  0  0  0  0  0  0
    2.0137   -5.5670   -0.3760 H   0  0  0  0  0  0  0  0  0  0  0  0
    1.9784   -4.8489    1.2576 H   0  0  0  0  0  0  0  0  0  0  0  0
    3.5421   -5.3475    0.5422 H   0  0  0  0  0  0  0  0  0  0  0  0
    0.6645   -1.0645   -2.2539 H   0  0  0  0  0  0  0  0  0  0  0  0
    2.5426   -1.9057   -6.5226 H   0  0  0  0  0  0  0  0  0  0  0  0
    3.7271   -2.5556   -5.3474 H   0  0  0  0  0  0  0  0  0  0  0  0
    4.9806   -0.9177   -3.8819 H   0  0  0  0  0  0  0  0  0  0  0  0
    3.6962    1.1532   -6.3738 H   0  0  0  0  0  0  0  0  0  0  0  0
    0.6437   -3.7007   -3.7079 H   0  0  0  0  0  0  0  0  0  0  0  0
    1.9399   -4.1508   -4.8043 H   0  0  0  0  0  0  0  0  0  0  0  0
    0.5822   -2.9038   -6.6918 H   0  0  0  0  0  0  0  0  0  0  0  0
   -0.5696   -5.4305   -5.3275 H   0  0  0  0  0  0  0  0  0  0  0  0
    0.7395   -5.3958   -6.5164 H   0  0  0  0  0  0  0  0  0  0  0  0
   -0.8966   -4.9321   -6.9866 H   0  0  0  0  0  0  0  0  0  0  0  0
   -1.6124   -3.1405   -4.5210 H   0  0  0  0  0  0  0  0  0  0  0  0
   -1.8970   -2.7557   -6.2182 H   0  0  0  0  0  0  0  0  0  0  0  0
   -0.9855   -1.6348   -5.2101 H   0  0  0  0  0  0  0  0  0  0  0  0
    1.7221    1.2930   -1.7648 H   0  0  0  0  0  0  0  0  0  0  0  0
    3.1465    1.2976   -0.7216 H   0  0  0  0  0  0  0  0  0  0  0  0
    1.6918    2.1662   -0.2312 H   0  0  0  0  0  0  0  0  0  0  0  0
  1  2  1  0  0  0  0
  1 27  1  0  0  0  0
  1 26  1  0  0  0  0
  2  3  1  0  0  0  0
  3 29  1  0  0  0  0
  3 28  1  0  0  0  0
  3 30  1  0  0  0  0
  4  5  1  6  0  0  0
  4  2  1  0  0  0  0
  4  6  1  0  0  0  0
  6  7  2  0  0  0  0
  8  6  1  0  0  0  0
  8  9  1  0  0  0  0
  9 34  1  0  0  0  0
  9 33  1  0  0  0  0
 10  4  1  0  0  0  0
 11 12  2  0  0  0  0
 11 10  1  0  0  0  0
 13 14  1  6  0  0  0
 13 11  1  0  0  0  0
 15 37  1  0  0  0  0
 15 16  1  0  0  0  0
 15 13  1  0  0  0  0
 16 17  1  0  0  0  0
 17 38  1  0  0  0  0
 18 17  2  0  0  0  0
 19 39  1  0  0  0  0
 19 16  1  0  0  0  0
 20 13  1  0  0  0  0
 20 40  1  0  0  0  0
 21 23  1  0  0  0  0
 21 20  1  0  0  0  0
 22 21  1  0  0  0  0
 22 43  1  0  0  0  0
 23 48  1  0  0  0  0
 23 46  1  0  0  0  0
 24 51  1  0  0  0  0
 24  2  1  0  0  0  0
 25  1  1  0  0  0  0
 31  8  1  0  0  0  0
 32  9  1  0  0  0  0
 35 10  1  0  0  0  0
 36 15  1  0  0  0  0
 41 20  1  0  0  0  0
 42 21  1  0  0  0  0
 44 22  1  0  0  0  0
 45 22  1  0  0  0  0
 47 23  1  0  0  0  0
 49 24  1  0  0  0  0
 50 24  1  0  0  0  0
M  END
$$$$
