51
rmsd216.gzmat
C          0.00000        0.00000        0.00000
C          1.53140        0.00000        0.00000
C          2.05080        0.00000        1.44430
C          2.12680       -1.24870       -0.72060
H          3.24720       -1.11240       -0.76510
C          1.82110       -2.57350        0.02030
O          0.86480       -2.74220        0.74810
N          2.76320       -3.55000       -0.18960
C          2.58690       -4.88560        0.37890
N          1.61090       -1.37930       -2.08660
C          2.34580       -2.01600       -3.04710
O          3.43100       -2.51300       -2.74280
C          1.82250       -2.11270       -4.46960
H          2.68910       -1.84580       -5.14460
C          1.43550       -3.58720       -4.74760
N          2.63930       -4.30970       -5.18910
C          2.51560       -5.32450       -6.16710
O          1.63880       -5.23830       -6.99740
O          3.35100       -4.83370       -4.09660
C          0.65370       -1.18070       -4.79740
C          1.06670        0.30610       -4.76210
C          1.81000        0.68880       -6.04590
C         -0.17790        1.18420       -4.59090
C          2.03960        1.26200       -0.71810
H         -0.42570        0.13270       -0.99690
H         -0.39010        0.81140        0.62580
H         -0.39840       -0.93910        0.41750
H          1.74490        0.90810        1.97510
H          3.14260       -0.05670        1.49090
H          1.64860       -0.85110        2.01410
H          3.45560       -3.44680       -0.92510
H          2.50240       -5.64670       -0.41490
H          1.67220       -4.93700        1.00180
H          3.44880       -5.13350        1.02320
H          0.69040       -1.00000       -2.26440
H          0.67450       -3.63620       -5.56710
H          0.97030       -4.05640       -3.85380
H          3.31250       -6.07890       -6.18270
H          3.62340       -4.00940       -3.56940
H         -0.20320       -1.36700       -4.12450
H          0.26740       -1.41960       -5.81190
H          1.74970        0.48590       -3.89630
H          1.18110        0.56010       -6.93380
H          2.70960        0.07910       -6.18980
H          2.12900        1.73690       -6.02240
H         -0.89550        1.02890       -5.40470
H          0.08580        2.24810       -4.59410
H         -0.69560        0.98170       -3.64800
H          1.71430        1.29880       -1.76250
H          3.13320        1.32070       -0.71000
H          1.66170        2.16690       -0.22840
