
     RDKit          3D

 51 50  0  0  0  0  0  0  0  0999 V2000
    0.0340    0.0404    0.0759 C   0  0  0  0  0  0  0  0  0  0  0  0
    1.5701   -0.0268    0.0838 C   0  0  0  0  0  0  0  0  0  0  0  0
    2.0649   -0.2344    1.5244 C   0  0  0  0  0  0  0  0  0  0  0  0
    2.1053   -1.1922   -0.7992 C   0  0  1  0  0  0  0  0  0  0  0  0
    3.1932   -1.0863   -0.8598 H   0  0  0  0  0  0  0  0  0  0  0  0
    1.7337   -2.5826   -0.2567 C   0  0  0  0  0  0  0  0  0  0  0  0
    0.5769   -2.9864   -0.3169 O   0  0  0  0  0  0  0  0  0  0  0  0
    2.7320   -3.3432    0.2607 N   0  0  0  0  0  0  0  0  0  0  0  0
    4.1633   -3.0935    0.1869 C   0  0  0  0  0  0  0  0  0  0  0  0
    1.6235   -1.1227   -2.1672 N   0  0  0  0  0  0  0  0  0  0  0  0
    2.3716   -1.6541   -3.1839 C   0  0  0  0  0  0  0  0  0  0  0  0
    3.5652   -1.8983   -3.0749 O   0  0  0  0  0  0  0  0  0  0  0  0
    1.5735   -1.9662   -4.4412 C   0  0  1  0  0  0  0  0  0  0  0  0
    0.8742   -1.1336   -4.6163 H   0  0  0  0  0  0  0  0  0  0  0  0
    2.5058   -2.0546   -5.6519 C   0  0  0  0  0  0  0  0  0  0  0  0
    1.7869   -2.2898   -6.8892 N   0  0  0  0  0  0  0  0  0  0  0  0
    1.6401   -3.5146   -7.4821 C   0  0  0  0  0  0  0  0  0  0  0  0
    2.2474   -4.5143   -7.1637 O   0  0  0  0  0  0  0  0  0  0  0  0
    0.8258   -1.3371   -7.2211 O   0  0  0  0  0  0  0  0  0  0  0  0
    0.7586   -3.2740   -4.2229 C   0  0  0  0  0  0  0  0  0  0  0  0
   -0.7425   -3.1514   -4.5305 C   0  0  0  0  0  0  0  0  0  0  0  0
   -1.3915   -4.5382   -4.5341 C   0  0  0  0  0  0  0  0  0  0  0  0
   -1.4491   -2.2226   -3.5350 C   0  0  0  0  0  0  0  0  0  0  0  0
    2.1455    1.2860   -0.4706 C   0  0  0  0  0  0  0  0  0  0  0  0
   -0.3550    0.2569   -0.9321 H   0  0  0  0  0  0  0  0  0  0  0  0
   -0.3073    0.8551    0.7340 H   0  0  0  0  0  0  0  0  0  0  0  0
   -0.4116   -0.9032    0.4172 H   0  0  0  0  0  0  0  0  0  0  0  0
    1.7677    0.6175    2.1555 H   0  0  0  0  0  0  0  0  0  0  0  0
    3.1639   -0.3094    1.5634 H   0  0  0  0  0  0  0  0  0  0  0  0
    1.6429   -1.1461    1.9739 H   0  0  0  0  0  0  0  0  0  0  0  0
    2.4184   -4.2576    0.5722 H   0  0  0  0  0  0  0  0  0  0  0  0
    4.4828   -2.2924    0.8740 H   0  0  0  0  0  0  0  0  0  0  0  0
    4.4693   -2.8304   -0.8377 H   0  0  0  0  0  0  0  0  0  0  0  0
    4.6912   -4.0113    0.4790 H   0  0  0  0  0  0  0  0  0  0  0  0
    0.6161   -1.1845   -2.2710 H   0  0  0  0  0  0  0  0  0  0  0  0
    3.2085   -2.8897   -5.5372 H   0  0  0  0  0  0  0  0  0  0  0  0
    3.1014   -1.1321   -5.7499 H   0  0  0  0  0  0  0  0  0  0  0  0
    0.8992   -3.4606   -8.3138 H   0  0  0  0  0  0  0  0  0  0  0  0
    1.2876   -0.6868   -7.7743 H   0  0  0  0  0  0  0  0  0  0  0  0
    0.8634   -3.6170   -3.1793 H   0  0  0  0  0  0  0  0  0  0  0  0
    1.1978   -4.0697   -4.8427 H   0  0  0  0  0  0  0  0  0  0  0  0
   -0.8470   -2.7163   -5.5414 H   0  0  0  0  0  0  0  0  0  0  0  0
   -1.2996   -5.0138   -3.5429 H   0  0  0  0  0  0  0  0  0  0  0  0
   -0.9104   -5.2016   -5.2703 H   0  0  0  0  0  0  0  0  0  0  0  0
   -2.4642   -4.4788   -4.7780 H   0  0  0  0  0  0  0  0  0  0  0  0
   -1.3023   -2.5755   -2.4999 H   0  0  0  0  0  0  0  0  0  0  0  0
   -2.5321   -2.1784   -3.7297 H   0  0  0  0  0  0  0  0  0  0  0  0
   -1.0764   -1.1863   -3.6011 H   0  0  0  0  0  0  0  0  0  0  0  0
    1.8536    1.4297   -1.5213 H   0  0  0  0  0  0  0  0  0  0  0  0
    3.2464    1.2903   -0.4225 H   0  0  0  0  0  0  0  0  0  0  0  0
    1.7761    2.1454    0.1109 H   0  0  0  0  0  0  0  0  0  0  0  0
  2  1  1  0
  1 25  1  0
  1 26  1  0
  1 27  1  0
  2  3  1  0
  2  4  1  0
  2 24  1  0
  3 28  1  0
  3 29  1  0
  3 30  1  0
  4  5  1  6
  4  6  1  0
  4 10  1  0
  6  7  2  0
  6  8  1  0
  8  9  1  0
  8 31  1  0
  9 32  1  0
  9 33  1  0
  9 34  1  0
 10 11  1  0
 10 35  1  0
 11 12  2  0
 11 13  1  0
 13 14  1  6
 13 15  1  0
 13 20  1  0
 15 16  1  0
 15 36  1  0
 15 37  1  0
 16 17  1  0
 16 19  1  0
 17 18  2  0
 17 38  1  0
 19 39  1  0
 20 21  1  0
 20 40  1  0
 20 41  1  0
 21 22  1  0
 21 23  1  0
 21 42  1  0
 22 43  1  0
 22 44  1  0
 22 45  1  0
 23 46  1  0
 23 47  1  0
 23 48  1  0
 24 49  1  0
 24 50  1  0
 24 51  1  0
M  END

