
     RDKit          3D

 51 50  0  0  0  0  0  0  0  0999 V2000
    0.1440    0.3384   -0.0823 C   0  0  0  0  0  0  0  0  0  0  0  0
    1.6573    0.0911   -0.1796 C   0  0  0  0  0  0  0  0  0  0  0  0
    2.3133    0.3689    1.1813 C   0  0  0  0  0  0  0  0  0  0  0  0
    1.9671   -1.3861   -0.6128 C   0  0  1  0  0  0  0  0  0  0  0  0
    3.0563   -1.4827   -0.6978 H   0  0  0  0  0  0  0  0  0  0  0  0
    1.3818   -2.4311    0.3429 C   0  0  0  0  0  0  0  0  0  0  0  0
    0.1992   -2.7391    0.2674 O   0  0  0  0  0  0  0  0  0  0  0  0
    2.2113   -2.9963    1.2612 N   0  0  0  0  0  0  0  0  0  0  0  0
    3.6582   -2.8974    1.3351 C   0  0  0  0  0  0  0  0  0  0  0  0
    1.4352   -1.6882   -1.9251 N   0  0  0  0  0  0  0  0  0  0  0  0
    2.2061   -1.7303   -3.0371 C   0  0  0  0  0  0  0  0  0  0  0  0
    3.4194   -1.5441   -3.0114 O   0  0  0  0  0  0  0  0  0  0  0  0
    1.4389   -1.9810   -4.3356 C   0  0  1  0  0  0  0  0  0  0  0  0
    0.4760   -1.4580   -4.2317 H   0  0  0  0  0  0  0  0  0  0  0  0
    2.1795   -1.3074   -5.4971 C   0  0  0  0  0  0  0  0  0  0  0  0
    2.3348    0.1126   -5.3037 N   0  0  0  0  0  0  0  0  0  0  0  0
    3.4378    0.7612   -4.8608 C   0  0  0  0  0  0  0  0  0  0  0  0
    3.3659    1.9075   -4.4345 O   0  0  0  0  0  0  0  0  0  0  0  0
    1.1420    0.7981   -5.0774 O   0  0  0  0  0  0  0  0  0  0  0  0
    1.1008   -3.4622   -4.6123 C   0  0  0  0  0  0  0  0  0  0  0  0
    2.2394   -4.4270   -4.9912 C   0  0  0  0  0  0  0  0  0  0  0  0
    3.2365   -4.6687   -3.8521 C   0  0  0  0  0  0  0  0  0  0  0  0
    1.6366   -5.7532   -5.4703 C   0  0  0  0  0  0  0  0  0  0  0  0
    2.2571    1.0369   -1.2334 C   0  0  0  0  0  0  0  0  0  0  0  0
   -0.3513    0.1554   -1.0483 H   0  0  0  0  0  0  0  0  0  0  0  0
   -0.0426    1.3900    0.1871 H   0  0  0  0  0  0  0  0  0  0  0  0
   -0.3346   -0.3053    0.6683 H   0  0  0  0  0  0  0  0  0  0  0  0
    2.1015    1.4015    1.4987 H   0  0  0  0  0  0  0  0  0  0  0  0
    3.4085    0.2622    1.1246 H   0  0  0  0  0  0  0  0  0  0  0  0
    1.9370   -0.3052    1.9664 H   0  0  0  0  0  0  0  0  0  0  0  0
    1.7474   -3.6876    1.8427 H   0  0  0  0  0  0  0  0  0  0  0  0
    3.9928   -1.8774    1.5743 H   0  0  0  0  0  0  0  0  0  0  0  0
    4.1476   -3.2133    0.3988 H   0  0  0  0  0  0  0  0  0  0  0  0
    4.0102   -3.5585    2.1383 H   0  0  0  0  0  0  0  0  0  0  0  0
    0.4469   -1.9130   -1.9682 H   0  0  0  0  0  0  0  0  0  0  0  0
    1.6364   -1.4916   -6.4390 H   0  0  0  0  0  0  0  0  0  0  0  0
    3.1947   -1.7140   -5.5976 H   0  0  0  0  0  0  0  0  0  0  0  0
    4.3677    0.1673   -4.9433 H   0  0  0  0  0  0  0  0  0  0  0  0
    1.4967    1.6466   -4.7194 H   0  0  0  0  0  0  0  0  0  0  0  0
    0.3601   -3.4689   -5.4303 H   0  0  0  0  0  0  0  0  0  0  0  0
    0.5738   -3.8697   -3.7312 H   0  0  0  0  0  0  0  0  0  0  0  0
    2.7929   -3.9904   -5.8429 H   0  0  0  0  0  0  0  0  0  0  0  0
    2.7118   -5.0292   -2.9501 H   0  0  0  0  0  0  0  0  0  0  0  0
    3.7849   -3.7575   -3.5822 H   0  0  0  0  0  0  0  0  0  0  0  0
    3.9707   -5.4387   -4.1382 H   0  0  0  0  0  0  0  0  0  0  0  0
    1.0628   -6.2355   -4.6604 H   0  0  0  0  0  0  0  0  0  0  0  0
    2.4232   -6.4569   -5.7849 H   0  0  0  0  0  0  0  0  0  0  0  0
    0.9528   -5.6065   -6.3218 H   0  0  0  0  0  0  0  0  0  0  0  0
    1.7789    0.9120   -2.2144 H   0  0  0  0  0  0  0  0  0  0  0  0
    3.3347    0.8673   -1.3720 H   0  0  0  0  0  0  0  0  0  0  0  0
    2.1107    2.0843   -0.9266 H   0  0  0  0  0  0  0  0  0  0  0  0
  2  1  1  0
  1 25  1  0
  1 26  1  0
  1 27  1  0
  2  3  1  0
  2  4  1  0
  2 24  1  0
  3 28  1  0
  3 29  1  0
  3 30  1  0
  4  5  1  6
  4  6  1  0
  4 10  1  0
  6  7  2  0
  6  8  1  0
  8  9  1  0
  8 31  1  0
  9 32  1  0
  9 33  1  0
  9 34  1  0
 10 11  1  0
 10 35  1  0
 11 12  2  0
 11 13  1  0
 13 14  1  1
 13 15  1  0
 13 20  1  0
 15 16  1  0
 15 36  1  0
 15 37  1  0
 16 17  1  0
 16 19  1  0
 17 18  2  0
 17 38  1  0
 19 39  1  0
 20 21  1  0
 20 40  1  0
 20 41  1  0
 21 22  1  0
 21 23  1  0
 21 42  1  0
 22 43  1  0
 22 44  1  0
 22 45  1  0
 23 46  1  0
 23 47  1  0
 23 48  1  0
 24 49  1  0
 24 50  1  0
 24 51  1  0
M  END

