
     RDKit          3D

 51 50  0  0  0  0  0  0  0  0999 V2000
    0.1167    0.0977   -0.0436 C   0  0  0  0  0  0  0  0  0  0  0  0
    1.6524    0.0039    0.0161 C   0  0  0  0  0  0  0  0  0  0  0  0
    2.1126   -0.0368    1.4829 C   0  0  0  0  0  0  0  0  0  0  0  0
    2.1818   -1.2649   -0.6971 C   0  0  1  0  0  0  0  0  0  0  0  0
    3.2771   -1.1885   -0.7541 H   0  0  0  0  0  0  0  0  0  0  0  0
    1.8408   -2.6181   -0.0234 C   0  0  0  0  0  0  0  0  0  0  0  0
    0.8495   -2.7994    0.6679 O   0  0  0  0  0  0  0  0  0  0  0  0
    2.7289   -3.5912   -0.3521 N   0  0  0  0  0  0  0  0  0  0  0  0
    2.5105   -4.9936   -0.0611 C   0  0  0  0  0  0  0  0  0  0  0  0
    1.7154   -1.3461   -2.0803 N   0  0  0  0  0  0  0  0  0  0  0  0
    2.4303   -1.9099   -3.0719 C   0  0  0  0  0  0  0  0  0  0  0  0
    3.5857   -2.3229   -2.8898 O   0  0  0  0  0  0  0  0  0  0  0  0
    1.7317   -2.1069   -4.4148 C   0  0  1  0  0  0  0  0  0  0  0  0
    2.5114   -1.9427   -5.1729 H   0  0  0  0  0  0  0  0  0  0  0  0
    1.3034   -3.5921   -4.5490 C   0  0  0  0  0  0  0  0  0  0  0  0
    2.4020   -4.5145   -4.6939 N   0  0  0  0  0  0  0  0  0  0  0  0
    2.7140   -5.1335   -5.8682 C   0  0  0  0  0  0  0  0  0  0  0  0
    2.1250   -4.9509   -6.9150 O   0  0  0  0  0  0  0  0  0  0  0  0
    3.1166   -4.8700   -3.5621 O   0  0  0  0  0  0  0  0  0  0  0  0
    0.5458   -1.1750   -4.6916 C   0  0  0  0  0  0  0  0  0  0  0  0
    0.8625    0.3305   -4.7566 C   0  0  0  0  0  0  0  0  0  0  0  0
    1.8297    0.6636   -5.8969 C   0  0  0  0  0  0  0  0  0  0  0  0
   -0.4350    1.1347   -4.8814 C   0  0  0  0  0  0  0  0  0  0  0  0
    2.2689    1.2340   -0.6723 C   0  0  0  0  0  0  0  0  0  0  0  0
   -0.2471    0.2392   -1.0767 H   0  0  0  0  0  0  0  0  0  0  0  0
   -0.2264    0.9754    0.5259 H   0  0  0  0  0  0  0  0  0  0  0  0
   -0.3455   -0.8039    0.3776 H   0  0  0  0  0  0  0  0  0  0  0  0
    1.8521    0.9070    1.9866 H   0  0  0  0  0  0  0  0  0  0  0  0
    3.2063   -0.1598    1.5504 H   0  0  0  0  0  0  0  0  0  0  0  0
    1.6349   -0.8628    2.0261 H   0  0  0  0  0  0  0  0  0  0  0  0
    3.4520   -3.3398   -1.0206 H   0  0  0  0  0  0  0  0  0  0  0  0
    2.4534   -5.5710   -0.9978 H   0  0  0  0  0  0  0  0  0  0  0  0
    1.5642   -5.0852    0.4875 H   0  0  0  0  0  0  0  0  0  0  0  0
    3.3214   -5.4058    0.5619 H   0  0  0  0  0  0  0  0  0  0  0  0
    0.7486   -1.1024   -2.2572 H   0  0  0  0  0  0  0  0  0  0  0  0
    0.7080   -3.7000   -5.4666 H   0  0  0  0  0  0  0  0  0  0  0  0
    0.6870   -3.8971   -3.6858 H   0  0  0  0  0  0  0  0  0  0  0  0
    3.5744   -5.8278   -5.7323 H   0  0  0  0  0  0  0  0  0  0  0  0
    3.6242   -4.0551   -3.3454 H   0  0  0  0  0  0  0  0  0  0  0  0
   -0.2538   -1.3553   -3.9480 H   0  0  0  0  0  0  0  0  0  0  0  0
    0.1013   -1.4771   -5.6554 H   0  0  0  0  0  0  0  0  0  0  0  0
    1.3478    0.6246   -3.8097 H   0  0  0  0  0  0  0  0  0  0  0  0
    1.4086    0.3603   -6.8704 H   0  0  0  0  0  0  0  0  0  0  0  0
    2.8016    0.1605   -5.7800 H   0  0  0  0  0  0  0  0  0  0  0  0
    2.0246    1.7465   -5.9396 H   0  0  0  0  0  0  0  0  0  0  0  0
   -0.9714    0.8748   -5.8097 H   0  0  0  0  0  0  0  0  0  0  0  0
   -0.2327    2.2168   -4.9044 H   0  0  0  0  0  0  0  0  0  0  0  0
   -1.1157    0.9373   -4.0371 H   0  0  0  0  0  0  0  0  0  0  0  0
    1.9929    1.2855   -1.7368 H   0  0  0  0  0  0  0  0  0  0  0  0
    3.3688    1.2180   -0.6106 H   0  0  0  0  0  0  0  0  0  0  0  0
    1.9157    2.1586   -0.1899 H   0  0  0  0  0  0  0  0  0  0  0  0
  2  1  1  0
  1 25  1  0
  1 26  1  0
  1 27  1  0
  2  3  1  0
  2  4  1  0
  2 24  1  0
  3 28  1  0
  3 29  1  0
  3 30  1  0
  4  5  1  6
  4  6  1  0
  4 10  1  0
  6  7  2  0
  6  8  1  0
  8  9  1  0
  8 31  1  0
  9 32  1  0
  9 33  1  0
  9 34  1  0
 10 11  1  0
 10 35  1  0
 11 12  2  0
 11 13  1  0
 13 14  1  6
 13 15  1  0
 13 20  1  0
 15 16  1  0
 15 36  1  0
 15 37  1  0
 16 17  1  0
 16 19  1  0
 17 18  2  0
 17 38  1  0
 19 39  1  0
 20 21  1  0
 20 40  1  0
 20 41  1  0
 21 22  1  0
 21 23  1  0
 21 42  1  0
 22 43  1  0
 22 44  1  0
 22 45  1  0
 23 46  1  0
 23 47  1  0
 23 48  1  0
 24 49  1  0
 24 50  1  0
 24 51  1  0
M  END

