rmsd78.gzmat
 OpenBabel08211713363D

 51 50  0  0  1  0  0  0  0  0999 V2000
    0.0000    0.0000    0.0000 C   0  0  0  0  0  0  0  0  0  0  0  0
    1.5318    0.0000    0.0000 C   0  0  0  0  0  0  0  0  0  0  0  0
    2.0485    0.0000    1.4454 C   0  0  0  0  0  0  0  0  0  0  0  0
    2.1260   -1.2502   -0.7195 C   0  0  1  0  0  0  0  0  0  0  0  0
    3.2460   -1.1142   -0.7694 H   0  0  0  0  0  0  0  0  0  0  0  0
    1.8193   -2.5738    0.0233 C   0  0  0  0  0  0  0  0  0  0  0  0
    0.8605   -2.7430    0.7480 O   0  0  0  0  0  0  0  0  0  0  0  0
    2.7590   -3.5562   -0.1799 N   0  0  0  0  0  0  0  0  0  0  0  0
    2.5447   -4.8918    0.3756 C   0  0  0  0  0  0  0  0  0  0  0  0
    1.6069   -1.3868   -2.0830 N   0  0  0  0  0  0  0  0  0  0  0  0
    2.3269   -2.0601   -3.0348 C   0  0  0  0  0  0  0  0  0  0  0  0
    3.4288   -2.5201   -2.7427 O   0  0  0  0  0  0  0  0  0  0  0  0
    1.6935   -2.2011   -4.4067 C   0  0  1  0  0  0  0  0  0  0  0  0
    1.1771   -1.2476   -4.6873 H   0  0  0  0  0  0  0  0  0  0  0  0
    2.7755   -2.4860   -5.4764 C   0  0  0  0  0  0  0  0  0  0  0  0
    3.7411   -1.3739   -5.4897 N   0  0  0  0  0  0  0  0  0  0  0  0
    4.0913   -0.7875   -6.7306 C   0  0  0  0  0  0  0  0  0  0  0  0
    3.2681   -0.7512   -7.6173 O   0  0  0  0  0  0  0  0  0  0  0  0
    4.9306   -1.7422   -4.8312 O   0  0  0  0  0  0  0  0  0  0  0  0
    0.6924   -3.3681   -4.3921 C   0  0  0  0  0  0  0  0  0  0  0  0
   -0.6299   -3.0627   -3.6612 C   0  0  0  0  0  0  0  0  0  0  0  0
   -1.3757   -1.8930   -4.3105 C   0  0  0  0  0  0  0  0  0  0  0  0
   -1.5135   -4.3177   -3.6852 C   0  0  0  0  0  0  0  0  0  0  0  0
    2.0469    1.2568   -0.7212 C   0  0  0  0  0  0  0  0  0  0  0  0
   -0.4271    0.1737   -0.9900 H   0  0  0  0  0  0  0  0  0  0  0  0
   -0.3905    0.7849    0.6588 H   0  0  0  0  0  0  0  0  0  0  0  0
   -0.3992   -0.9536    0.3814 H   0  0  0  0  0  0  0  0  0  0  0  0
    1.7808    0.9280    1.9617 H   0  0  0  0  0  0  0  0  0  0  0  0
    3.1369   -0.0995    1.4961 H   0  0  0  0  0  0  0  0  0  0  0  0
    1.6109   -0.8267    2.0247 H   0  0  0  0  0  0  0  0  0  0  0  0
    3.4457   -3.4645   -0.9235 H   0  0  0  0  0  0  0  0  0  0  0  0
    1.9874   -5.5394   -0.3230 H   0  0  0  0  0  0  0  0  0  0  0  0
    1.9622   -4.8324    1.3161 H   0  0  0  0  0  0  0  0  0  0  0  0
    3.5166   -5.3616    0.6028 H   0  0  0  0  0  0  0  0  0  0  0  0
    0.6791   -1.0244   -2.2588 H   0  0  0  0  0  0  0  0  0  0  0  0
    2.2879   -2.5772   -6.4781 H   0  0  0  0  0  0  0  0  0  0  0  0
    3.2823   -3.4563   -5.2679 H   0  0  0  0  0  0  0  0  0  0  0  0
    5.0660   -0.2849   -6.7710 H   0  0  0  0  0  0  0  0  0  0  0  0
    4.6114   -2.0072   -3.9053 H   0  0  0  0  0  0  0  0  0  0  0  0
    1.1655   -4.2596   -3.9315 H   0  0  0  0  0  0  0  0  0  0  0  0
    0.4621   -3.6627   -5.4368 H   0  0  0  0  0  0  0  0  0  0  0  0
   -0.4179   -2.8190   -2.5920 H   0  0  0  0  0  0  0  0  0  0  0  0
   -1.5345   -2.0652   -5.3822 H   0  0  0  0  0  0  0  0  0  0  0  0
   -0.8382   -0.9458   -4.2089 H   0  0  0  0  0  0  0  0  0  0  0  0
   -2.3646   -1.7557   -3.8563 H   0  0  0  0  0  0  0  0  0  0  0  0
   -1.7882   -4.6013   -4.7066 H   0  0  0  0  0  0  0  0  0  0  0  0
   -2.4447   -4.1555   -3.1294 H   0  0  0  0  0  0  0  0  0  0  0  0
   -1.0100   -5.1743   -3.2240 H   0  0  0  0  0  0  0  0  0  0  0  0
    1.7534    1.2729   -1.7758 H   0  0  0  0  0  0  0  0  0  0  0  0
    3.1397    1.3260   -0.6850 H   0  0  0  0  0  0  0  0  0  0  0  0
    1.6493    2.1661   -0.2575 H   0  0  0  0  0  0  0  0  0  0  0  0
  1  2  1  0  0  0  0
  1 27  1  0  0  0  0
  1 26  1  0  0  0  0
  2  3  1  0  0  0  0
  3 29  1  0  0  0  0
  3 28  1  0  0  0  0
  3 30  1  0  0  0  0
  4  5  1  6  0  0  0
  4  2  1  0  0  0  0
  4  6  1  0  0  0  0
  6  7  2  0  0  0  0
  8  6  1  0  0  0  0
  8  9  1  0  0  0  0
  9 34  1  0  0  0  0
  9 33  1  0  0  0  0
 10  4  1  0  0  0  0
 11 12  2  0  0  0  0
 11 10  1  0  0  0  0
 13 14  1  6  0  0  0
 13 20  1  0  0  0  0
 13 11  1  0  0  0  0
 15 37  1  0  0  0  0
 15 13  1  0  0  0  0
 16 15  1  0  0  0  0
 16 19  1  0  0  0  0
 17 16  1  0  0  0  0
 18 17  2  0  0  0  0
 19 39  1  0  0  0  0
 20 40  1  0  0  0  0
 20 21  1  0  0  0  0
 21 42  1  0  0  0  0
 22 44  1  0  0  0  0
 22 45  1  0  0  0  0
 22 21  1  0  0  0  0
 23 21  1  0  0  0  0
 23 48  1  0  0  0  0
 23 47  1  0  0  0  0
 24 50  1  0  0  0  0
 24 51  1  0  0  0  0
 24  2  1  0  0  0  0
 25  1  1  0  0  0  0
 31  8  1  0  0  0  0
 32  9  1  0  0  0  0
 35 10  1  0  0  0  0
 36 15  1  0  0  0  0
 38 17  1  0  0  0  0
 41 20  1  0  0  0  0
 43 22  1  0  0  0  0
 46 23  1  0  0  0  0
 49 24  1  0  0  0  0
M  END
$$$$
