51
rmsd66.gzmat
C          0.00000        0.00000        0.00000
C          1.53120        0.00000        0.00000
C          2.04540        0.00000        1.44730
C          2.11950       -1.25560       -0.72290
H          3.24250       -1.16790       -0.72510
C          1.67430       -2.55570       -0.03230
O          0.52980       -2.98510       -0.14290
N          2.54000       -3.27140        0.75100
C          3.98180       -3.02910        0.77680
N          1.66650       -1.33640       -2.10520
C          2.38910       -2.09780       -3.00910
O          3.48800       -2.52650       -2.71180
C          1.75190       -2.32230       -4.37170
H          2.51990       -2.84130       -5.00810
C          0.53150       -3.26690       -4.26060
N         -0.52510       -2.67730       -3.41600
C         -1.72110       -2.21950       -4.02270
O         -1.66630       -1.73940       -5.13150
O         -0.85260       -3.56670       -2.37930
C          1.37670       -0.99500       -5.04120
C          2.59160       -0.06540       -5.21840
C          3.48010       -0.53910       -6.37330
C          2.09970        1.36370       -5.47940
C          2.04620        1.25260       -0.72460
H         -0.41600        0.16810       -0.99890
H         -0.39430        0.79120        0.64740
H         -0.40990       -0.95110        0.37020
H          1.70340        0.89310        1.98350
H          3.13870       -0.00300        1.49480
H          1.67900       -0.86800        2.00920
H          2.21500       -4.14450        1.15010
H          4.21390       -2.08320        1.29700
H          4.40430       -2.98590       -0.25040
H          4.49680       -3.84430        1.31260
H          0.68080       -1.16680       -2.28210
H          0.85060       -4.24770       -3.83480
H          0.14350       -3.47200       -5.28700
H         -2.61740       -2.22270       -3.38960
H         -0.30780       -3.24440       -1.58410
H          0.58900       -0.47900       -4.45760
H          0.90060       -1.19300       -6.02300
H          3.19710       -0.06450       -4.27850
H          2.93230       -0.55930       -7.32120
H          3.86970       -1.54680       -6.19050
H          4.34330        0.12190       -6.50430
H          1.46390        1.41040       -6.37050
H          2.93830        2.04990       -5.63510
H          1.51460        1.74380       -4.63500
H          1.73250        1.26590       -1.77670
H          3.13950        1.30820       -0.71590
H          1.66380        2.16570       -0.25720
