51

C         -0.01380       -0.33660        0.03960
C          1.50570       -0.11810       -0.05410
C          2.09620       -0.03650        1.36280
C          2.21210       -1.27230       -0.82520
H          3.25530       -0.97720       -0.97840
C          2.15530       -2.61790       -0.08770
O          1.09500       -3.25240       -0.03470
N          3.28930       -3.09350        0.46300
C          4.64320       -2.59750        0.25510
N          1.65200       -1.47890       -2.14590
C          2.39600       -2.10510       -3.11240
O          3.60720       -2.23790       -3.01170
C          1.61810       -2.54850       -4.34930
H          2.30500       -3.21020       -4.89450
C          0.35190       -3.35600       -4.01200
N          0.59610       -4.62320       -3.36030
C          0.32600       -5.82360       -3.95640
O         -0.29280       -5.95470       -4.99250
O          1.50170       -4.64960       -2.31360
C          1.22600       -1.36110       -5.25560
C          2.35450       -0.43910       -5.76660
C          2.82920        0.59380       -4.73520
C          3.53500       -1.22760       -6.34520
C          1.79400        1.19170       -0.80530
H         -0.49060       -0.30200       -0.95370
H         -0.46990        0.46810        0.63720
H         -0.25530       -1.30260        0.50280
H          1.67450        0.82660        1.90030
H          3.19020        0.09300        1.33410
H          1.87220       -0.93830        1.95290
H          3.17450       -4.00620        0.89480
H          4.82700       -1.65850        0.80110
H          4.83850       -2.44430       -0.81730
H          5.34790       -3.34890        0.63450
H          0.64770       -1.60050       -2.18010
H         -0.18050       -3.61490       -4.93840
H         -0.35050       -2.74860       -3.40880
H          0.73960       -6.66260       -3.35150
H          1.04790       -4.30790       -1.50950
H          0.46890       -0.74660       -4.73650
H          0.71510       -1.79390       -6.13240
H          1.89760        0.13170       -6.59540
H          3.38450        0.12660       -3.91020
H          1.98190        1.15330       -4.30730
H          3.50390        1.32340       -5.21150
H          4.08020       -1.75890       -5.55010
H          4.24570       -0.55100       -6.84580
H          3.19970       -1.96970       -7.08840
H          1.43830        1.13780       -1.84410
H          2.87450        1.40490       -0.83280
H          1.29220        2.03810       -0.31060
