
     RDKit          3D

 51 50  0  0  0  0  0  0  0  0999 V2000
   -0.1491   -0.3052   -0.0117 C   0  0  0  0  0  0  0  0  0  0  0  0
    1.3795   -0.1271   -0.0055 C   0  0  0  0  0  0  0  0  0  0  0  0
    1.8815   -0.1255    1.4474 C   0  0  0  0  0  0  0  0  0  0  0  0
    2.1035   -1.2645   -0.7896 C   0  0  1  0  0  0  0  0  0  0  0  0
    3.1734   -1.0200   -0.8081 H   0  0  0  0  0  0  0  0  0  0  0  0
    1.9118   -2.6462   -0.1460 C   0  0  0  0  0  0  0  0  0  0  0  0
    0.8338   -3.2380   -0.2421 O   0  0  0  0  0  0  0  0  0  0  0  0
    2.9361   -3.1805    0.5508 N   0  0  0  0  0  0  0  0  0  0  0  0
    4.3337   -2.7810    0.4804 C   0  0  0  0  0  0  0  0  0  0  0  0
    1.6488   -1.3286   -2.1599 N   0  0  0  0  0  0  0  0  0  0  0  0
    2.2501   -2.1764   -3.0420 C   0  0  0  0  0  0  0  0  0  0  0  0
    3.2720   -2.7868   -2.7513 O   0  0  0  0  0  0  0  0  0  0  0  0
    1.5586   -2.2911   -4.3946 C   0  0  1  0  0  0  0  0  0  0  0  0
    2.2349   -2.9094   -5.0016 H   0  0  0  0  0  0  0  0  0  0  0  0
    0.2381   -3.0873   -4.2905 C   0  0  0  0  0  0  0  0  0  0  0  0
   -0.7223   -2.5913   -3.3042 N   0  0  0  0  0  0  0  0  0  0  0  0
   -1.7844   -1.8098   -3.6769 C   0  0  0  0  0  0  0  0  0  0  0  0
   -1.8543   -1.2122   -4.7319 O   0  0  0  0  0  0  0  0  0  0  0  0
   -0.9620   -3.4277   -2.2211 O   0  0  0  0  0  0  0  0  0  0  0  0
    1.3714   -0.9252   -5.0765 C   0  0  0  0  0  0  0  0  0  0  0  0
    2.6319   -0.0494   -5.1533 C   0  0  0  0  0  0  0  0  0  0  0  0
    3.8142   -0.7738   -5.8062 C   0  0  0  0  0  0  0  0  0  0  0  0
    2.3124    1.2605   -5.8802 C   0  0  0  0  0  0  0  0  0  0  0  0
    1.7470    1.2130   -0.6664 C   0  0  0  0  0  0  0  0  0  0  0  0
   -0.5732   -0.2523   -1.0274 H   0  0  0  0  0  0  0  0  0  0  0  0
   -0.6173    0.5051    0.5682 H   0  0  0  0  0  0  0  0  0  0  0  0
   -0.4473   -1.2673    0.4247 H   0  0  0  0  0  0  0  0  0  0  0  0
    1.4307    0.7119    2.0015 H   0  0  0  0  0  0  0  0  0  0  0  0
    2.9755   -0.0023    1.4926 H   0  0  0  0  0  0  0  0  0  0  0  0
    1.6189   -1.0551    1.9741 H   0  0  0  0  0  0  0  0  0  0  0  0
    2.7251   -4.1062    0.9127 H   0  0  0  0  0  0  0  0  0  0  0  0
    4.5129   -1.8182    0.9833 H   0  0  0  0  0  0  0  0  0  0  0  0
    4.6654   -2.7175   -0.5676 H   0  0  0  0  0  0  0  0  0  0  0  0
    4.9366   -3.5404    0.9954 H   0  0  0  0  0  0  0  0  0  0  0  0
    0.7111   -1.0142   -2.3791 H   0  0  0  0  0  0  0  0  0  0  0  0
    0.4453   -4.1266   -4.0026 H   0  0  0  0  0  0  0  0  0  0  0  0
   -0.2482   -3.0793   -5.2792 H   0  0  0  0  0  0  0  0  0  0  0  0
   -2.5571   -1.7803   -2.8753 H   0  0  0  0  0  0  0  0  0  0  0  0
   -0.2903   -3.2160   -1.5237 H   0  0  0  0  0  0  0  0  0  0  0  0
    0.5659   -0.3635   -4.5774 H   0  0  0  0  0  0  0  0  0  0  0  0
    0.9901   -1.1094   -6.0959 H   0  0  0  0  0  0  0  0  0  0  0  0
    2.9254    0.2071   -4.1188 H   0  0  0  0  0  0  0  0  0  0  0  0
    3.5476   -1.1312   -6.8160 H   0  0  0  0  0  0  0  0  0  0  0  0
    4.1439   -1.6389   -5.2117 H   0  0  0  0  0  0  0  0  0  0  0  0
    4.6774   -0.0973   -5.9115 H   0  0  0  0  0  0  0  0  0  0  0  0
    2.0272    1.0680   -6.9284 H   0  0  0  0  0  0  0  0  0  0  0  0
    3.1825    1.9363   -5.8892 H   0  0  0  0  0  0  0  0  0  0  0  0
    1.4739    1.7920   -5.4019 H   0  0  0  0  0  0  0  0  0  0  0  0
    1.4142    1.2556   -1.7138 H   0  0  0  0  0  0  0  0  0  0  0  0
    2.8365    1.3760   -0.6541 H   0  0  0  0  0  0  0  0  0  0  0  0
    1.2725    2.0472   -0.1264 H   0  0  0  0  0  0  0  0  0  0  0  0
  2  1  1  0
  1 25  1  0
  1 26  1  0
  1 27  1  0
  2  3  1  0
  2  4  1  0
  2 24  1  0
  3 28  1  0
  3 29  1  0
  3 30  1  0
  4  5  1  6
  4  6  1  0
  4 10  1  0
  6  7  2  0
  6  8  1  0
  8  9  1  0
  8 31  1  0
  9 32  1  0
  9 33  1  0
  9 34  1  0
 10 11  1  0
 10 35  1  0
 11 12  2  0
 11 13  1  0
 13 14  1  6
 13 15  1  0
 13 20  1  0
 15 16  1  0
 15 36  1  0
 15 37  1  0
 16 17  1  0
 16 19  1  0
 17 18  2  0
 17 38  1  0
 19 39  1  0
 20 21  1  0
 20 40  1  0
 20 41  1  0
 21 22  1  0
 21 23  1  0
 21 42  1  0
 22 43  1  0
 22 44  1  0
 22 45  1  0
 23 46  1  0
 23 47  1  0
 23 48  1  0
 24 49  1  0
 24 50  1  0
 24 51  1  0
M  END

