rmsd224.gzmat
 OpenBabel08211713363D

 51 50  0  0  1  0  0  0  0  0999 V2000
    0.0000    0.0000    0.0000 C   0  0  0  0  0  0  0  0  0  0  0  0
    1.5287    0.0000    0.0000 C   0  0  0  0  0  0  0  0  0  0  0  0
    2.0438    0.0000    1.4481 C   0  0  0  0  0  0  0  0  0  0  0  0
    2.1209   -1.2559   -0.7155 C   0  0  1  0  0  0  0  0  0  0  0  0
    3.2420   -1.1577   -0.7236 H   0  0  0  0  0  0  0  0  0  0  0  0
    1.6888   -2.5539   -0.0075 C   0  0  0  0  0  0  0  0  0  0  0  0
    0.5347   -2.9537   -0.0250 O   0  0  0  0  0  0  0  0  0  0  0  0
    2.6110   -3.3114    0.6756 N   0  0  0  0  0  0  0  0  0  0  0  0
    4.0534   -3.0865    0.6013 C   0  0  0  0  0  0  0  0  0  0  0  0
    1.6689   -1.3501   -2.1054 N   0  0  0  0  0  0  0  0  0  0  0  0
    2.3606   -2.2137   -2.9400 C   0  0  0  0  0  0  0  0  0  0  0  0
    3.4538   -2.6395   -2.6119 O   0  0  0  0  0  0  0  0  0  0  0  0
    1.7524   -2.5503   -4.2939 C   0  0  1  0  0  0  0  0  0  0  0  0
    2.3185   -3.4388   -4.6813 H   0  0  0  0  0  0  0  0  0  0  0  0
    0.2530   -2.9262   -4.2073 C   0  0  0  0  0  0  0  0  0  0  0  0
   -0.0153   -3.5876   -2.9251 N   0  0  0  0  0  0  0  0  0  0  0  0
   -1.0569   -3.1135   -2.0864 C   0  0  0  0  0  0  0  0  0  0  0  0
   -1.3641   -1.9445   -2.1810 O   0  0  0  0  0  0  0  0  0  0  0  0
   -0.1020   -4.9772   -3.1130 O   0  0  0  0  0  0  0  0  0  0  0  0
    1.9406   -1.3670   -5.2523 C   0  0  0  0  0  0  0  0  0  0  0  0
    3.4273   -1.0126   -5.4615 C   0  0  0  0  0  0  0  0  0  0  0  0
    4.1600   -2.1226   -6.2213 C   0  0  0  0  0  0  0  0  0  0  0  0
    3.5280    0.3105   -6.2306 C   0  0  0  0  0  0  0  0  0  0  0  0
    2.0482    1.2512   -0.7253 C   0  0  0  0  0  0  0  0  0  0  0  0
   -0.4219    0.0782   -1.0099 H   0  0  0  0  0  0  0  0  0  0  0  0
   -0.4005    0.8354    0.5822 H   0  0  0  0  0  0  0  0  0  0  0  0
   -0.4110   -0.9258    0.4304 H   0  0  0  0  0  0  0  0  0  0  0  0
    1.6964    0.8892    1.9862 H   0  0  0  0  0  0  0  0  0  0  0  0
    3.1366   -0.0032    1.4941 H   0  0  0  0  0  0  0  0  0  0  0  0
    1.6797   -0.8727    2.0041 H   0  0  0  0  0  0  0  0  0  0  0  0
    2.3043   -4.1820    1.0870 H   0  0  0  0  0  0  0  0  0  0  0  0
    4.3313   -2.1401    1.0968 H   0  0  0  0  0  0  0  0  0  0  0  0
    4.4024   -3.0518   -0.4542 H   0  0  0  0  0  0  0  0  0  0  0  0
    4.5946   -3.9040    1.1046 H   0  0  0  0  0  0  0  0  0  0  0  0
    0.6765   -1.1750   -2.2565 H   0  0  0  0  0  0  0  0  0  0  0  0
   -0.0149   -3.5857   -5.0639 H   0  0  0  0  0  0  0  0  0  0  0  0
   -0.3864   -2.0138   -4.2962 H   0  0  0  0  0  0  0  0  0  0  0  0
   -1.4549   -3.8139   -1.3439 H   0  0  0  0  0  0  0  0  0  0  0  0
    0.6750   -5.3226   -2.5761 H   0  0  0  0  0  0  0  0  0  0  0  0
    1.4057   -0.4779   -4.8622 H   0  0  0  0  0  0  0  0  0  0  0  0
    1.4757   -1.5986   -6.2293 H   0  0  0  0  0  0  0  0  0  0  0  0
    3.9157   -0.8837   -4.4624 H   0  0  0  0  0  0  0  0  0  0  0  0
    3.6559   -2.3763   -7.1582 H   0  0  0  0  0  0  0  0  0  0  0  0
    4.2317   -3.0351   -5.6158 H   0  0  0  0  0  0  0  0  0  0  0  0
    5.1854   -1.8242   -6.4652 H   0  0  0  0  0  0  0  0  0  0  0  0
    3.0559    0.2417   -7.2157 H   0  0  0  0  0  0  0  0  0  0  0  0
    4.5741    0.5947   -6.3885 H   0  0  0  0  0  0  0  0  0  0  0  0
    3.0474    1.1288   -5.6844 H   0  0  0  0  0  0  0  0  0  0  0  0
    1.7349    1.2598   -1.7767 H   0  0  0  0  0  0  0  0  0  0  0  0
    3.1412    1.3054   -0.7115 H   0  0  0  0  0  0  0  0  0  0  0  0
    1.6625    2.1644   -0.2609 H   0  0  0  0  0  0  0  0  0  0  0  0
  1  2  1  0  0  0  0
  1 27  1  0  0  0  0
  1 26  1  0  0  0  0
  2  3  1  0  0  0  0
  3 29  1  0  0  0  0
  3 28  1  0  0  0  0
  3 30  1  0  0  0  0
  4  5  1  1  0  0  0
  4  6  1  0  0  0  0
  4  2  1  0  0  0  0
  6  8  1  0  0  0  0
  7  6  2  0  0  0  0
  8 31  1  0  0  0  0
  9  8  1  0  0  0  0
  9 32  1  0  0  0  0
  9 34  1  0  0  0  0
 10  4  1  0  0  0  0
 11 12  2  0  0  0  0
 11 10  1  0  0  0  0
 13 14  1  6  0  0  0
 13 15  1  0  0  0  0
 13 11  1  0  0  0  0
 15 16  1  0  0  0  0
 16 17  1  0  0  0  0
 17 38  1  0  0  0  0
 18 17  2  0  0  0  0
 19 16  1  0  0  0  0
 19 39  1  0  0  0  0
 20 40  1  0  0  0  0
 20 13  1  0  0  0  0
 21 20  1  0  0  0  0
 21 42  1  0  0  0  0
 22 44  1  0  0  0  0
 22 21  1  0  0  0  0
 23 48  1  0  0  0  0
 23 21  1  0  0  0  0
 24 50  1  0  0  0  0
 24 51  1  0  0  0  0
 24  2  1  0  0  0  0
 25  1  1  0  0  0  0
 33  9  1  0  0  0  0
 35 10  1  0  0  0  0
 36 15  1  0  0  0  0
 37 15  1  0  0  0  0
 41 20  1  0  0  0  0
 43 22  1  0  0  0  0
 45 22  1  0  0  0  0
 46 23  1  0  0  0  0
 47 23  1  0  0  0  0
 49 24  1  0  0  0  0
M  END
$$$$
