
     RDKit          3D

 51 50  0  0  0  0  0  0  0  0999 V2000
   -0.0395   -0.0321   -0.2076 C   0  0  0  0  0  0  0  0  0  0  0  0
    1.4956   -0.0434   -0.0914 C   0  0  0  0  0  0  0  0  0  0  0  0
    1.8991   -0.0089    1.3921 C   0  0  0  0  0  0  0  0  0  0  0  0
    2.1193   -1.3073   -0.7373 C   0  0  1  0  0  0  0  0  0  0  0  0
    3.2107   -1.1709   -0.7446 H   0  0  0  0  0  0  0  0  0  0  0  0
    1.8287   -2.6381   -0.0042 C   0  0  0  0  0  0  0  0  0  0  0  0
    0.7761   -2.8770    0.5721 O   0  0  0  0  0  0  0  0  0  0  0  0
    2.8543   -3.5246   -0.1017 N   0  0  0  0  0  0  0  0  0  0  0  0
    2.7540   -4.8779    0.3997 C   0  0  0  0  0  0  0  0  0  0  0  0
    1.7284   -1.4532   -2.1347 N   0  0  0  0  0  0  0  0  0  0  0  0
    2.5098   -2.0751   -3.0484 C   0  0  0  0  0  0  0  0  0  0  0  0
    3.6215   -2.5212   -2.7628 O   0  0  0  0  0  0  0  0  0  0  0  0
    1.9209   -2.1705   -4.4582 C   0  0  1  0  0  0  0  0  0  0  0  0
    1.7212   -1.1351   -4.7807 H   0  0  0  0  0  0  0  0  0  0  0  0
    2.9642   -2.7311   -5.4344 C   0  0  0  0  0  0  0  0  0  0  0  0
    4.0000   -1.7841   -5.7509 N   0  0  0  0  0  0  0  0  0  0  0  0
    5.2269   -1.6609   -5.1929 C   0  0  0  0  0  0  0  0  0  0  0  0
    5.9019   -0.6545   -5.3708 O   0  0  0  0  0  0  0  0  0  0  0  0
    3.5406   -0.6478   -6.4113 O   0  0  0  0  0  0  0  0  0  0  0  0
    0.5751   -2.9241   -4.5321 C   0  0  0  0  0  0  0  0  0  0  0  0
    0.5878   -4.4412   -4.2744 C   0  0  0  0  0  0  0  0  0  0  0  0
    1.0301   -4.8130   -2.8547 C   0  0  0  0  0  0  0  0  0  0  0  0
   -0.7985   -5.0207   -4.5775 C   0  0  0  0  0  0  0  0  0  0  0  0
    2.0756    1.1914   -0.8029 C   0  0  0  0  0  0  0  0  0  0  0  0
   -0.3740    0.0513   -1.2565 H   0  0  0  0  0  0  0  0  0  0  0  0
   -0.4463    0.8477    0.3152 H   0  0  0  0  0  0  0  0  0  0  0  0
   -0.4702   -0.9410    0.2304 H   0  0  0  0  0  0  0  0  0  0  0  0
    1.5736    0.9377    1.8509 H   0  0  0  0  0  0  0  0  0  0  0  0
    2.9936   -0.0765    1.5064 H   0  0  0  0  0  0  0  0  0  0  0  0
    1.4391   -0.8366    1.9489 H   0  0  0  0  0  0  0  0  0  0  0  0
    3.5847   -3.2975   -0.7742 H   0  0  0  0  0  0  0  0  0  0  0  0
    2.5987   -5.6069   -0.4143 H   0  0  0  0  0  0  0  0  0  0  0  0
    1.8917   -4.9271    1.0768 H   0  0  0  0  0  0  0  0  0  0  0  0
    3.6653   -5.1582    0.9510 H   0  0  0  0  0  0  0  0  0  0  0  0
    0.7852   -1.1898   -2.3911 H   0  0  0  0  0  0  0  0  0  0  0  0
    2.4693   -3.0265   -6.3736 H   0  0  0  0  0  0  0  0  0  0  0  0
    3.4604   -3.6144   -5.0115 H   0  0  0  0  0  0  0  0  0  0  0  0
    5.5339   -2.5422   -4.5983 H   0  0  0  0  0  0  0  0  0  0  0  0
    4.3255   -0.0589   -6.3134 H   0  0  0  0  0  0  0  0  0  0  0  0
    0.1647   -2.7462   -5.5403 H   0  0  0  0  0  0  0  0  0  0  0  0
   -0.1484   -2.4588   -3.8391 H   0  0  0  0  0  0  0  0  0  0  0  0
    1.3011   -4.8998   -4.9839 H   0  0  0  0  0  0  0  0  0  0  0  0
    0.3980   -4.3232   -2.0956 H   0  0  0  0  0  0  0  0  0  0  0  0
    2.0716   -4.5288   -2.6566 H   0  0  0  0  0  0  0  0  0  0  0  0
    0.9495   -5.9005   -2.6997 H   0  0  0  0  0  0  0  0  0  0  0  0
   -1.5546   -4.6001   -3.8928 H   0  0  0  0  0  0  0  0  0  0  0  0
   -0.8085   -6.1146   -4.4511 H   0  0  0  0  0  0  0  0  0  0  0  0
   -1.1172   -4.7957   -5.6079 H   0  0  0  0  0  0  0  0  0  0  0  0
    1.8513    1.1810   -1.8805 H   0  0  0  0  0  0  0  0  0  0  0  0
    3.1704    1.2405   -0.6891 H   0  0  0  0  0  0  0  0  0  0  0  0
    1.6487    2.1133   -0.3781 H   0  0  0  0  0  0  0  0  0  0  0  0
  2  1  1  0
  1 25  1  0
  1 26  1  0
  1 27  1  0
  2  3  1  0
  2  4  1  0
  2 24  1  0
  3 28  1  0
  3 29  1  0
  3 30  1  0
  4  5  1  6
  4  6  1  0
  4 10  1  0
  6  7  2  0
  6  8  1  0
  8  9  1  0
  8 31  1  0
  9 32  1  0
  9 33  1  0
  9 34  1  0
 10 11  1  0
 10 35  1  0
 11 12  2  0
 11 13  1  0
 13 14  1  6
 13 15  1  0
 13 20  1  0
 15 16  1  0
 15 36  1  0
 15 37  1  0
 16 17  1  0
 16 19  1  0
 17 18  2  0
 17 38  1  0
 19 39  1  0
 20 21  1  0
 20 40  1  0
 20 41  1  0
 21 22  1  0
 21 23  1  0
 21 42  1  0
 22 43  1  0
 22 44  1  0
 22 45  1  0
 23 46  1  0
 23 47  1  0
 23 48  1  0
 24 49  1  0
 24 50  1  0
 24 51  1  0
M  END

