51
rmsd222.gzmat
C          0.00000        0.00000        0.00000
C          1.53120        0.00000        0.00000
C          2.04570        0.00000        1.44720
C          2.12610       -1.25340       -0.72130
H          3.23560       -1.09080       -0.82580
C          1.82580       -2.53670        0.07270
O          0.68570       -2.89250        0.31520
N          2.85980       -3.32190        0.52420
C          4.26230       -3.10380        0.17850
N          1.55180       -1.44140       -2.05150
C          2.35120       -1.86690       -3.09220
O          3.55250       -1.99280       -2.94420
C          1.64250       -2.09800       -4.41660
H          1.10160       -1.15440       -4.69320
C          2.71970       -2.36720       -5.49050
N          2.24260       -2.24560       -6.87200
C          1.42540       -3.26220       -7.43350
O          1.62070       -4.41540       -7.12940
O          1.59200       -1.00240       -7.03710
C          0.64240       -3.25780       -4.29310
C         -0.73630       -2.89140       -4.87680
C         -1.52610       -4.17330       -5.16210
C         -1.52010       -1.99530       -3.91080
C          2.04130        1.25560       -0.72380
H         -0.41450        0.16320       -0.99890
H         -0.39410        0.79300        0.64510
H         -0.40360       -0.95190        0.38050
H          1.76020        0.92280        1.96470
H          3.13550       -0.07790        1.49780
H          1.62220       -0.83320        2.02380
H          2.63460       -4.17480        1.01850
H          4.66160       -2.20610        0.68220
H          4.39690       -2.97890       -0.91800
H          4.87190       -3.96790        0.49120
H          0.54070       -1.45160       -2.10940
H          3.15210       -3.39220       -5.37070
H          3.57130       -1.65430       -5.36110
H          0.73130       -2.94420       -8.22230
H          2.27090       -0.45610       -7.53190
H          0.52520       -3.58820       -3.24300
H          1.03920       -4.15850       -4.81010
H         -0.58990       -2.34180       -5.83870
H         -1.68860       -4.75740       -4.24910
H         -0.99670       -4.81780       -5.87490
H         -2.50920       -3.95030       -5.58910
H         -1.68090       -2.48930       -2.94460
H         -2.51020       -1.75480       -4.31570
H         -1.00820       -1.04610       -3.72980
H          1.71600        1.27230       -1.77040
H          3.13440        1.31410       -0.72090
H          1.66170        2.16480       -0.24560
