33
rmsd22.gzmat
N          0.00000        0.00000        0.00000
C          1.40370        0.00000        0.00000
N          1.93510        0.00000        1.22680
C          0.84130        0.04060        2.10420
C          0.80420        0.05720        3.50020
C         -0.43850        0.11160        4.10880
C         -1.63150        0.15030        3.35900
C         -1.62640        0.13290        1.97330
C         -0.38250        0.07220        1.34590
O          2.02140        0.05390       -1.20070
C          3.10820       -0.80820       -1.32500
C          4.37940       -0.26140       -1.52800
C          5.44420       -1.12640       -1.83780
C          5.22330       -2.49420       -1.90320
C          3.95240       -3.02740       -1.66430
C          2.88840       -2.18320       -1.37170
O          4.72600        1.04560       -1.53290
C          3.90370        1.94240       -0.79170
C         -0.85740        0.17360       -1.15300
H          1.73130        0.02580        4.06990
H         -0.50570        0.12570        5.19590
H         -2.58080        0.19390        3.89100
H         -2.54620        0.16420        1.39970
H          6.43150       -0.70280       -2.01080
H          6.05170       -3.16350       -2.13540
H          3.79810       -4.10290       -1.70360
H          1.89330       -2.58040       -1.17960
H          4.52860        2.84400       -0.75110
H          3.70520        1.56310        0.21940
H          2.97230        2.13610       -1.33230
H         -1.79560       -0.39830       -1.02410
H         -0.35020       -0.19600       -2.06680
H         -1.11430        1.23830       -1.30890
