33
rmsd19.gzmat
N          0.00000        0.00000        0.00000
C          1.40380        0.00000        0.00000
N          1.93370        0.00000        1.22690
C          0.84010        0.03850        2.10400
C          0.80210        0.04830        3.50050
C         -0.44060        0.09650        4.10880
C         -1.63370        0.13560        3.35850
C         -1.62780        0.12370        1.97310
C         -0.38320        0.06950        1.34510
O          2.03100        0.05290       -1.19650
C          3.00710       -0.92530       -1.36930
C          4.31970       -0.51430       -1.62370
C          5.27130       -1.48310       -1.98800
C          4.90330       -2.81940       -2.04970
C          3.59640       -3.21830       -1.75110
C          2.64140       -2.26940       -1.40720
O          4.79900        0.74990       -1.62670
C          4.10930        1.70730       -0.82690
C         -0.85740        0.16650       -1.15390
H          1.72850        0.01740        4.07060
H         -0.50770        0.10430        5.19590
H         -2.58350        0.17440        3.89060
H         -2.54720        0.15280        1.39920
H          6.28940       -1.16600       -2.20480
H          5.64430       -3.56970       -2.32500
H          3.32850       -4.27140       -1.78580
H          1.62030       -2.56140       -1.16720
H          4.83480        2.52880       -0.77580
H          3.89470        1.31720        0.17660
H          3.19110        2.02550       -1.33030
H         -1.79110       -0.41210       -1.02680
H         -0.34540       -0.19830       -2.06700
H         -1.12190        1.22940       -1.31130
