33
rmsd28.gzmat
N          0.00000        0.00000        0.00000
C          1.40410        0.00000        0.00000
N          1.93420        0.00000        1.22680
C          0.84060       -0.03850        2.10400
C          0.80270       -0.05320        3.50040
C         -0.44010       -0.10230        4.10880
C         -1.63330       -0.13830        3.35850
C         -1.62720       -0.12370        1.97290
C         -0.38260       -0.06780        1.34520
O          2.03230       -0.05290       -1.19640
C          3.00270        0.93220       -1.36690
C          4.32760        0.53900       -1.58080
C          5.27540        1.52100       -1.92330
C          4.88750        2.84930       -2.01680
C          3.56370        3.22920       -1.77020
C          2.61650        2.26910       -1.43770
O          4.83520       -0.71290       -1.55890
C          4.09130       -1.71380       -0.87010
C         -0.85760       -0.17000       -1.15380
H          1.72960       -0.02470        4.07070
H         -0.50760       -0.11310        5.19600
H         -2.58330       -0.17840        3.89040
H         -2.54600       -0.15250        1.39820
H          6.30600        1.21870       -2.09850
H          5.62510        3.60870       -2.27670
H          3.27770        4.27600       -1.83590
H          1.58340        2.54560       -1.23250
H          4.81670       -2.53480       -0.80630
H          3.21790       -2.00720       -1.46050
H          3.79980       -1.37930        0.13440
H         -1.19950       -1.21780       -1.25330
H         -0.31260        0.10280       -2.07980
H         -1.74710        0.48240       -1.07200
