33
rmsd14.gzmat
N          0.00000        0.00000        0.00000
C          1.40450        0.00000        0.00000
N          1.93390        0.00000        1.22690
C          0.84070        0.04250        2.10400
C          0.80280        0.05910        3.50060
C         -0.43950        0.11720        4.10850
C         -1.63270        0.15750        3.35800
C         -1.62680        0.13780        1.97280
C         -0.38220        0.07450        1.34520
O          2.03490        0.05340       -1.19500
C          2.98050       -0.95270       -1.38080
C          4.31020       -0.58590       -1.61220
C          5.23130       -1.58440       -1.97720
C          4.81490       -2.90410       -2.07090
C          3.48870       -3.25860       -1.80240
C          2.56590       -2.28110       -1.45240
O          4.84090        0.65690       -1.59150
C          4.14460        1.65440       -0.84900
C         -0.85860        0.18350       -1.15090
H          1.72960        0.02530        4.07080
H         -0.50660        0.13220        5.19560
H         -2.58250        0.20420        3.88980
H         -2.54590        0.16780        1.39800
H          6.26420       -1.30220       -2.17110
H          5.53130       -3.67680       -2.34920
H          3.18130       -4.29920       -1.86530
H          1.53080       -2.53840       -1.23370
H          4.88960        2.45810       -0.79140
H          3.88080        1.29790        0.15530
H          3.25690        1.98190       -1.39900
H         -1.75700       -0.45670       -1.06610
H         -0.32100       -0.09560       -2.07940
H         -1.18620        1.23640       -1.24700
