rmsd16.gzmat
 OpenBabel08211713393D

 33 35  0  0  1  0  0  0  0  0999 V2000
    0.0000    0.0000    0.0000 N   0  0  0  0  0  0  0  0  0  0  0  0
    1.4039    0.0000    0.0000 C   0  0  0  0  0  0  0  0  0  0  0  0
    1.9363    0.0000    1.2262 N   0  0  0  0  0  0  0  0  0  0  0  0
    0.8430   -0.0418    2.1045 C   0  0  0  0  0  0  0  0  0  0  0  0
    0.8064   -0.0585    3.5005 C   0  0  0  0  0  0  0  0  0  0  0  0
   -0.4362   -0.1182    4.1097 C   0  0  0  0  0  0  0  0  0  0  0  0
   -1.6295   -0.1543    3.3607 C   0  0  0  0  0  0  0  0  0  0  0  0
   -1.6243   -0.1341    1.9749 C   0  0  0  0  0  0  0  0  0  0  0  0
   -0.3805   -0.0747    1.3470 C   0  0  1  0  0  0  0  0  0  0  0  0
    2.0207   -0.0447   -1.2014 O   0  0  0  0  0  0  0  0  0  0  0  0
    3.1378    0.7806   -1.3052 C   0  0  0  0  0  0  0  0  0  0  0  0
    4.3724    0.1911   -1.5961 C   0  0  0  0  0  0  0  0  0  0  0  0
    5.4660    1.0242   -1.8892 C   0  0  0  0  0  0  0  0  0  0  0  0
    5.3107    2.4026   -1.8476 C   0  0  0  0  0  0  0  0  0  0  0  0
    4.0794    2.9760   -1.5139 C   0  0  0  0  0  0  0  0  0  0  0  0
    2.9856    2.1640   -1.2392 C   0  0  0  0  0  0  0  0  0  0  0  0
    4.6482   -1.1294   -1.6990 O   0  0  0  0  0  0  0  0  0  0  0  0
    3.8189   -2.0228   -0.9607 C   0  0  0  0  0  0  0  0  0  0  0  0
   -0.8574   -0.1910   -1.1510 C   0  0  0  0  0  0  0  0  0  0  0  0
    1.7334   -0.0238    4.0709 H   0  0  0  0  0  0  0  0  0  0  0  0
   -0.5021   -0.1374    5.1968 H   0  0  0  0  0  0  0  0  0  0  0  0
   -2.5793   -0.1992    3.8928 H   0  0  0  0  0  0  0  0  0  0  0  0
   -2.5441   -0.1618    1.4012 H   0  0  0  0  0  0  0  0  0  0  0  0
    6.4245    0.5699   -2.1316 H   0  0  0  0  0  0  0  0  0  0  0  0
    6.1612    3.0478   -2.0664 H   0  0  0  0  0  0  0  0  0  0  0  0
    3.9799    4.0580   -1.4643 H   0  0  0  0  0  0  0  0  0  0  0  0
    2.0199    2.5915   -0.9725 H   0  0  0  0  0  0  0  0  0  0  0  0
    4.4124   -2.9458   -0.9676 H   0  0  0  0  0  0  0  0  0  0  0  0
    2.8666   -2.1647   -1.4811 H   0  0  0  0  0  0  0  0  0  0  0  0
    3.6604   -1.6729    0.0673 H   0  0  0  0  0  0  0  0  0  0  0  0
   -1.1625   -1.2498   -1.2564 H   0  0  0  0  0  0  0  0  0  0  0  0
   -0.3290    0.1106   -2.0778 H   0  0  0  0  0  0  0  0  0  0  0  0
   -1.7698    0.4280   -1.0583 H   0  0  0  0  0  0  0  0  0  0  0  0
  1  2  1  0  0  0  0
  1  9  1  0  0  0  0
  2  3  2  0  0  0  0
  3  4  2  0  0  0  0
  4  5  1  0  0  0  0
  5 20  1  0  0  0  0
  5  6  2  0  0  0  0
  6 21  1  0  0  0  0
  7 22  1  0  0  0  0
  7  6  1  0  0  0  0
  8  7  2  0  0  0  0
  9  8  1  1  0  0  0
  9  4  1  0  0  0  0
 10  2  1  0  0  0  0
 11 16  1  0  0  0  0
 11 10  1  0  0  0  0
 12 11  2  0  0  0  0
 13 14  2  0  0  0  0
 13 12  1  0  0  0  0
 14 15  1  0  0  0  0
 15 26  1  0  0  0  0
 15 16  2  0  0  0  0
 16 27  1  0  0  0  0
 17 12  1  0  0  0  0
 17 18  1  0  0  0  0
 18 30  1  0  0  0  0
 19 33  1  0  0  0  0
 19  1  1  0  0  0  0
 23  8  1  0  0  0  0
 24 13  1  0  0  0  0
 25 14  1  0  0  0  0
 28 18  1  0  0  0  0
 29 18  1  0  0  0  0
 31 19  1  0  0  0  0
 32 19  1  0  0  0  0
M  RAD  1   9   2
M  END
$$$$
