rmsd19.gzmat
 OpenBabel08211713393D

 33 35  0  0  1  0  0  0  0  0999 V2000
    0.0000    0.0000    0.0000 N   0  0  0  0  0  0  0  0  0  0  0  0
    1.4038    0.0000    0.0000 C   0  0  0  0  0  0  0  0  0  0  0  0
    1.9337    0.0000    1.2269 N   0  0  0  0  0  0  0  0  0  0  0  0
    0.8401    0.0385    2.1040 C   0  0  0  0  0  0  0  0  0  0  0  0
    0.8021    0.0483    3.5005 C   0  0  0  0  0  0  0  0  0  0  0  0
   -0.4406    0.0965    4.1088 C   0  0  0  0  0  0  0  0  0  0  0  0
   -1.6337    0.1356    3.3585 C   0  0  0  0  0  0  0  0  0  0  0  0
   -1.6278    0.1237    1.9731 C   0  0  0  0  0  0  0  0  0  0  0  0
   -0.3832    0.0695    1.3451 C   0  0  2  0  0  0  0  0  0  0  0  0
    2.0310    0.0529   -1.1965 O   0  0  0  0  0  0  0  0  0  0  0  0
    3.0071   -0.9253   -1.3693 C   0  0  0  0  0  0  0  0  0  0  0  0
    4.3197   -0.5143   -1.6237 C   0  0  0  0  0  0  0  0  0  0  0  0
    5.2713   -1.4831   -1.9880 C   0  0  0  0  0  0  0  0  0  0  0  0
    4.9033   -2.8194   -2.0497 C   0  0  0  0  0  0  0  0  0  0  0  0
    3.5964   -3.2183   -1.7511 C   0  0  0  0  0  0  0  0  0  0  0  0
    2.6414   -2.2694   -1.4072 C   0  0  0  0  0  0  0  0  0  0  0  0
    4.7990    0.7499   -1.6267 O   0  0  0  0  0  0  0  0  0  0  0  0
    4.1093    1.7073   -0.8269 C   0  0  0  0  0  0  0  0  0  0  0  0
   -0.8574    0.1665   -1.1539 C   0  0  0  0  0  0  0  0  0  0  0  0
    1.7285    0.0174    4.0706 H   0  0  0  0  0  0  0  0  0  0  0  0
   -0.5077    0.1043    5.1959 H   0  0  0  0  0  0  0  0  0  0  0  0
   -2.5835    0.1744    3.8906 H   0  0  0  0  0  0  0  0  0  0  0  0
   -2.5472    0.1528    1.3992 H   0  0  0  0  0  0  0  0  0  0  0  0
    6.2894   -1.1660   -2.2048 H   0  0  0  0  0  0  0  0  0  0  0  0
    5.6443   -3.5697   -2.3250 H   0  0  0  0  0  0  0  0  0  0  0  0
    3.3285   -4.2714   -1.7858 H   0  0  0  0  0  0  0  0  0  0  0  0
    1.6203   -2.5614   -1.1672 H   0  0  0  0  0  0  0  0  0  0  0  0
    4.8348    2.5288   -0.7758 H   0  0  0  0  0  0  0  0  0  0  0  0
    3.8947    1.3172    0.1766 H   0  0  0  0  0  0  0  0  0  0  0  0
    3.1911    2.0255   -1.3303 H   0  0  0  0  0  0  0  0  0  0  0  0
   -1.7911   -0.4121   -1.0268 H   0  0  0  0  0  0  0  0  0  0  0  0
   -0.3454   -0.1983   -2.0670 H   0  0  0  0  0  0  0  0  0  0  0  0
   -1.1219    1.2294   -1.3113 H   0  0  0  0  0  0  0  0  0  0  0  0
  1  2  1  0  0  0  0
  1  9  1  0  0  0  0
  2  3  2  0  0  0  0
  3  4  2  0  0  0  0
  4  5  1  0  0  0  0
  5 20  1  0  0  0  0
  5  6  2  0  0  0  0
  6 21  1  0  0  0  0
  7 22  1  0  0  0  0
  7  6  1  0  0  0  0
  8  7  2  0  0  0  0
  9  8  1  1  0  0  0
  9  4  1  0  0  0  0
 10  2  1  0  0  0  0
 11 10  1  0  0  0  0
 12 11  2  0  0  0  0
 13 12  1  0  0  0  0
 14 13  2  0  0  0  0
 14 15  1  0  0  0  0
 15 16  2  0  0  0  0
 16 11  1  0  0  0  0
 16 27  1  0  0  0  0
 17 12  1  0  0  0  0
 17 18  1  0  0  0  0
 18 28  1  0  0  0  0
 18 29  1  0  0  0  0
 19 31  1  0  0  0  0
 19  1  1  0  0  0  0
 23  8  1  0  0  0  0
 24 13  1  0  0  0  0
 25 14  1  0  0  0  0
 26 15  1  0  0  0  0
 30 18  1  0  0  0  0
 32 19  1  0  0  0  0
 33 19  1  0  0  0  0
M  RAD  1   9   2
M  END
$$$$
