33
rmsd21.gzmat
N          0.00000        0.00000        0.00000
C          1.40450        0.00000        0.00000
N          1.93220        0.00000        1.22710
C          0.83880       -0.03890        2.10360
C          0.79980       -0.05660        3.50050
C         -0.44310       -0.10840        4.10750
C         -1.63640       -0.13860        3.35610
C         -1.62930       -0.11710        1.97140
C         -0.38370       -0.06490        1.34430
O          2.04640       -0.06090       -1.18950
C          2.86240        1.04070       -1.43960
C          4.23040        0.82910       -1.63940
C          5.02590        1.91100       -2.05960
C          4.45070        3.16020       -2.23930
C          3.08620        3.36160       -2.00580
C          2.28730        2.29960       -1.60170
O          4.91210       -0.33280       -1.54040
C          4.33810       -1.36670       -0.74510
C         -0.86320       -0.15990       -1.15080
H          1.72610       -0.02960        4.07130
H         -0.51120       -0.12600        5.19430
H         -2.58670       -0.17950        3.88760
H         -2.54820       -0.13790        1.39630
H          6.08850        1.74820       -2.22770
H          5.07030        3.99790       -2.55940
H          2.65260        4.34920       -2.13950
H          1.22450        2.43840       -1.41160
H          5.17690       -2.06600       -0.64030
H          3.50150       -1.83220       -1.27510
H          4.02250       -0.99160        0.23740
H         -1.28610       -1.18150       -1.19820
H         -0.29600        0.01970       -2.08590
H         -1.69940        0.56320       -1.10790
