rmsd21.gzmat
 OpenBabel08211713393D

 33 35  0  0  1  0  0  0  0  0999 V2000
    0.0000    0.0000    0.0000 N   0  0  0  0  0  0  0  0  0  0  0  0
    1.4045    0.0000    0.0000 C   0  0  0  0  0  0  0  0  0  0  0  0
    1.9322    0.0000    1.2271 N   0  0  0  0  0  0  0  0  0  0  0  0
    0.8388   -0.0389    2.1036 C   0  0  0  0  0  0  0  0  0  0  0  0
    0.7998   -0.0566    3.5005 C   0  0  0  0  0  0  0  0  0  0  0  0
   -0.4431   -0.1084    4.1075 C   0  0  0  0  0  0  0  0  0  0  0  0
   -1.6364   -0.1386    3.3561 C   0  0  0  0  0  0  0  0  0  0  0  0
   -1.6293   -0.1171    1.9714 C   0  0  0  0  0  0  0  0  0  0  0  0
   -0.3837   -0.0649    1.3443 C   0  0  1  0  0  0  0  0  0  0  0  0
    2.0464   -0.0609   -1.1895 O   0  0  0  0  0  0  0  0  0  0  0  0
    2.8624    1.0407   -1.4396 C   0  0  0  0  0  0  0  0  0  0  0  0
    4.2304    0.8291   -1.6394 C   0  0  0  0  0  0  0  0  0  0  0  0
    5.0259    1.9110   -2.0596 C   0  0  0  0  0  0  0  0  0  0  0  0
    4.4507    3.1602   -2.2393 C   0  0  0  0  0  0  0  0  0  0  0  0
    3.0862    3.3616   -2.0058 C   0  0  0  0  0  0  0  0  0  0  0  0
    2.2873    2.2996   -1.6017 C   0  0  0  0  0  0  0  0  0  0  0  0
    4.9121   -0.3328   -1.5404 O   0  0  0  0  0  0  0  0  0  0  0  0
    4.3381   -1.3667   -0.7451 C   0  0  0  0  0  0  0  0  0  0  0  0
   -0.8632   -0.1599   -1.1508 C   0  0  0  0  0  0  0  0  0  0  0  0
    1.7261   -0.0296    4.0713 H   0  0  0  0  0  0  0  0  0  0  0  0
   -0.5112   -0.1260    5.1943 H   0  0  0  0  0  0  0  0  0  0  0  0
   -2.5867   -0.1795    3.8876 H   0  0  0  0  0  0  0  0  0  0  0  0
   -2.5482   -0.1379    1.3963 H   0  0  0  0  0  0  0  0  0  0  0  0
    6.0885    1.7482   -2.2277 H   0  0  0  0  0  0  0  0  0  0  0  0
    5.0703    3.9979   -2.5594 H   0  0  0  0  0  0  0  0  0  0  0  0
    2.6526    4.3492   -2.1395 H   0  0  0  0  0  0  0  0  0  0  0  0
    1.2245    2.4384   -1.4116 H   0  0  0  0  0  0  0  0  0  0  0  0
    5.1769   -2.0660   -0.6403 H   0  0  0  0  0  0  0  0  0  0  0  0
    3.5015   -1.8322   -1.2751 H   0  0  0  0  0  0  0  0  0  0  0  0
    4.0225   -0.9916    0.2374 H   0  0  0  0  0  0  0  0  0  0  0  0
   -1.2861   -1.1815   -1.1982 H   0  0  0  0  0  0  0  0  0  0  0  0
   -0.2960    0.0197   -2.0859 H   0  0  0  0  0  0  0  0  0  0  0  0
   -1.6994    0.5632   -1.1079 H   0  0  0  0  0  0  0  0  0  0  0  0
  1  9  1  0  0  0  0
  2  1  1  0  0  0  0
  2  3  2  0  0  0  0
  3  4  2  0  0  0  0
  4  5  1  0  0  0  0
  5 20  1  0  0  0  0
  5  6  2  0  0  0  0
  6 21  1  0  0  0  0
  7 22  1  0  0  0  0
  7  6  1  0  0  0  0
  8  7  2  0  0  0  0
  9  8  1  1  0  0  0
  9  4  1  0  0  0  0
 10  2  1  0  0  0  0
 11 10  1  0  0  0  0
 12 17  1  0  0  0  0
 12 11  2  0  0  0  0
 13 12  1  0  0  0  0
 14 13  2  0  0  0  0
 14 15  1  0  0  0  0
 15 16  2  0  0  0  0
 16 11  1  0  0  0  0
 16 27  1  0  0  0  0
 17 18  1  0  0  0  0
 18 28  1  0  0  0  0
 18 30  1  0  0  0  0
 19 33  1  0  0  0  0
 19  1  1  0  0  0  0
 23  8  1  0  0  0  0
 24 13  1  0  0  0  0
 25 14  1  0  0  0  0
 26 15  1  0  0  0  0
 29 18  1  0  0  0  0
 31 19  1  0  0  0  0
 32 19  1  0  0  0  0
M  RAD  1   9   2
M  END
$$$$
