
     RDKit          3D

 58 60  0  0  0  0  0  0  0  0999 V2000
    0.0378   -0.0903   -0.0167 S   0  0  0  0  0  0  0  0  0  0  0  0
    1.5019   -0.1727    0.0321 O   0  0  0  0  0  0  0  0  0  0  0  0
   -0.6948   -0.2183   -1.2811 O   0  0  0  0  0  0  0  0  0  0  0  0
   -0.3808    1.3657    0.6979 N   0  0  0  0  0  0  0  0  0  0  0  0
    0.6717    2.2276    1.2597 C   0  0  0  0  0  0  0  0  0  0  0  0
    1.0881    3.3384    0.3237 C   0  0  0  0  0  0  0  0  0  0  0  0
    2.0445    3.1102   -0.6690 C   0  0  0  0  0  0  0  0  0  0  0  0
    2.3137    4.1055   -1.6118 C   0  0  0  0  0  0  0  0  0  0  0  0
    1.6272    5.3211   -1.6011 C   0  0  0  0  0  0  0  0  0  0  0  0
    1.9445    6.2635   -2.5333 O   0  0  0  0  0  0  0  0  0  0  0  0
    0.9300    6.6295   -3.4570 C   0  0  0  0  0  0  0  0  0  0  0  0
    0.6491    5.5526   -0.6033 C   0  0  0  0  0  0  0  0  0  0  0  0
   -0.0148    6.7355   -0.6503 O   0  0  0  0  0  0  0  0  0  0  0  0
   -1.2130    6.8571    0.0908 C   0  0  0  0  0  0  0  0  0  0  0  0
    0.4127    4.5665    0.3594 C   0  0  0  0  0  0  0  0  0  0  0  0
   -1.7063    1.9511    0.4479 C   0  0  2  0  0  0  0  0  0  0  0  0
   -1.7496    2.8158    1.1288 H   0  0  0  0  0  0  0  0  0  0  0  0
   -2.8243    1.0111    0.8891 C   0  0  0  0  0  0  0  0  0  0  0  0
   -3.7519    0.4583   -0.0006 C   0  0  0  0  0  0  0  0  0  0  0  0
   -4.7479   -0.4128    0.4562 C   0  0  0  0  0  0  0  0  0  0  0  0
   -4.8181   -0.7541    1.8063 C   0  0  0  0  0  0  0  0  0  0  0  0
   -3.8888   -0.2147    2.7032 C   0  0  0  0  0  0  0  0  0  0  0  0
   -2.9086    0.6622    2.2462 C   0  0  0  0  0  0  0  0  0  0  0  0
   -1.8911    2.5493   -0.9574 C   0  0  0  0  0  0  0  0  0  0  0  0
   -2.9310    3.5108   -0.9556 O   0  0  0  0  0  0  0  0  0  0  0  0
   -0.6080   -1.3353    1.0930 C   0  0  0  0  0  0  0  0  0  0  0  0
   -1.6500   -2.1572    0.6697 C   0  0  0  0  0  0  0  0  0  0  0  0
   -2.1843   -3.0854    1.5621 C   0  0  0  0  0  0  0  0  0  0  0  0
   -1.6908   -3.2045    2.8694 C   0  0  0  0  0  0  0  0  0  0  0  0
   -0.6211   -2.3801    3.2578 C   0  0  0  0  0  0  0  0  0  0  0  0
   -0.0732   -1.4495    2.3778 C   0  0  0  0  0  0  0  0  0  0  0  0
   -2.3169   -4.1710    3.8403 C   0  0  0  0  0  0  0  0  0  0  0  0
    1.5291    1.5884    1.4977 H   0  0  0  0  0  0  0  0  0  0  0  0
    0.2837    2.6456    2.2034 H   0  0  0  0  0  0  0  0  0  0  0  0
    2.5446    2.1414   -0.7242 H   0  0  0  0  0  0  0  0  0  0  0  0
    3.0571    3.9559   -2.3973 H   0  0  0  0  0  0  0  0  0  0  0  0
    0.5341    5.7405   -3.9810 H   0  0  0  0  0  0  0  0  0  0  0  0
    1.4012    7.2957   -4.1931 H   0  0  0  0  0  0  0  0  0  0  0  0
    0.0992    7.1574   -2.9650 H   0  0  0  0  0  0  0  0  0  0  0  0
   -1.0201    6.8925    1.1781 H   0  0  0  0  0  0  0  0  0  0  0  0
   -1.9041    6.0237   -0.1284 H   0  0  0  0  0  0  0  0  0  0  0  0
   -1.6725    7.8071   -0.2131 H   0  0  0  0  0  0  0  0  0  0  0  0
   -0.3356    4.7377    1.1333 H   0  0  0  0  0  0  0  0  0  0  0  0
   -3.6918    0.6813   -1.0667 H   0  0  0  0  0  0  0  0  0  0  0  0
   -5.4626   -0.8352   -0.2543 H   0  0  0  0  0  0  0  0  0  0  0  0
   -5.5894   -1.4418    2.1610 H   0  0  0  0  0  0  0  0  0  0  0  0
   -3.9276   -0.4837    3.7612 H   0  0  0  0  0  0  0  0  0  0  0  0
   -2.1745    1.0698    2.9455 H   0  0  0  0  0  0  0  0  0  0  0  0
   -0.9742    3.0772   -1.2402 H   0  0  0  0  0  0  0  0  0  0  0  0
   -2.0470    1.7536   -1.7023 H   0  0  0  0  0  0  0  0  0  0  0  0
   -3.7587    3.0624   -0.7355 H   0  0  0  0  0  0  0  0  0  0  0  0
   -2.0411   -2.0471   -0.3410 H   0  0  0  0  0  0  0  0  0  0  0  0
   -3.0113   -3.7225    1.2387 H   0  0  0  0  0  0  0  0  0  0  0  0
   -0.2108   -2.4721    4.2668 H   0  0  0  0  0  0  0  0  0  0  0  0
    0.7602   -0.8156    2.6854 H   0  0  0  0  0  0  0  0  0  0  0  0
   -2.6087   -5.1091    3.3440 H   0  0  0  0  0  0  0  0  0  0  0  0
   -3.2321   -3.7394    4.2820 H   0  0  0  0  0  0  0  0  0  0  0  0
   -1.6349   -4.4157    4.6677 H   0  0  0  0  0  0  0  0  0  0  0  0
  1  2  2  0
  1  3  2  0
  1  4  1  0
  1 26  1  0
  4  5  1  0
  4 16  1  0
  5  6  1  0
  5 33  1  0
  5 34  1  0
  6  7  2  0
  6 15  1  0
  7  8  1  0
  7 35  1  0
  8  9  2  0
  8 36  1  0
  9 10  1  0
  9 12  1  0
 10 11  1  0
 11 37  1  0
 11 38  1  0
 11 39  1  0
 12 13  1  0
 12 15  2  0
 13 14  1  0
 14 40  1  0
 14 41  1  0
 14 42  1  0
 15 43  1  0
 16 17  1  1
 16 18  1  0
 16 24  1  0
 18 19  2  0
 18 23  1  0
 19 20  1  0
 19 44  1  0
 20 21  2  0
 20 45  1  0
 21 22  1  0
 21 46  1  0
 22 23  2  0
 22 47  1  0
 23 48  1  0
 24 25  1  0
 24 49  1  0
 24 50  1  0
 25 51  1  0
 26 27  2  0
 26 31  1  0
 27 28  1  0
 27 52  1  0
 28 29  2  0
 28 53  1  0
 29 30  1  0
 29 32  1  0
 30 31  2  0
 30 54  1  0
 31 55  1  0
 32 56  1  0
 32 57  1  0
 32 58  1  0
M  END

