58

S          0.04940       -0.13980       -0.07450
O          1.50940       -0.29130       -0.06650
O         -0.71570       -0.21870       -1.32350
N         -0.28230        1.32310        0.66480
C          0.81330        2.10550        1.26040
C          1.20880        3.27440        0.39110
C          1.97640        3.07020       -0.75900
C          2.18300        4.10940       -1.67100
C          1.60250        5.36810       -1.45870
O          1.72260        6.42610       -2.29830
C          2.47710        6.27540       -3.47850
C          0.82350        5.58020       -0.29620
O          0.22120        6.78080       -0.06190
C         -0.91470        7.04340       -0.88030
C          0.65650        4.54180        0.61540
C         -1.57880        1.98560        0.44740
H         -1.57480        2.82860        1.15630
C         -2.73940        1.08610        0.86000
C         -3.66480        0.57020       -0.05440
C         -4.69870       -0.27030        0.37380
C         -4.80920       -0.61950        1.71940
C         -3.88220       -0.11850        2.64040
C         -2.86420        0.72960        2.21190
C         -1.73530        2.63410       -0.93910
O         -2.77170        3.59690       -0.92990
C         -0.62700       -1.36840        1.03540
C         -1.70240       -2.14970        0.62000
C         -2.26030       -3.06320        1.51380
C         -1.75750       -3.20700        2.81460
C         -0.65470       -2.42310        3.19550
C         -0.08360       -1.50800        2.31450
C         -2.40660       -4.15400        3.78970
H          1.65970        1.42520        1.40670
H          0.47860        2.45830        2.25000
H          2.38120        2.07630       -0.96330
H          2.78670        3.92500       -2.55930
H          3.53090        6.02570       -3.26060
H          2.43960        7.24110       -3.99940
H          2.05690        5.49410       -4.13720
H         -1.64430        6.21610       -0.81690
H         -0.62350        7.19030       -1.93340
H         -1.37310        7.96730       -0.50080
H          0.03440        4.74090        1.49120
H         -3.57110        0.79710       -1.11720
H         -5.41140       -0.66350       -0.35520
H         -5.61040       -1.28370        2.05180
H         -3.95330       -0.39360        3.69520
H         -2.13430        1.10980        2.93090
H         -0.81150        3.16980       -1.18310
H         -1.87510        1.86190       -1.71220
H         -3.60440        3.14740       -0.73270
H         -2.10100       -2.01960       -0.38540
H         -3.11330       -3.66800        1.19620
H         -0.23740       -2.53460        4.19970
H          0.77420       -0.90510        2.61730
H         -2.79720       -5.04970        3.28360
H         -3.25950       -3.66720        4.29440
H         -1.70360       -4.47750        4.57150
