58
rmsd8.gzmat
S          0.00000        0.00000        0.00000
O          1.44380        0.00000        0.00000
O         -0.74390        0.00000       -1.24290
N         -0.55230        1.42840        0.86540
C          0.42740        2.00550        1.80780
C          0.49250        1.13220        3.03650
C          1.71730        0.64480        3.48630
C          1.77230       -0.18230        4.60440
C          0.59480       -0.53710        5.26930
O          0.81650       -1.33570        6.34650
C         -0.29850       -2.01460        6.90620
C         -0.64120       -0.03640        4.81580
O         -1.73760       -0.40740        5.54230
C         -2.98560       -0.33200        4.86470
C         -0.68610        0.80640        3.71170
C         -1.37880        2.39040        0.12450
H         -2.00650        1.81720       -0.63010
C         -0.57950        3.43100       -0.62940
C         -0.19720        4.64240       -0.05380
C          0.53480        5.56950       -0.79380
C          0.88910        5.29010       -2.11160
C          0.51140        4.07860       -2.68910
C         -0.22070        3.15290       -1.95140
C         -2.39350        3.02400        1.11560
O         -3.30840        3.83100        0.41220
C         -0.57450       -1.29850        1.02660
C         -1.93620       -1.58770        1.08800
C         -2.39910       -2.58360        1.94430
C         -1.49900       -3.30030        2.73730
C         -0.13150       -3.02170        2.65610
C          0.32900       -2.02270        1.80380
C         -1.98290       -4.35630        3.66980
H          0.12140        3.03470        2.10780
H          1.43670        2.12490        1.34030
H          2.63690        0.89290        2.95490
H          2.72300       -0.57000        4.96690
H         -0.94480       -1.30690        7.43890
H          0.18310       -2.70640        7.61000
H         -0.86040       -2.56110        6.14460
H         -2.94700       -0.84610        3.89770
H         -3.29250        0.71220        4.74910
H         -3.65990       -0.85570        5.55380
H         -1.63270        1.20390        3.35080
H         -0.46170        4.87740        0.97520
H          0.83050        6.51310       -0.33940
H          1.46010        6.01490       -2.68860
H          0.79050        3.85370       -3.71740
H         -0.51020        2.19950       -2.40790
H         -3.03690        2.24880        1.57270
H         -1.91550        3.61710        1.91080
H         -2.84240        4.51260       -0.11610
H         -2.65540       -1.04410        0.46640
H         -3.46150       -2.80840        1.98720
H          0.57440       -3.57880        3.26850
H          1.40570       -1.81010        1.76100
H         -1.47130       -5.31510        3.49400
H         -3.06000       -4.54960        3.57950
H         -1.79210       -4.07950        4.71820
