58

S         -0.00380       -0.00930       -0.07850
O          1.46380       -0.08600       -0.05620
O         -0.75330       -0.15440       -1.32810
N         -0.41460        1.47760        0.56510
C          0.38370        1.99180        1.68490
C          1.22910        3.18210        1.29730
C          1.07200        4.42140        1.90240
C          1.84460        5.51950        1.48850
C          2.77330        5.38700        0.45820
O          3.55450        6.38210       -0.01910
C          3.42130        7.66870        0.53450
C          2.93750        4.11780       -0.16940
O          3.85250        4.06330       -1.16050
C          4.01580        2.84340       -1.85040
C          2.17050        3.03620        0.25660
C         -1.65110        2.19340        0.16680
H         -1.70210        3.02810        0.88280
C         -2.90300        1.35490        0.36730
C         -3.63350        0.81990       -0.70170
C         -4.76620        0.03490       -0.46660
C         -5.18390       -0.22860        0.84030
C         -4.46230        0.30120        1.91410
C         -3.33530        1.08730        1.67480
C         -1.51770        2.85900       -1.21060
O         -0.58280        3.90720       -1.20270
C         -0.58140       -1.25780        1.06490
C         -1.86480       -1.78930        0.91710
C         -2.31870       -2.72780        1.84010
C         -1.51100       -3.15120        2.90860
C         -0.21960       -2.61350        3.02150
C          0.25460       -1.67570        2.10360
C         -2.01510       -4.18030        3.88670
H          1.02860        1.17760        2.04210
H         -0.28830        2.25630        2.51720
H          0.33550        4.55450        2.69880
H          1.69900        6.48480        1.97200
H          2.39970        8.06870        0.40060
H          4.13100        8.31470        0.00100
H          3.66610        7.67960        1.61250
H          3.07730        2.52160       -2.33580
H          4.35540        2.03500       -1.17920
H          4.77880        3.01990       -2.61960
H          2.28180        2.05520       -0.20450
H         -3.30440        0.98970       -1.72620
H         -5.32130       -0.37770       -1.31250
H         -6.06880       -0.84340        1.02170
H         -4.77780        0.10050        2.94060
H         -2.77240        1.49410        2.51900
H         -1.28300        2.09160       -1.96770
H         -2.49010        3.30650       -1.47130
H          0.27990        3.55850       -0.93050
H         -2.49560       -1.46800        0.08970
H         -3.32610       -3.13700        1.72910
H          0.43060       -2.94180        3.83640
H          1.27060       -1.28540        2.17320
H         -1.37930       -4.23500        4.78210
H         -2.03160       -5.18320        3.42700
H         -3.04450       -3.95620        4.20770
