
     RDKit          3D

 58 60  0  0  0  0  0  0  0  0999 V2000
   -0.1100   -0.0173   -0.0260 S   0  0  0  0  0  0  0  0  0  0  0  0
    1.3544   -0.0812   -0.0350 O   0  0  0  0  0  0  0  0  0  0  0  0
   -0.8774   -0.1088   -1.2755 O   0  0  0  0  0  0  0  0  0  0  0  0
   -0.5943    1.4161    0.7438 N   0  0  0  0  0  0  0  0  0  0  0  0
    0.3570    1.9476    1.7277 C   0  0  0  0  0  0  0  0  0  0  0  0
    0.4614    1.0949    2.9720 C   0  0  0  0  0  0  0  0  0  0  0  0
    1.7045    0.7058    3.4670 C   0  0  0  0  0  0  0  0  0  0  0  0
    1.7830   -0.0807    4.6221 C   0  0  0  0  0  0  0  0  0  0  0  0
    0.6327   -0.4947    5.2884 C   0  0  0  0  0  0  0  0  0  0  0  0
    0.7540   -1.1994    6.4509 O   0  0  0  0  0  0  0  0  0  0  0  0
    0.2899   -2.5377    6.4560 C   0  0  0  0  0  0  0  0  0  0  0  0
   -0.6355   -0.1159    4.7790 C   0  0  0  0  0  0  0  0  0  0  0  0
   -1.7196   -0.5678    5.4633 O   0  0  0  0  0  0  0  0  0  0  0  0
   -3.0020   -0.1535    5.0482 C   0  0  0  0  0  0  0  0  0  0  0  0
   -0.7042    0.6818    3.6368 C   0  0  0  0  0  0  0  0  0  0  0  0
   -1.4163    2.3626   -0.0271 C   0  0  2  0  0  0  0  0  0  0  0  0
   -1.8752    1.7795   -0.8344 H   0  0  0  0  0  0  0  0  0  0  0  0
   -0.5715    3.4522   -0.6766 C   0  0  0  0  0  0  0  0  0  0  0  0
   -0.4782    4.7515   -0.1577 C   0  0  0  0  0  0  0  0  0  0  0  0
    0.3463    5.7065   -0.7637 C   0  0  0  0  0  0  0  0  0  0  0  0
    1.0961    5.3689   -1.8908 C   0  0  0  0  0  0  0  0  0  0  0  0
    1.0164    4.0721   -2.4113 C   0  0  0  0  0  0  0  0  0  0  0  0
    0.1883    3.1242   -1.8114 C   0  0  0  0  0  0  0  0  0  0  0  0
   -2.5672    2.8804    0.8429 C   0  0  0  0  0  0  0  0  0  0  0  0
   -3.4689    3.6773    0.1165 O   0  0  0  0  0  0  0  0  0  0  0  0
   -0.7104   -1.2828    1.0781 C   0  0  0  0  0  0  0  0  0  0  0  0
   -2.0880   -1.4911    1.1835 C   0  0  0  0  0  0  0  0  0  0  0  0
   -2.5595   -2.4080    2.1180 C   0  0  0  0  0  0  0  0  0  0  0  0
   -1.6744   -3.1235    2.9456 C   0  0  0  0  0  0  0  0  0  0  0  0
   -0.2978   -2.9174    2.7856 C   0  0  0  0  0  0  0  0  0  0  0  0
    0.1933   -1.9986    1.8568 C   0  0  0  0  0  0  0  0  0  0  0  0
   -2.2076   -4.0636    3.9937 C   0  0  0  0  0  0  0  0  0  0  0  0
   -0.0096    2.9488    1.9971 H   0  0  0  0  0  0  0  0  0  0  0  0
    1.3531    2.0843    1.2795 H   0  0  0  0  0  0  0  0  0  0  0  0
    2.6152    1.0006    2.9416 H   0  0  0  0  0  0  0  0  0  0  0  0
    2.7456   -0.3894    5.0343 H   0  0  0  0  0  0  0  0  0  0  0  0
   -0.7776   -2.6029    6.1988 H   0  0  0  0  0  0  0  0  0  0  0  0
    0.4411   -2.9213    7.4745 H   0  0  0  0  0  0  0  0  0  0  0  0
    0.8717   -3.1618    5.7529 H   0  0  0  0  0  0  0  0  0  0  0  0
   -3.2289   -0.5001    4.0255 H   0  0  0  0  0  0  0  0  0  0  0  0
   -3.1046    0.9453    5.0851 H   0  0  0  0  0  0  0  0  0  0  0  0
   -3.7176   -0.6035    5.7489 H   0  0  0  0  0  0  0  0  0  0  0  0
   -1.6694    0.9642    3.2198 H   0  0  0  0  0  0  0  0  0  0  0  0
   -1.0457    5.0350    0.7323 H   0  0  0  0  0  0  0  0  0  0  0  0
    0.4044    6.7149   -0.3470 H   0  0  0  0  0  0  0  0  0  0  0  0
    1.7425    6.1121   -2.3634 H   0  0  0  0  0  0  0  0  0  0  0  0
    1.6022    3.7992   -3.2922 H   0  0  0  0  0  0  0  0  0  0  0  0
    0.1300    2.1095   -2.2119 H   0  0  0  0  0  0  0  0  0  0  0  0
   -3.1286    2.0085    1.2119 H   0  0  0  0  0  0  0  0  0  0  0  0
   -2.1755    3.4059    1.7383 H   0  0  0  0  0  0  0  0  0  0  0  0
   -2.9688    4.3829   -0.3167 H   0  0  0  0  0  0  0  0  0  0  0  0
   -2.7756   -0.9371    0.5422 H   0  0  0  0  0  0  0  0  0  0  0  0
   -3.6358   -2.5772    2.2100 H   0  0  0  0  0  0  0  0  0  0  0  0
    0.4057   -3.4744    3.4072 H   0  0  0  0  0  0  0  0  0  0  0  0
    1.2613   -1.8111    1.7505 H   0  0  0  0  0  0  0  0  0  0  0  0
   -1.4181   -4.7155    4.3935 H   0  0  0  0  0  0  0  0  0  0  0  0
   -3.0121   -4.7000    3.5936 H   0  0  0  0  0  0  0  0  0  0  0  0
   -2.6303   -3.4944    4.8390 H   0  0  0  0  0  0  0  0  0  0  0  0
  1  2  2  0
  1  3  2  0
  1  4  1  0
  1 26  1  0
  4  5  1  0
  4 16  1  0
  5  6  1  0
  5 33  1  0
  5 34  1  0
  6  7  2  0
  6 15  1  0
  7  8  1  0
  7 35  1  0
  8  9  2  0
  8 36  1  0
  9 10  1  0
  9 12  1  0
 10 11  1  0
 11 37  1  0
 11 38  1  0
 11 39  1  0
 12 13  1  0
 12 15  2  0
 13 14  1  0
 14 40  1  0
 14 41  1  0
 14 42  1  0
 15 43  1  0
 16 17  1  6
 16 18  1  0
 16 24  1  0
 18 19  2  0
 18 23  1  0
 19 20  1  0
 19 44  1  0
 20 21  2  0
 20 45  1  0
 21 22  1  0
 21 46  1  0
 22 23  2  0
 22 47  1  0
 23 48  1  0
 24 25  1  0
 24 49  1  0
 24 50  1  0
 25 51  1  0
 26 27  2  0
 26 31  1  0
 27 28  1  0
 27 52  1  0
 28 29  2  0
 28 53  1  0
 29 30  1  0
 29 32  1  0
 30 31  2  0
 30 54  1  0
 31 55  1  0
 32 56  1  0
 32 57  1  0
 32 58  1  0
M  END

