58

S         -0.06790       -0.07040        0.10190
O          1.39400       -0.10560        0.00590
O         -0.88300       -0.22620       -1.11370
N         -0.49470        1.38100        0.86860
C         -1.89850        1.79480        0.66350
C         -2.87950        0.81710        1.26620
C         -2.85500        0.55920        2.63910
C         -3.66900       -0.43580        3.17730
C         -4.50190       -1.20040        2.36090
O         -5.15890       -2.26330        2.91390
C         -6.57780       -2.26210        2.84970
C         -4.54350       -0.93520        0.97350
O         -5.31610       -1.76350        0.22060
C         -5.33820       -1.58460       -1.17890
C         -3.74360        0.08370        0.44490
C          0.46280        2.48880        1.04010
H         -0.01920        3.12660        1.79740
C          0.68450        3.35570       -0.19160
C          0.72940        2.83060       -1.49140
C          0.99670        3.66160       -2.58200
C          1.23130        5.02650       -2.39480
C          1.18510        5.56070       -1.10500
C          0.90750        4.73170       -0.01500
C          1.79960        2.10280        1.71760
O          2.41830        3.25330        2.25300
C         -0.58980       -1.33470        1.25020
C         -1.56170       -2.24900        0.84550
C         -2.03220       -3.18800        1.75910
C         -1.54030       -3.23060        3.07170
C         -0.51740       -2.33790        3.43210
C         -0.03740       -1.38960        2.53050
C         -2.15160       -4.17690        4.06980
H         -2.11340        1.95040       -0.40540
H         -1.99110        2.77120        1.16100
H         -2.16460        1.10820        3.28270
H         -3.64450       -0.67580        4.24160
H         -6.99250       -1.35740        3.32970
H         -6.91820       -3.14730        3.40460
H         -6.93850       -2.31940        1.81190
H         -4.33440       -1.70690       -1.62210
H         -5.72840       -0.58980       -1.45800
H         -6.00580       -2.35750       -1.58160
H         -3.71050        0.25700       -0.62940
H          0.54590        1.77160       -1.66730
H          1.02210        3.23440       -3.58740
H          1.44130        5.67190       -3.25110
H          1.35450        6.62860       -0.94590
H          0.85720        5.15610        0.99080
H          1.57400        1.43490        2.56340
H          2.45450        1.56320        1.02200
H          2.82670        3.73530        1.52180
H         -1.96310       -2.18860       -0.16470
H         -2.83800       -3.86380        1.46400
H         -0.10790       -2.37060        4.44480
H          0.73990       -0.68410        2.82650
H         -2.12630       -5.21660        3.70560
H         -3.21100       -3.91280        4.22620
H         -1.63570       -4.13960        5.04000
