58
rmsd6.gzmat
S          0.00000        0.00000        0.00000
O          1.44920        0.00000        0.00000
O         -0.73810        0.00000       -1.24360
N         -0.52290        1.38310        0.92940
C          0.47430        2.08480        1.75670
C          1.19010        3.21070        1.05370
C          0.80880        4.52710        1.27020
C          1.45020        5.57160        0.59350
C          2.46670        5.28590       -0.30500
O          3.17040        6.19080       -1.03650
C          2.70500        7.53350       -0.99880
C          2.86840        3.93780       -0.51460
O          3.88320        3.78740       -1.40800
C          4.18060        2.45050       -1.79650
C          2.24100        2.91560        0.17540
C         -1.62220        2.22800        0.43920
H         -1.76390        3.07220        1.18040
C         -2.90040        1.41040        0.42360
C         -3.41340        0.83770       -0.74020
C         -4.60330        0.11230       -0.69970
C         -5.28280       -0.05300        0.50470
C         -4.76570        0.50510        1.67310
C         -3.58070        1.23440        1.63240
C         -1.33930        2.91080       -0.92630
O         -2.33680        3.88170       -1.15590
C         -0.53560       -1.31990        1.02020
C         -1.83150       -1.82080        0.91320
C         -2.26520       -2.82180        1.77780
C         -1.40130       -3.33100        2.75190
C         -0.09310       -2.84550        2.83710
C          0.33810       -1.84440        1.97210
C         -1.87480       -4.39180        3.68450
H          1.22170        1.34600        2.13930
H         -0.05560        2.46590        2.66500
H          0.00130        4.76410        1.95960
H          1.13440        6.59480        0.77600
H          1.66660        7.60340       -1.33750
H          3.37610        8.02520       -1.71680
H          2.83230        7.96280       -0.00100
H          3.29670        1.94640       -2.20360
H          4.60170        1.88580       -0.95890
H          4.93450        2.60330       -2.57940
H          2.55260        1.87470        0.03790
H         -2.87200        0.92300       -1.68810
H         -4.99700       -0.32930       -1.61290
H         -6.21180       -0.61730        0.53540
H         -5.28850        0.37050        2.61700
H         -3.17650        1.66150        2.54880
H         -0.40680        3.50830       -0.89680
H         -1.29230        2.20750       -1.77620
H         -3.21260        3.45750       -1.25840
H         -2.52590       -1.43290        0.15650
H         -3.28070       -3.20220        1.69820
H          0.58920       -3.24870        3.58060
H          1.37010       -1.48230        2.04850
H         -1.93720       -5.36620        3.17420
H         -2.87670       -4.17160        4.08170
H         -1.21150       -4.52700        4.54990
