58
rmsd107.gzmat
S          0.00000        0.00000        0.00000
O          1.44940        0.00000        0.00000
O         -0.74100        0.00000       -1.24250
N         -0.51070        1.38870        0.91500
C          0.43220        1.98980        1.86970
C          1.20740        3.16310        1.32470
C          0.88710        4.45470        1.71650
C          1.59290        5.54870        1.19970
C          2.61300        5.33810        0.28560
O          3.35530        6.29720       -0.32660
C          3.04570        7.64560        0.00080
C          2.95160        4.01120       -0.10430
O          3.95420        3.94010       -1.01880
C          4.34150        2.63390       -1.42950
C          2.25760        2.93790        0.42460
C         -1.58640        2.27300        0.44190
H         -1.62620        3.17070        1.13220
C         -2.89640        1.51650        0.57320
C         -3.47210        0.83540       -0.49920
C         -4.68590        0.17040       -0.33450
C         -5.32320        0.17190        0.90440
C         -4.74060        0.83610        1.98270
C         -3.53140        1.50620        1.81790
C         -1.40870        2.86190       -0.98410
O         -0.85480        4.15400       -0.89550
C         -0.53860       -1.33030        1.00570
C         -1.83320       -1.82880        0.87840
C         -2.26820       -2.86330        1.70300
C         -1.40430       -3.41130        2.65430
C         -0.10080       -2.91690        2.77050
C          0.33020       -1.88150        1.94740
C         -1.86470       -4.51110        3.54760
H          1.14860        1.21100        2.23210
H         -0.15300        2.29560        2.77300
H          0.07830        4.63650        2.42140
H          1.32200        6.55120        1.51830
H          2.01700        7.89370       -0.27820
H          3.75650        8.19890       -0.62890
H          3.23520        7.84610        1.05890
H          3.50780        2.10170       -1.90160
H          4.74600        2.06210       -0.58870
H          5.12730        2.85310       -2.16430
H          2.51520        1.90920        0.14730
H         -2.96770        0.80170       -1.47050
H         -5.13480       -0.35090       -1.17720
H         -6.27190       -0.34350        1.03090
H         -5.23160        0.83150        2.95260
H         -3.07760        2.01810        2.66430
H         -0.80610        2.23750       -1.66440
H         -2.39140        3.05980       -1.45540
H          0.09720        4.11670       -0.66110
H         -2.52620       -1.41730        0.13280
H         -3.28320       -3.24050        1.60510
H          0.57760       -3.34450        3.50470
H          1.35950       -1.51690        2.04360
H         -1.09230       -5.28120        3.68820
H         -2.75840       -5.02350        3.16550
H         -2.12070       -4.12420        4.54650
