58
rmsd198.gzmat
S          0.00000        0.00000        0.00000
O          1.44860        0.00000        0.00000
O         -0.73530        0.00000       -1.24590
N         -0.48200        1.42020        0.91800
C         -1.87680        1.85680        0.67370
C         -2.81020        0.92880        1.41060
C         -2.74310        0.83480        2.79880
C         -3.57640       -0.04610        3.48120
C         -4.48170       -0.83970        2.77170
O         -5.16960       -1.69270        3.57660
C         -6.25850       -2.40990        3.01310
C         -4.56510       -0.72280        1.36890
O         -5.48500       -1.53450        0.76960
C         -5.69300       -1.34420       -0.62320
C         -3.72780        0.15790        0.69380
C          0.44370        2.54770        1.10630
H         -0.07480        3.27380        1.80770
C          0.79190        3.28530       -0.17000
C          1.77970        2.83170       -1.04310
C          2.07160        3.54570       -2.20350
C          1.37790        4.71700       -2.49890
C          0.38820        5.17330       -1.62980
C          0.09740        4.46070       -0.46950
C          1.71620        2.09660        1.87290
O          2.34020        3.25340        2.39120
C         -0.59070       -1.32270        0.98440
C         -1.45190       -2.26330        0.42000
C         -1.99510       -3.27350        1.20830
C         -1.68410       -3.34420        2.56930
C         -0.78890       -2.42380        3.12220
C         -0.24180       -1.41810        2.33080
C         -2.33040       -4.37000        3.43330
H         -2.11720        1.90170       -0.41740
H         -2.02840        2.89730        1.04730
H         -2.02070        1.43710        3.35010
H         -3.52930       -0.13640        4.56480
H         -6.98670       -1.73280        2.55480
H         -6.68990       -2.90360        3.89350
H         -5.89700       -3.14870        2.28950
H         -4.80100       -1.62990       -1.19070
H         -5.99060       -0.31440       -0.84330
H         -6.52090       -2.03550       -0.82970
H         -3.75950        0.23740       -0.39220
H          2.32810        1.90580       -0.83380
H          2.84130        3.18160       -2.88200
H          1.60680        5.27250       -3.40590
H         -0.15710        6.08640       -1.85860
H         -0.67280        4.82890        0.20500
H          1.45940        1.51600        2.77750
H          2.43830        1.52970        1.25810
H          2.67250        3.81750        1.66380
H         -1.72270       -2.21150       -0.64120
H         -2.67850       -3.99570        0.76910
H         -0.53280       -2.48350        4.17690
H          0.44890       -0.70200        2.78610
H         -2.63850       -5.26360        2.87440
H         -3.24170       -3.95310        3.89860
H         -1.67860       -4.70670        4.25090
