58
rmsd65.gzmat
S          0.00000        0.00000        0.00000
O          1.44980        0.00000        0.00000
O         -0.73380        0.00000       -1.24670
N         -0.51230        1.39370        0.90610
C          0.40060        1.96320        1.90640
C          1.19700        3.15150        1.42810
C          0.95770        4.41290        1.96680
C          1.70090        5.51090        1.53930
C          2.68210        5.35130        0.55880
O          3.36240        6.49690        0.29410
C          4.09980        6.55670       -0.92020
C          2.91260        4.07290        0.00460
O          3.85860        4.02270       -0.97480
C          4.08720        2.75480       -1.57860
C          2.18490        2.98010        0.45610
C         -1.55850        2.29870        0.40630
H         -1.62660        3.17730        1.11870
C         -2.87780        1.54910        0.45280
C         -3.40630        0.89810       -0.66190
C         -4.62190        0.22230       -0.56600
C         -5.30950        0.18450        0.64490
C         -4.77880        0.82470        1.76370
C         -3.56880        1.50660        1.66720
C         -1.29250        2.91990       -0.99110
O         -0.78280        4.22440       -0.83960
C         -0.54300       -1.31580        1.02070
C         -1.86160       -1.76260        0.95160
C         -2.30260       -2.76920        1.80520
C         -1.42270       -3.34230        2.72850
C         -0.09580       -2.90610        2.78020
C          0.34250       -1.89710        1.92730
C         -1.90750       -4.40460        3.65320
H          1.10760        1.17370        2.26590
H         -0.21230        2.24010        2.80130
H          0.18820        4.55410        2.72360
H          1.52630        6.50150        1.95840
H          5.00280        5.94040       -0.84430
H          4.36170        7.62120       -0.97870
H          3.48910        6.26000       -1.77790
H          3.18020        2.38010       -2.06530
H          4.46490        2.03350       -0.84640
H          4.85840        2.99080       -2.32250
H          2.38680        1.97580        0.06710
H         -2.86260        0.89210       -1.61220
H         -5.03140       -0.27760       -1.44130
H         -6.25750       -0.34220        0.71850
H         -5.31000        0.79200        2.71170
H         -3.15740        2.00170        2.54460
H         -0.61890        2.32540       -1.62890
H         -2.23850        3.10110       -1.53720
H          0.12950        4.20930       -0.47920
H         -2.56820       -1.32880        0.23160
H         -3.33510       -3.10640        1.75640
H          0.59630       -3.35420        3.48880
H          1.39010       -1.57590        1.97500
H         -2.47540       -5.18270        3.12140
H         -2.57800       -3.98390        4.41920
H         -1.09310       -4.91310        4.18710
