rmsd198.gzmat
 OpenBabel08211713403D

 58 60  0  0  1  0  0  0  0  0999 V2000
    0.0000    0.0000    0.0000 S   0  0  0  0  0  0  0  0  0  0  0  0
    1.4486    0.0000    0.0000 O   0  0  0  0  0  0  0  0  0  0  0  0
   -0.7353    0.0000   -1.2459 O   0  0  0  0  0  0  0  0  0  0  0  0
   -0.4820    1.4202    0.9180 N   0  0  0  0  0  0  0  0  0  0  0  0
   -1.8768    1.8568    0.6737 C   0  0  0  0  0  0  0  0  0  0  0  0
   -2.8102    0.9288    1.4106 C   0  0  0  0  0  0  0  0  0  0  0  0
   -2.7431    0.8348    2.7988 C   0  0  0  0  0  0  0  0  0  0  0  0
   -3.5764   -0.0461    3.4812 C   0  0  0  0  0  0  0  0  0  0  0  0
   -4.4817   -0.8397    2.7717 C   0  0  0  0  0  0  0  0  0  0  0  0
   -5.1696   -1.6927    3.5766 O   0  0  0  0  0  0  0  0  0  0  0  0
   -6.2585   -2.4099    3.0131 C   0  0  0  0  0  0  0  0  0  0  0  0
   -4.5651   -0.7228    1.3689 C   0  0  0  0  0  0  0  0  0  0  0  0
   -5.4850   -1.5345    0.7696 O   0  0  0  0  0  0  0  0  0  0  0  0
   -5.6930   -1.3442   -0.6232 C   0  0  0  0  0  0  0  0  0  0  0  0
   -3.7278    0.1579    0.6938 C   0  0  0  0  0  0  0  0  0  0  0  0
    0.4437    2.5477    1.1063 C   0  0  2  0  0  0  0  0  0  0  0  0
   -0.0748    3.2738    1.8077 H   0  0  0  0  0  0  0  0  0  0  0  0
    0.7919    3.2853   -0.1700 C   0  0  0  0  0  0  0  0  0  0  0  0
    1.7797    2.8317   -1.0431 C   0  0  0  0  0  0  0  0  0  0  0  0
    2.0716    3.5457   -2.2035 C   0  0  0  0  0  0  0  0  0  0  0  0
    1.3779    4.7170   -2.4989 C   0  0  0  0  0  0  0  0  0  0  0  0
    0.3882    5.1733   -1.6298 C   0  0  0  0  0  0  0  0  0  0  0  0
    0.0974    4.4607   -0.4695 C   0  0  0  0  0  0  0  0  0  0  0  0
    1.7162    2.0966    1.8729 C   0  0  0  0  0  0  0  0  0  0  0  0
    2.3402    3.2534    2.3912 O   0  0  0  0  0  0  0  0  0  0  0  0
   -0.5907   -1.3227    0.9844 C   0  0  0  0  0  0  0  0  0  0  0  0
   -1.4519   -2.2633    0.4200 C   0  0  0  0  0  0  0  0  0  0  0  0
   -1.9951   -3.2735    1.2083 C   0  0  0  0  0  0  0  0  0  0  0  0
   -1.6841   -3.3442    2.5693 C   0  0  0  0  0  0  0  0  0  0  0  0
   -0.7889   -2.4238    3.1222 C   0  0  0  0  0  0  0  0  0  0  0  0
   -0.2418   -1.4181    2.3308 C   0  0  0  0  0  0  0  0  0  0  0  0
   -2.3304   -4.3700    3.4333 C   0  0  0  0  0  0  0  0  0  0  0  0
   -2.1172    1.9017   -0.4174 H   0  0  0  0  0  0  0  0  0  0  0  0
   -2.0284    2.8973    1.0473 H   0  0  0  0  0  0  0  0  0  0  0  0
   -2.0207    1.4371    3.3501 H   0  0  0  0  0  0  0  0  0  0  0  0
   -3.5293   -0.1364    4.5648 H   0  0  0  0  0  0  0  0  0  0  0  0
   -6.9867   -1.7328    2.5548 H   0  0  0  0  0  0  0  0  0  0  0  0
   -6.6899   -2.9036    3.8935 H   0  0  0  0  0  0  0  0  0  0  0  0
   -5.8970   -3.1487    2.2895 H   0  0  0  0  0  0  0  0  0  0  0  0
   -4.8010   -1.6299   -1.1907 H   0  0  0  0  0  0  0  0  0  0  0  0
   -5.9906   -0.3144   -0.8433 H   0  0  0  0  0  0  0  0  0  0  0  0
   -6.5209   -2.0355   -0.8297 H   0  0  0  0  0  0  0  0  0  0  0  0
   -3.7595    0.2374   -0.3922 H   0  0  0  0  0  0  0  0  0  0  0  0
    2.3281    1.9058   -0.8338 H   0  0  0  0  0  0  0  0  0  0  0  0
    2.8413    3.1816   -2.8820 H   0  0  0  0  0  0  0  0  0  0  0  0
    1.6068    5.2725   -3.4059 H   0  0  0  0  0  0  0  0  0  0  0  0
   -0.1571    6.0864   -1.8586 H   0  0  0  0  0  0  0  0  0  0  0  0
   -0.6728    4.8289    0.2050 H   0  0  0  0  0  0  0  0  0  0  0  0
    1.4594    1.5160    2.7775 H   0  0  0  0  0  0  0  0  0  0  0  0
    2.4383    1.5297    1.2581 H   0  0  0  0  0  0  0  0  0  0  0  0
    2.6725    3.8175    1.6638 H   0  0  0  0  0  0  0  0  0  0  0  0
   -1.7227   -2.2115   -0.6412 H   0  0  0  0  0  0  0  0  0  0  0  0
   -2.6785   -3.9957    0.7691 H   0  0  0  0  0  0  0  0  0  0  0  0
   -0.5328   -2.4835    4.1769 H   0  0  0  0  0  0  0  0  0  0  0  0
    0.4489   -0.7020    2.7861 H   0  0  0  0  0  0  0  0  0  0  0  0
   -2.6385   -5.2636    2.8744 H   0  0  0  0  0  0  0  0  0  0  0  0
   -3.2417   -3.9531    3.8986 H   0  0  0  0  0  0  0  0  0  0  0  0
   -1.6786   -4.7067    4.2509 H   0  0  0  0  0  0  0  0  0  0  0  0
  1  2  2  0  0  0  0
  1  4  1  0  0  0  0
  1 26  1  0  0  0  0
  3  1  2  0  0  0  0
  4 16  1  0  0  0  0
  5  4  1  0  0  0  0
  5 34  1  0  0  0  0
  5  6  1  0  0  0  0
  6  7  2  0  0  0  0
  7 35  1  0  0  0  0
  7  8  1  0  0  0  0
  8 36  1  0  0  0  0
  9  8  2  0  0  0  0
  9 10  1  0  0  0  0
 11 10  1  0  0  0  0
 11 38  1  0  0  0  0
 12  9  1  0  0  0  0
 13 12  1  0  0  0  0
 14 13  1  0  0  0  0
 15 12  2  0  0  0  0
 15  6  1  0  0  0  0
 16 17  1  1  0  0  0
 16 24  1  0  0  0  0
 18 16  1  0  0  0  0
 19 44  1  0  0  0  0
 19 18  2  0  0  0  0
 20 19  1  0  0  0  0
 21 20  2  0  0  0  0
 21 22  1  0  0  0  0
 22 23  2  0  0  0  0
 23 18  1  0  0  0  0
 23 48  1  0  0  0  0
 24 25  1  0  0  0  0
 24 49  1  0  0  0  0
 26 31  1  0  0  0  0
 27 26  2  0  0  0  0
 27 28  1  0  0  0  0
 28 29  2  0  0  0  0
 29 30  1  0  0  0  0
 29 32  1  0  0  0  0
 30 54  1  0  0  0  0
 31 55  1  0  0  0  0
 31 30  2  0  0  0  0
 32 57  1  0  0  0  0
 32 58  1  0  0  0  0
 33  5  1  0  0  0  0
 37 11  1  0  0  0  0
 39 11  1  0  0  0  0
 40 14  1  0  0  0  0
 41 14  1  0  0  0  0
 42 14  1  0  0  0  0
 43 15  1  0  0  0  0
 45 20  1  0  0  0  0
 46 21  1  0  0  0  0
 47 22  1  0  0  0  0
 50 24  1  0  0  0  0
 51 25  1  0  0  0  0
 52 27  1  0  0  0  0
 53 28  1  0  0  0  0
 56 32  1  0  0  0  0
M  END
$$$$
