
     RDKit          3D

 58 60  0  0  0  0  0  0  0  0999 V2000
   -0.0764   -0.0110    0.1114 S   0  0  0  0  0  0  0  0  0  0  0  0
    1.3880   -0.0483    0.0525 O   0  0  0  0  0  0  0  0  0  0  0  0
   -0.8624   -0.1744   -1.1197 O   0  0  0  0  0  0  0  0  0  0  0  0
   -0.5237    1.4357    0.8676 N   0  0  0  0  0  0  0  0  0  0  0  0
   -1.9130    1.8538    0.5938 C   0  0  0  0  0  0  0  0  0  0  0  0
   -2.9373    0.8866    1.1336 C   0  0  0  0  0  0  0  0  0  0  0  0
   -3.8433    0.2456    0.2914 C   0  0  0  0  0  0  0  0  0  0  0  0
   -4.7703   -0.6653    0.8096 C   0  0  0  0  0  0  0  0  0  0  0  0
   -4.8039   -0.9528    2.1777 C   0  0  0  0  0  0  0  0  0  0  0  0
   -5.6952   -1.8048    2.7545 O   0  0  0  0  0  0  0  0  0  0  0  0
   -6.6177   -2.4836    1.9366 C   0  0  0  0  0  0  0  0  0  0  0  0
   -3.8702   -0.3214    3.0406 C   0  0  0  0  0  0  0  0  0  0  0  0
   -3.8334   -0.5013    4.3870 O   0  0  0  0  0  0  0  0  0  0  0  0
   -4.0417   -1.7835    4.9556 C   0  0  0  0  0  0  0  0  0  0  0  0
   -2.9615    0.5857    2.5016 C   0  0  0  0  0  0  0  0  0  0  0  0
    0.4300    2.5391    1.0828 C   0  0  2  0  0  0  0  0  0  0  0  0
   -0.0820    3.1769    1.8201 H   0  0  0  0  0  0  0  0  0  0  0  0
    0.7080    3.4080   -0.1360 C   0  0  0  0  0  0  0  0  0  0  0  0
    0.8001    2.8882   -1.4354 C   0  0  0  0  0  0  0  0  0  0  0  0
    1.1160    3.7217   -2.5111 C   0  0  0  0  0  0  0  0  0  0  0  0
    1.3531    5.0839   -2.3087 C   0  0  0  0  0  0  0  0  0  0  0  0
    1.2602    5.6131   -1.0194 C   0  0  0  0  0  0  0  0  0  0  0  0
    0.9337    4.7817    0.0551 C   0  0  0  0  0  0  0  0  0  0  0  0
    1.7341    2.1431    1.8155 C   0  0  0  0  0  0  0  0  0  0  0  0
    2.3447    3.2881    2.3709 O   0  0  0  0  0  0  0  0  0  0  0  0
   -0.6003   -1.2861    1.2490 C   0  0  0  0  0  0  0  0  0  0  0  0
   -1.5751   -2.1960    0.8491 C   0  0  0  0  0  0  0  0  0  0  0  0
   -1.9443   -3.2193    1.7238 C   0  0  0  0  0  0  0  0  0  0  0  0
   -1.3439   -3.3506    2.9835 C   0  0  0  0  0  0  0  0  0  0  0  0
   -0.3660   -2.4125    3.3592 C   0  0  0  0  0  0  0  0  0  0  0  0
    0.0145   -1.3869    2.4994 C   0  0  0  0  0  0  0  0  0  0  0  0
   -1.7050   -4.4878    3.9036 C   0  0  0  0  0  0  0  0  0  0  0  0
   -2.0728    2.0156   -0.4835 H   0  0  0  0  0  0  0  0  0  0  0  0
   -2.0274    2.8287    1.0908 H   0  0  0  0  0  0  0  0  0  0  0  0
   -3.8140    0.4365   -0.7828 H   0  0  0  0  0  0  0  0  0  0  0  0
   -5.4735   -1.1496    0.1330 H   0  0  0  0  0  0  0  0  0  0  0  0
   -7.2876   -1.7839    1.4056 H   0  0  0  0  0  0  0  0  0  0  0  0
   -7.2191   -3.1178    2.6014 H   0  0  0  0  0  0  0  0  0  0  0  0
   -6.1114   -3.1223    1.1901 H   0  0  0  0  0  0  0  0  0  0  0  0
   -3.6522   -2.5788    4.3043 H   0  0  0  0  0  0  0  0  0  0  0  0
   -5.1073   -1.9762    5.1483 H   0  0  0  0  0  0  0  0  0  0  0  0
   -3.4889   -1.7950    5.9070 H   0  0  0  0  0  0  0  0  0  0  0  0
   -2.2440    1.0412    3.1864 H   0  0  0  0  0  0  0  0  0  0  0  0
    0.6166    1.8313   -1.6236 H   0  0  0  0  0  0  0  0  0  0  0  0
    1.1771    3.2985   -3.5166 H   0  0  0  0  0  0  0  0  0  0  0  0
    1.6010    5.7312   -3.1533 H   0  0  0  0  0  0  0  0  0  0  0  0
    1.4307    6.6790   -0.8490 H   0  0  0  0  0  0  0  0  0  0  0  0
    0.8461    5.2024    1.0599 H   0  0  0  0  0  0  0  0  0  0  0  0
    1.4656    1.4830    2.6551 H   0  0  0  0  0  0  0  0  0  0  0  0
    2.4099    1.5923    1.1491 H   0  0  0  0  0  0  0  0  0  0  0  0
    2.7804    3.7667    1.6533 H   0  0  0  0  0  0  0  0  0  0  0  0
   -2.0398   -2.0877   -0.1298 H   0  0  0  0  0  0  0  0  0  0  0  0
   -2.7155   -3.9307    1.4182 H   0  0  0  0  0  0  0  0  0  0  0  0
    0.1091   -2.4941    4.3402 H   0  0  0  0  0  0  0  0  0  0  0  0
    0.7835   -0.6719    2.7936 H   0  0  0  0  0  0  0  0  0  0  0  0
   -0.9589   -5.2979    3.8319 H   0  0  0  0  0  0  0  0  0  0  0  0
   -2.6845   -4.9195    3.6503 H   0  0  0  0  0  0  0  0  0  0  0  0
   -1.7307   -4.1638    4.9551 H   0  0  0  0  0  0  0  0  0  0  0  0
  1  2  2  0
  1  3  2  0
  1  4  1  0
  1 26  1  0
  4  5  1  0
  4 16  1  0
  5  6  1  0
  5 33  1  0
  5 34  1  0
  6  7  2  0
  6 15  1  0
  7  8  1  0
  7 35  1  0
  8  9  2  0
  8 36  1  0
  9 10  1  0
  9 12  1  0
 10 11  1  0
 11 37  1  0
 11 38  1  0
 11 39  1  0
 12 13  1  0
 12 15  2  0
 13 14  1  0
 14 40  1  0
 14 41  1  0
 14 42  1  0
 15 43  1  0
 16 17  1  1
 16 18  1  0
 16 24  1  0
 18 19  2  0
 18 23  1  0
 19 20  1  0
 19 44  1  0
 20 21  2  0
 20 45  1  0
 21 22  1  0
 21 46  1  0
 22 23  2  0
 22 47  1  0
 23 48  1  0
 24 25  1  0
 24 49  1  0
 24 50  1  0
 25 51  1  0
 26 27  2  0
 26 31  1  0
 27 28  1  0
 27 52  1  0
 28 29  2  0
 28 53  1  0
 29 30  1  0
 29 32  1  0
 30 31  2  0
 30 54  1  0
 31 55  1  0
 32 56  1  0
 32 57  1  0
 32 58  1  0
M  END

