58

S         -0.00420       -0.00640        0.00500
O          1.46180       -0.04500        0.04740
O         -0.72010       -0.11530       -1.27340
N         -0.54420        1.42850        0.74240
C          0.32310        1.94910        1.81020
C          0.29540        1.08290        3.04800
C          1.46490        0.59300        3.61590
C          1.41380       -0.27910        4.71500
C          0.18810       -0.68420        5.23940
O          0.02640       -1.58010        6.24470
C          1.17300       -2.16030        6.81850
C         -1.01180       -0.16470        4.68120
O         -2.16330       -0.61140        5.24040
C         -3.38260       -0.07110        4.78610
C         -0.94200        0.71330        3.60640
C         -1.26790        2.39000       -0.10490
H         -1.67030        1.81100       -0.94480
C         -0.34050        3.45130       -0.68470
C         -0.25590        4.75160       -0.16690
C          0.64440        5.67890       -0.70420
C          1.47930        5.31200       -1.76010
C          1.40840        4.01380       -2.27840
C          0.50500        3.09400       -1.74770
C         -2.47740        2.94560        0.65550
O         -3.28780        3.76140       -0.15330
C         -0.61860       -1.27170        1.10070
C         -1.99470       -1.48350        1.19940
C         -2.47140       -2.37170        2.16190
C         -1.59350       -3.04400        3.02890
C         -0.21420       -2.85310        2.85900
C          0.28150       -1.97200        1.90050
C         -2.10650       -3.88510        4.16560
H         -0.05410        2.95490        2.04560
H          1.35780        2.07120        1.45400
H          2.43150        0.85570        3.18110
H          2.34320       -0.66610        5.13130
H          1.76340       -2.72470        6.07340
H          0.82030       -2.85240        7.59440
H          1.82790       -1.40180        7.28390
H         -3.55700       -0.29620        3.72010
H         -3.41870        1.02370        4.92930
H         -4.17460       -0.53890        5.38560
H         -1.85480        1.07670        3.13790
H         -0.89040        5.05740        0.66890
H          0.69420        6.68870       -0.28980
H          2.18470        6.03350       -2.17890
H          2.06050        3.71780       -3.10360
H          0.45380        2.07850       -2.14690
H         -3.09340        2.09200        0.97690
H         -2.15380        3.46800        1.57940
H         -2.73040        4.44690       -0.54690
H         -2.67960       -0.94580        0.54150
H         -3.54790       -2.53510        2.25740
H          0.48370       -3.37900        3.51460
H          1.34940       -1.78810        1.79160
H         -1.52050       -4.80990        4.28280
H         -3.16320       -4.15780        4.02930
H         -2.01780       -3.31060        5.10280
