58

S         -0.11000       -0.01730       -0.02600
O          1.35440       -0.08120       -0.03500
O         -0.87740       -0.10880       -1.27550
N         -0.59430        1.41610        0.74380
C          0.35700        1.94760        1.72770
C          0.46140        1.09490        2.97200
C          1.70450        0.70580        3.46700
C          1.78300       -0.08070        4.62210
C          0.63270       -0.49470        5.28840
O          0.75400       -1.19940        6.45090
C          0.28990       -2.53770        6.45600
C         -0.63550       -0.11590        4.77900
O         -1.71960       -0.56780        5.46330
C         -3.00200       -0.15350        5.04820
C         -0.70420        0.68180        3.63680
C         -1.41630        2.36260       -0.02710
H         -1.87520        1.77950       -0.83440
C         -0.57150        3.45220       -0.67660
C         -0.47820        4.75150       -0.15770
C          0.34630        5.70650       -0.76370
C          1.09610        5.36890       -1.89080
C          1.01640        4.07210       -2.41130
C          0.18830        3.12420       -1.81140
C         -2.56720        2.88040        0.84290
O         -3.46890        3.67730        0.11650
C         -0.71040       -1.28280        1.07810
C         -2.08800       -1.49110        1.18350
C         -2.55950       -2.40800        2.11800
C         -1.67440       -3.12350        2.94560
C         -0.29780       -2.91740        2.78560
C          0.19330       -1.99860        1.85680
C         -2.20760       -4.06360        3.99370
H         -0.00960        2.94880        1.99710
H          1.35310        2.08430        1.27950
H          2.61520        1.00060        2.94160
H          2.74560       -0.38940        5.03430
H         -0.77760       -2.60290        6.19880
H          0.44110       -2.92130        7.47450
H          0.87170       -3.16180        5.75290
H         -3.22890       -0.50010        4.02550
H         -3.10460        0.94530        5.08510
H         -3.71760       -0.60350        5.74890
H         -1.66940        0.96420        3.21980
H         -1.04570        5.03500        0.73230
H          0.40440        6.71490       -0.34700
H          1.74250        6.11210       -2.36340
H          1.60220        3.79920       -3.29220
H          0.13000        2.10950       -2.21190
H         -3.12860        2.00850        1.21190
H         -2.17550        3.40590        1.73830
H         -2.96880        4.38290       -0.31670
H         -2.77560       -0.93710        0.54220
H         -3.63580       -2.57720        2.21000
H          0.40570       -3.47440        3.40720
H          1.26130       -1.81110        1.75050
H         -1.41810       -4.71550        4.39350
H         -3.01210       -4.70000        3.59360
H         -2.63030       -3.49440        4.83900
