58

S         -0.07640       -0.01100        0.11140
O          1.38800       -0.04830        0.05250
O         -0.86240       -0.17440       -1.11970
N         -0.52370        1.43570        0.86760
C         -1.91300        1.85380        0.59380
C         -2.93730        0.88660        1.13360
C         -3.84330        0.24560        0.29140
C         -4.77030       -0.66530        0.80960
C         -4.80390       -0.95280        2.17770
O         -5.69520       -1.80480        2.75450
C         -6.61770       -2.48360        1.93660
C         -3.87020       -0.32140        3.04060
O         -3.83340       -0.50130        4.38700
C         -4.04170       -1.78350        4.95560
C         -2.96150        0.58570        2.50160
C          0.43000        2.53910        1.08280
H         -0.08200        3.17690        1.82010
C          0.70800        3.40800       -0.13600
C          0.80010        2.88820       -1.43540
C          1.11600        3.72170       -2.51110
C          1.35310        5.08390       -2.30870
C          1.26020        5.61310       -1.01940
C          0.93370        4.78170        0.05510
C          1.73410        2.14310        1.81550
O          2.34470        3.28810        2.37090
C         -0.60030       -1.28610        1.24900
C         -1.57510       -2.19600        0.84910
C         -1.94430       -3.21930        1.72380
C         -1.34390       -3.35060        2.98350
C         -0.36600       -2.41250        3.35920
C          0.01450       -1.38690        2.49940
C         -1.70500       -4.48780        3.90360
H         -2.07280        2.01560       -0.48350
H         -2.02740        2.82870        1.09080
H         -3.81400        0.43650       -0.78280
H         -5.47350       -1.14960        0.13300
H         -7.28760       -1.78390        1.40560
H         -7.21910       -3.11780        2.60140
H         -6.11140       -3.12230        1.19010
H         -3.65220       -2.57880        4.30430
H         -5.10730       -1.97620        5.14830
H         -3.48890       -1.79500        5.90700
H         -2.24400        1.04120        3.18640
H          0.61660        1.83130       -1.62360
H          1.17710        3.29850       -3.51660
H          1.60100        5.73120       -3.15330
H          1.43070        6.67900       -0.84900
H          0.84610        5.20240        1.05990
H          1.46560        1.48300        2.65510
H          2.40990        1.59230        1.14910
H          2.78040        3.76670        1.65330
H         -2.03980       -2.08770       -0.12980
H         -2.71550       -3.93070        1.41820
H          0.10910       -2.49410        4.34020
H          0.78350       -0.67190        2.79360
H         -0.95890       -5.29790        3.83190
H         -2.68450       -4.91950        3.65030
H         -1.73070       -4.16380        4.95510
