58

S          0.03780       -0.09030       -0.01670
O          1.50190       -0.17270        0.03210
O         -0.69480       -0.21830       -1.28110
N         -0.38080        1.36570        0.69790
C          0.67170        2.22760        1.25970
C          1.08810        3.33840        0.32370
C          2.04450        3.11020       -0.66900
C          2.31370        4.10550       -1.61180
C          1.62720        5.32110       -1.60110
O          1.94450        6.26350       -2.53330
C          0.93000        6.62950       -3.45700
C          0.64910        5.55260       -0.60330
O         -0.01480        6.73550       -0.65030
C         -1.21300        6.85710        0.09080
C          0.41270        4.56650        0.35940
C         -1.70630        1.95110        0.44790
H         -1.74960        2.81580        1.12880
C         -2.82430        1.01110        0.88910
C         -3.75190        0.45830       -0.00060
C         -4.74790       -0.41280        0.45620
C         -4.81810       -0.75410        1.80630
C         -3.88880       -0.21470        2.70320
C         -2.90860        0.66220        2.24620
C         -1.89110        2.54930       -0.95740
O         -2.93100        3.51080       -0.95560
C         -0.60800       -1.33530        1.09300
C         -1.65000       -2.15720        0.66970
C         -2.18430       -3.08540        1.56210
C         -1.69080       -3.20450        2.86940
C         -0.62110       -2.38010        3.25780
C         -0.07320       -1.44950        2.37780
C         -2.31690       -4.17100        3.84030
H          1.52910        1.58840        1.49770
H          0.28370        2.64560        2.20340
H          2.54460        2.14140       -0.72420
H          3.05710        3.95590       -2.39730
H          0.53410        5.74050       -3.98100
H          1.40120        7.29570       -4.19310
H          0.09920        7.15740       -2.96500
H         -1.02010        6.89250        1.17810
H         -1.90410        6.02370       -0.12840
H         -1.67250        7.80710       -0.21310
H         -0.33560        4.73770        1.13330
H         -3.69180        0.68130       -1.06670
H         -5.46260       -0.83520       -0.25430
H         -5.58940       -1.44180        2.16100
H         -3.92760       -0.48370        3.76120
H         -2.17450        1.06980        2.94550
H         -0.97420        3.07720       -1.24020
H         -2.04700        1.75360       -1.70230
H         -3.75870        3.06240       -0.73550
H         -2.04110       -2.04710       -0.34100
H         -3.01130       -3.72250        1.23870
H         -0.21080       -2.47210        4.26680
H          0.76020       -0.81560        2.68540
H         -2.60870       -5.10910        3.34400
H         -3.23210       -3.73940        4.28200
H         -1.63490       -4.41570        4.66770
