
     RDKit          3D

 58 60  0  0  0  0  0  0  0  0999 V2000
   -0.0042   -0.0064    0.0050 S   0  0  0  0  0  0  0  0  0  0  0  0
    1.4618   -0.0450    0.0474 O   0  0  0  0  0  0  0  0  0  0  0  0
   -0.7201   -0.1153   -1.2734 O   0  0  0  0  0  0  0  0  0  0  0  0
   -0.5442    1.4285    0.7424 N   0  0  0  0  0  0  0  0  0  0  0  0
    0.3231    1.9491    1.8102 C   0  0  0  0  0  0  0  0  0  0  0  0
    0.2954    1.0829    3.0480 C   0  0  0  0  0  0  0  0  0  0  0  0
    1.4649    0.5930    3.6159 C   0  0  0  0  0  0  0  0  0  0  0  0
    1.4138   -0.2791    4.7150 C   0  0  0  0  0  0  0  0  0  0  0  0
    0.1881   -0.6842    5.2394 C   0  0  0  0  0  0  0  0  0  0  0  0
    0.0264   -1.5801    6.2447 O   0  0  0  0  0  0  0  0  0  0  0  0
    1.1730   -2.1603    6.8185 C   0  0  0  0  0  0  0  0  0  0  0  0
   -1.0118   -0.1647    4.6812 C   0  0  0  0  0  0  0  0  0  0  0  0
   -2.1633   -0.6114    5.2404 O   0  0  0  0  0  0  0  0  0  0  0  0
   -3.3826   -0.0711    4.7861 C   0  0  0  0  0  0  0  0  0  0  0  0
   -0.9420    0.7133    3.6064 C   0  0  0  0  0  0  0  0  0  0  0  0
   -1.2679    2.3900   -0.1049 C   0  0  2  0  0  0  0  0  0  0  0  0
   -1.6703    1.8110   -0.9448 H   0  0  0  0  0  0  0  0  0  0  0  0
   -0.3405    3.4513   -0.6847 C   0  0  0  0  0  0  0  0  0  0  0  0
   -0.2559    4.7516   -0.1669 C   0  0  0  0  0  0  0  0  0  0  0  0
    0.6444    5.6789   -0.7042 C   0  0  0  0  0  0  0  0  0  0  0  0
    1.4793    5.3120   -1.7601 C   0  0  0  0  0  0  0  0  0  0  0  0
    1.4084    4.0138   -2.2784 C   0  0  0  0  0  0  0  0  0  0  0  0
    0.5050    3.0940   -1.7477 C   0  0  0  0  0  0  0  0  0  0  0  0
   -2.4774    2.9456    0.6555 C   0  0  0  0  0  0  0  0  0  0  0  0
   -3.2878    3.7614   -0.1533 O   0  0  0  0  0  0  0  0  0  0  0  0
   -0.6186   -1.2717    1.1007 C   0  0  0  0  0  0  0  0  0  0  0  0
   -1.9947   -1.4835    1.1994 C   0  0  0  0  0  0  0  0  0  0  0  0
   -2.4714   -2.3717    2.1619 C   0  0  0  0  0  0  0  0  0  0  0  0
   -1.5935   -3.0440    3.0289 C   0  0  0  0  0  0  0  0  0  0  0  0
   -0.2142   -2.8531    2.8590 C   0  0  0  0  0  0  0  0  0  0  0  0
    0.2815   -1.9720    1.9005 C   0  0  0  0  0  0  0  0  0  0  0  0
   -2.1065   -3.8851    4.1656 C   0  0  0  0  0  0  0  0  0  0  0  0
   -0.0541    2.9549    2.0456 H   0  0  0  0  0  0  0  0  0  0  0  0
    1.3578    2.0712    1.4540 H   0  0  0  0  0  0  0  0  0  0  0  0
    2.4315    0.8557    3.1811 H   0  0  0  0  0  0  0  0  0  0  0  0
    2.3432   -0.6661    5.1313 H   0  0  0  0  0  0  0  0  0  0  0  0
    1.7634   -2.7247    6.0734 H   0  0  0  0  0  0  0  0  0  0  0  0
    0.8203   -2.8524    7.5944 H   0  0  0  0  0  0  0  0  0  0  0  0
    1.8279   -1.4018    7.2839 H   0  0  0  0  0  0  0  0  0  0  0  0
   -3.5570   -0.2962    3.7201 H   0  0  0  0  0  0  0  0  0  0  0  0
   -3.4187    1.0237    4.9293 H   0  0  0  0  0  0  0  0  0  0  0  0
   -4.1746   -0.5389    5.3856 H   0  0  0  0  0  0  0  0  0  0  0  0
   -1.8548    1.0767    3.1379 H   0  0  0  0  0  0  0  0  0  0  0  0
   -0.8904    5.0574    0.6689 H   0  0  0  0  0  0  0  0  0  0  0  0
    0.6942    6.6887   -0.2898 H   0  0  0  0  0  0  0  0  0  0  0  0
    2.1847    6.0335   -2.1789 H   0  0  0  0  0  0  0  0  0  0  0  0
    2.0605    3.7178   -3.1036 H   0  0  0  0  0  0  0  0  0  0  0  0
    0.4538    2.0785   -2.1469 H   0  0  0  0  0  0  0  0  0  0  0  0
   -3.0934    2.0920    0.9769 H   0  0  0  0  0  0  0  0  0  0  0  0
   -2.1538    3.4680    1.5794 H   0  0  0  0  0  0  0  0  0  0  0  0
   -2.7304    4.4469   -0.5469 H   0  0  0  0  0  0  0  0  0  0  0  0
   -2.6796   -0.9458    0.5415 H   0  0  0  0  0  0  0  0  0  0  0  0
   -3.5479   -2.5351    2.2574 H   0  0  0  0  0  0  0  0  0  0  0  0
    0.4837   -3.3790    3.5146 H   0  0  0  0  0  0  0  0  0  0  0  0
    1.3494   -1.7881    1.7916 H   0  0  0  0  0  0  0  0  0  0  0  0
   -1.5205   -4.8099    4.2828 H   0  0  0  0  0  0  0  0  0  0  0  0
   -3.1632   -4.1578    4.0293 H   0  0  0  0  0  0  0  0  0  0  0  0
   -2.0178   -3.3106    5.1028 H   0  0  0  0  0  0  0  0  0  0  0  0
  1  2  2  0
  1  3  2  0
  1  4  1  0
  1 26  1  0
  4  5  1  0
  4 16  1  0
  5  6  1  0
  5 33  1  0
  5 34  1  0
  6  7  2  0
  6 15  1  0
  7  8  1  0
  7 35  1  0
  8  9  2  0
  8 36  1  0
  9 10  1  0
  9 12  1  0
 10 11  1  0
 11 37  1  0
 11 38  1  0
 11 39  1  0
 12 13  1  0
 12 15  2  0
 13 14  1  0
 14 40  1  0
 14 41  1  0
 14 42  1  0
 15 43  1  0
 16 17  1  6
 16 18  1  0
 16 24  1  0
 18 19  2  0
 18 23  1  0
 19 20  1  0
 19 44  1  0
 20 21  2  0
 20 45  1  0
 21 22  1  0
 21 46  1  0
 22 23  2  0
 22 47  1  0
 23 48  1  0
 24 25  1  0
 24 49  1  0
 24 50  1  0
 25 51  1  0
 26 27  2  0
 26 31  1  0
 27 28  1  0
 27 52  1  0
 28 29  2  0
 28 53  1  0
 29 30  1  0
 29 32  1  0
 30 31  2  0
 30 54  1  0
 31 55  1  0
 32 56  1  0
 32 57  1  0
 32 58  1  0
M  END

