58

S          0.07120       -0.11630       -0.02010
O          1.53620       -0.20260        0.05860
O         -0.63220       -0.27350       -1.29570
N         -0.36650        1.36540        0.60950
C          0.51920        2.02380        1.57700
C          1.23800        3.21670        0.99110
C          0.97390        4.51110        1.42070
C          1.61570        5.60670        0.81840
C          2.52180        5.41170       -0.22250
O          3.18530        6.39660       -0.87140
C          2.94490        7.73100       -0.49720
C          2.79450        4.08570       -0.66830
O          3.68130        3.97580       -1.68270
C          3.96170        2.68860       -2.18550
C          2.15520        3.01140       -0.05840
C         -1.55400        2.09860        0.13810
H         -1.65280        2.93360        0.84880
C         -2.83150        1.27850        0.26420
C         -3.48750        0.72300       -0.84260
C         -4.64730       -0.04050       -0.67490
C         -5.16130       -0.26930        0.60340
C         -4.51080        0.27550        1.71510
C         -3.36130        1.04560        1.54150
C         -1.35220        2.75890       -1.23470
O         -2.40050        3.65660       -1.52550
C         -0.56630       -1.34350        1.11390
C         -1.83590       -1.88450        0.90590
C         -2.34230       -2.79780        1.82900
C         -1.59880       -3.18560        2.95460
C         -0.31820       -2.63570        3.12930
C          0.20650       -1.72330        2.21500
C         -2.14520       -4.19540        3.93010
H          1.24580        1.27820        1.92420
H         -0.08030        2.33270        2.44930
H          0.25830        4.68700        2.22800
H          1.39150        6.61390        1.16780
H          1.88540        8.01260       -0.63860
H          3.57070        8.35690       -1.14710
H          3.22150        7.91900        0.55650
H          3.05400        2.19510       -2.57650
H          4.40720        2.03540       -1.41410
H          4.68110        2.82290       -3.00390
H          2.33710        1.99050       -0.39230
H         -3.07370        0.85120       -1.84330
H         -5.14330       -0.46770       -1.54970
H         -6.06490       -0.86950        0.73370
H         -4.90130        0.09940        2.72010
H         -2.85360        1.46610        2.41360
H         -0.42580        3.34790       -1.19630
H         -1.21750        1.98500       -2.00960
H         -3.22130        3.15070       -1.58930
H         -2.41740       -1.58900        0.03380
H         -3.34040       -3.21420        1.67130
H          0.28190       -2.93390        3.99300
H          1.21180       -1.31880        2.33850
H         -1.88380       -5.22150        3.61790
H         -3.24260       -4.14350        3.99190
H         -1.73400       -4.04640        4.93960
