38
rmsd205.gzmat
C          0.00000        0.00000        0.00000
C          1.52710        0.00000        0.00000
H          1.92360        0.00000        1.06060
N          2.00520        1.23560       -0.65040
N          1.76570        1.51280       -1.94290
C          2.38890        2.71140       -2.16960
C          3.00910        3.12050       -0.91480
N          2.73220        2.14820        0.01000
C          3.73270        4.33240       -0.83720
C          3.82160        5.08960       -1.97450
C          3.21400        4.68830       -3.20510
C          2.50600        3.52240       -3.32170
C          2.10470       -1.23130       -0.77690
H          1.91730       -1.10270       -1.88620
C          1.50090       -2.54270       -0.27890
N          3.56710       -1.27120       -0.57870
N          4.42410       -1.18200       -1.60590
C          5.66960       -1.22250       -1.03610
C          5.48060       -1.34210        0.40510
N          4.13070       -1.36850        0.63710
C          6.59810       -1.40780        1.26870
C          7.84180       -1.35600        0.69910
C          8.02710       -1.23730       -0.71380
C          6.97200       -1.16980       -1.58360
H         -0.39500        0.92730        0.44250
H         -0.40230       -0.83230        0.58910
H         -0.41230       -0.06280       -1.01760
H          4.19280        4.62310        0.10520
H          4.36870        6.03210       -1.96420
H          3.33210        5.34650       -4.06590
H          2.04240        3.20320       -4.25170
H          0.44130       -2.62730       -0.54720
H          1.59380       -2.65070        0.81170
H          2.01340       -3.40850       -0.72510
H          6.44210       -1.49230        2.34130
H          8.73390       -1.40210        1.32410
H          9.05000       -1.19830       -1.08800
H          7.09720       -1.07560       -2.66040
