
     RDKit          3D

 38 41  0  0  0  0  0  0  0  0999 V2000
   -0.2512   -0.0548   -0.1241 C   0  0  0  0  0  0  0  0  0  0  0  0
    1.2642   -0.1316    0.0076 C   0  0  2  0  0  0  0  0  0  0  0  0
    1.5745   -0.1135    1.0610 H   0  0  0  0  0  0  0  0  0  0  0  0
    1.8954    1.0478   -0.5839 N   0  0  0  0  0  0  0  0  0  0  0  0
    1.5938    1.4385   -1.8108 N   0  0  0  0  0  0  0  0  0  0  0  0
    2.4943    2.4138   -2.0540 C   0  0  0  0  0  0  0  0  0  0  0  0
    3.3267    2.5443   -0.8965 C   0  0  0  0  0  0  0  0  0  0  0  0
    2.9085    1.6470    0.0206 N   0  0  0  0  0  0  0  0  0  0  0  0
    4.3846    3.4841   -0.8583 C   0  0  0  0  0  0  0  0  0  0  0  0
    4.5702    4.2630   -1.9820 C   0  0  0  0  0  0  0  0  0  0  0  0
    3.7356    4.1376   -3.1359 C   0  0  0  0  0  0  0  0  0  0  0  0
    2.6990    3.2285   -3.1938 C   0  0  0  0  0  0  0  0  0  0  0  0
    1.8796   -1.3909   -0.6550 C   0  0  2  0  0  0  0  0  0  0  0  0
    1.6622   -1.3517   -1.7309 H   0  0  0  0  0  0  0  0  0  0  0  0
    1.3970   -2.6983   -0.0404 C   0  0  0  0  0  0  0  0  0  0  0  0
    3.3358   -1.2847   -0.5682 N   0  0  0  0  0  0  0  0  0  0  0  0
    4.0419   -0.8250   -1.5884 N   0  0  0  0  0  0  0  0  0  0  0  0
    5.2826   -0.7004   -1.0723 C   0  0  0  0  0  0  0  0  0  0  0  0
    5.2347   -1.1122    0.2981 C   0  0  0  0  0  0  0  0  0  0  0  0
    3.9653   -1.4736    0.5795 N   0  0  0  0  0  0  0  0  0  0  0  0
    6.3960   -1.0853    1.1076 C   0  0  0  0  0  0  0  0  0  0  0  0
    7.5606   -0.6383    0.5175 C   0  0  0  0  0  0  0  0  0  0  0  0
    7.6063   -0.2215   -0.8492 C   0  0  0  0  0  0  0  0  0  0  0  0
    6.4885   -0.2456   -1.6578 C   0  0  0  0  0  0  0  0  0  0  0  0
   -0.6167    0.8913    0.3000 H   0  0  0  0  0  0  0  0  0  0  0  0
   -0.7271   -0.8806    0.4220 H   0  0  0  0  0  0  0  0  0  0  0  0
   -0.5541   -0.0967   -1.1798 H   0  0  0  0  0  0  0  0  0  0  0  0
    5.0216    3.5718    0.0230 H   0  0  0  0  0  0  0  0  0  0  0  0
    5.3780    4.9985   -1.9999 H   0  0  0  0  0  0  0  0  0  0  0  0
    3.9334    4.7831   -3.9950 H   0  0  0  0  0  0  0  0  0  0  0  0
    2.0636    3.1278   -4.0750 H   0  0  0  0  0  0  0  0  0  0  0  0
    0.3196   -2.8286   -0.2106 H   0  0  0  0  0  0  0  0  0  0  0  0
    1.5982   -2.7196    1.0399 H   0  0  0  0  0  0  0  0  0  0  0  0
    1.9216   -3.5462   -0.5036 H   0  0  0  0  0  0  0  0  0  0  0  0
    6.3577   -1.3996    2.1517 H   0  0  0  0  0  0  0  0  0  0  0  0
    8.4799   -0.5957    1.1066 H   0  0  0  0  0  0  0  0  0  0  0  0
    8.5583    0.1272   -1.2567 H   0  0  0  0  0  0  0  0  0  0  0  0
    6.5163    0.0764   -2.6998 H   0  0  0  0  0  0  0  0  0  0  0  0
  1  2  1  0
  1 25  1  0
  1 26  1  0
  1 27  1  0
  2  3  1  1
  2  4  1  0
  2 13  1  0
  4  5  1  0
  4  8  1  0
  5  6  2  0
  6  7  1  0
  6 12  1  0
  7  8  2  0
  7  9  1  0
  9 10  2  0
  9 28  1  0
 10 11  1  0
 10 29  1  0
 11 12  2  0
 11 30  1  0
 12 31  1  0
 13 14  1  6
 13 15  1  0
 13 16  1  0
 15 32  1  0
 15 33  1  0
 15 34  1  0
 16 17  1  0
 16 20  1  0
 17 18  2  0
 18 19  1  0
 18 24  1  0
 19 20  2  0
 19 21  1  0
 21 22  2  0
 21 35  1  0
 22 23  1  0
 22 36  1  0
 23 24  2  0
 23 37  1  0
 24 38  1  0
M  END

