rmsd168.gzmat
 OpenBabel08211713413D

 38 41  0  0  1  0  0  0  0  0999 V2000
    0.0000    0.0000    0.0000 C   0  0  0  0  0  0  0  0  0  0  0  0
    1.5286    0.0000    0.0000 C   0  0  2  0  0  0  0  0  0  0  0  0
    1.9256    0.0000    1.0612 H   0  0  0  0  0  0  0  0  0  0  0  0
    1.9996    1.2422   -0.6447 N   0  0  0  0  0  0  0  0  0  0  0  0
    2.5493    2.2388    0.0631 N   0  0  0  0  0  0  0  0  0  0  0  0
    2.8099    3.2251   -0.8524 C   0  0  0  0  0  0  0  0  0  0  0  0
    2.3710    2.7332   -2.1528 C   0  0  0  0  0  0  0  0  0  0  0  0
    1.8614    1.4759   -1.9603 N   0  0  0  0  0  0  0  0  0  0  0  0
    2.5125    3.5392   -3.3056 C   0  0  0  0  0  0  0  0  0  0  0  0
    3.0552    4.7857   -3.1433 C   0  0  0  0  0  0  0  0  0  0  0  0
    3.4764    5.2718   -1.8663 C   0  0  0  0  0  0  0  0  0  0  0  0
    3.3714    4.5163   -0.7292 C   0  0  0  0  0  0  0  0  0  0  0  0
    2.0991   -1.2309   -0.7770 C   0  0  2  0  0  0  0  0  0  0  0  0
    1.9254   -1.0946   -1.8882 H   0  0  0  0  0  0  0  0  0  0  0  0
    1.4697   -2.5371   -0.2929 C   0  0  0  0  0  0  0  0  0  0  0  0
    3.5587   -1.3023   -0.5659 N   0  0  0  0  0  0  0  0  0  0  0  0
    4.4144   -1.4403   -1.5881 N   0  0  0  0  0  0  0  0  0  0  0  0
    5.6561   -1.4933   -1.0095 C   0  0  0  0  0  0  0  0  0  0  0  0
    5.4655   -1.3761    0.4313 C   0  0  0  0  0  0  0  0  0  0  0  0
    4.1183   -1.2635    0.6548 N   0  0  0  0  0  0  0  0  0  0  0  0
    6.5775   -1.3998    1.3036 C   0  0  0  0  0  0  0  0  0  0  0  0
    7.8181   -1.5445    0.7428 C   0  0  0  0  0  0  0  0  0  0  0  0
    8.0047   -1.6661   -0.6696 C   0  0  0  0  0  0  0  0  0  0  0  0
    6.9548   -1.6392   -1.5481 C   0  0  0  0  0  0  0  0  0  0  0  0
   -0.3951    0.9464    0.4002 H   0  0  0  0  0  0  0  0  0  0  0  0
   -0.4026   -0.8029    0.6289 H   0  0  0  0  0  0  0  0  0  0  0  0
   -0.4120   -0.1117   -1.0131 H   0  0  0  0  0  0  0  0  0  0  0  0
    2.1951    3.1532   -4.2716 H   0  0  0  0  0  0  0  0  0  0  0  0
    3.1821    5.4451   -4.0023 H   0  0  0  0  0  0  0  0  0  0  0  0
    3.8937    6.2778   -1.8195 H   0  0  0  0  0  0  0  0  0  0  0  0
    3.6991    4.8676    0.2470 H   0  0  0  0  0  0  0  0  0  0  0  0
    0.4092   -2.5983   -0.5649 H   0  0  0  0  0  0  0  0  0  0  0  0
    1.5553   -2.6575    0.7964 H   0  0  0  0  0  0  0  0  0  0  0  0
    1.9662   -3.4076   -0.7484 H   0  0  0  0  0  0  0  0  0  0  0  0
    6.4201   -1.3023    2.3752 H   0  0  0  0  0  0  0  0  0  0  0  0
    8.7064   -1.5668    1.3745 H   0  0  0  0  0  0  0  0  0  0  0  0
    9.0247   -1.7809   -1.0371 H   0  0  0  0  0  0  0  0  0  0  0  0
    7.0829   -1.7245   -2.6252 H   0  0  0  0  0  0  0  0  0  0  0  0
  1  2  1  0  0  0  0
  1 25  1  0  0  0  0
  1 26  1  0  0  0  0
  2  3  1  1  0  0  0
  4  2  1  0  0  0  0
  4  5  1  0  0  0  0
  6 12  1  0  0  0  0
  6  5  2  0  0  0  0
  7  8  2  0  0  0  0
  7  6  1  0  0  0  0
  8  4  1  0  0  0  0
  9 10  2  0  0  0  0
  9  7  1  0  0  0  0
 10 11  1  0  0  0  0
 11 30  1  0  0  0  0
 11 12  2  0  0  0  0
 12 31  1  0  0  0  0
 13 14  1  6  0  0  0
 13 16  1  0  0  0  0
 13 15  1  0  0  0  0
 13  2  1  0  0  0  0
 15 33  1  0  0  0  0
 16 20  1  0  0  0  0
 17 18  2  0  0  0  0
 17 16  1  0  0  0  0
 18 19  1  0  0  0  0
 19 20  2  0  0  0  0
 19 21  1  0  0  0  0
 21 35  1  0  0  0  0
 22 21  2  0  0  0  0
 22 36  1  0  0  0  0
 23 22  1  0  0  0  0
 24 18  1  0  0  0  0
 24 23  2  0  0  0  0
 27  1  1  0  0  0  0
 28  9  1  0  0  0  0
 29 10  1  0  0  0  0
 32 15  1  0  0  0  0
 34 15  1  0  0  0  0
 37 23  1  0  0  0  0
 38 24  1  0  0  0  0
M  END
$$$$
