rmsd215.gzmat
 OpenBabel08211713413D

 38 40  0  0  1  0  0  0  0  0999 V2000
    0.0000    0.0000    0.0000 C   0  0  0  0  0  0  0  0  0  0  0  0
    1.5270    0.0000    0.0000 C   0  0  2  0  0  0  0  0  0  0  0  0
    1.9243    0.0000    1.0603 H   0  0  0  0  0  0  0  0  0  0  0  0
    2.0027    1.2364   -0.6513 N   0  0  0  0  0  0  0  0  0  0  0  0
    2.7814    2.1215   -0.0138 N   0  0  0  0  0  0  0  0  0  0  0  0
    3.0502    3.0931   -0.9418 C   0  0  0  0  0  0  0  0  0  0  0  0
    2.3696    2.7131   -2.1744 C   0  0  0  0  0  0  0  0  0  0  0  0
    1.7235    1.5297   -1.9328 N   0  0  0  0  0  0  0  0  0  0  0  0
    2.4646    3.5306   -3.3238 C   0  0  0  0  0  0  0  0  0  0  0  0
    3.2129    4.6729   -3.2270 C   0  0  0  0  0  0  0  0  0  0  0  0
    3.8825    5.0442   -2.0191 C   0  0  0  0  0  0  0  0  0  0  0  0
    3.8155    4.2802   -0.8851 C   0  0  0  0  0  0  0  0  0  0  0  0
    2.1098   -1.2266   -0.7811 C   0  0  2  0  0  0  0  0  0  0  0  0
    1.9403   -1.0837   -1.8915 H   0  0  0  0  0  0  0  0  0  0  0  0
    1.4941   -2.5434   -0.3131 C   0  0  0  0  0  0  0  0  0  0  0  0
    3.5688   -1.2800   -0.5592 N   0  0  0  0  0  0  0  0  0  0  0  0
    4.4438   -1.2475   -1.5742 N   0  0  0  0  0  0  0  0  0  0  0  0
    5.6789   -1.3115   -0.9829 C   0  0  0  0  0  0  0  0  0  0  0  0
    5.4636   -1.3821    0.4577 C   0  0  0  0  0  0  0  0  0  0  0  0
    4.1102   -1.3616    0.6675 N   0  0  0  0  0  0  0  0  0  0  0  0
    6.5634   -1.4615    1.3420 C   0  0  0  0  0  0  0  0  0  0  0  0
    7.8171   -1.4778    0.7919 C   0  0  0  0  0  0  0  0  0  0  0  0
    8.0287   -1.4138   -0.6208 C   0  0  0  0  0  0  0  0  0  0  0  0
    6.9909   -1.3278   -1.5097 C   0  0  0  0  0  0  0  0  0  0  0  0
   -0.3952    0.9144    0.4682 H   0  0  0  0  0  0  0  0  0  0  0  0
   -0.4042   -0.8480    0.5645 H   0  0  0  0  0  0  0  0  0  0  0  0
   -0.4116   -0.0310   -1.0198 H   0  0  0  0  0  0  0  0  0  0  0  0
    1.9549    3.2336   -4.2371 H   0  0  0  0  0  0  0  0  0  0  0  0
    3.3183    5.3336   -4.0877 H   0  0  0  0  0  0  0  0  0  0  0  0
    4.4612    5.9680   -2.0248 H   0  0  0  0  0  0  0  0  0  0  0  0
    4.3254    4.5451    0.0389 H   0  0  0  0  0  0  0  0  0  0  0  0
    0.4301   -2.6058   -0.5700 H   0  0  0  0  0  0  0  0  0  0  0  0
    1.5997   -2.6850    0.7724 H   0  0  0  0  0  0  0  0  0  0  0  0
    1.9887   -3.4019   -0.7925 H   0  0  0  0  0  0  0  0  0  0  0  0
    6.3868   -1.5070    2.4139 H   0  0  0  0  0  0  0  0  0  0  0  0
    8.6959   -1.5426    1.4333 H   0  0  0  0  0  0  0  0  0  0  0  0
    9.0580   -1.4346   -0.9798 H   0  0  0  0  0  0  0  0  0  0  0  0
    7.1379   -1.2722   -2.5865 H   0  0  0  0  0  0  0  0  0  0  0  0
  1  2  1  0  0  0  0
  1 25  1  0  0  0  0
  1 26  1  0  0  0  0
  2  3  1  1  0  0  0
  4  5  1  0  0  0  0
  4  2  1  0  0  0  0
  6 12  1  0  0  0  0
  6  5  2  0  0  0  0
  7  8  2  0  0  0  0
  7  6  1  0  0  0  0
  8  4  1  0  0  0  0
  9 10  2  0  0  0  0
  9  7  1  0  0  0  0
 10 11  1  0  0  0  0
 11 12  2  0  0  0  0
 12 31  1  0  0  0  0
 13 16  1  0  0  0  0
 13 15  1  1  0  0  0
 13  2  1  0  0  0  0
 15 33  1  0  0  0  0
 16 20  1  0  0  0  0
 17 18  2  0  0  0  0
 17 16  1  0  0  0  0
 18 19  1  0  0  0  0
 19 20  2  0  0  0  0
 19 21  1  0  0  0  0
 21 35  1  0  0  0  0
 22 21  2  0  0  0  0
 22 36  1  0  0  0  0
 23 22  1  0  0  0  0
 24 18  1  0  0  0  0
 24 23  2  0  0  0  0
 27  1  1  0  0  0  0
 28  9  1  0  0  0  0
 29 10  1  0  0  0  0
 30 11  1  0  0  0  0
 32 15  1  0  0  0  0
 34 15  1  0  0  0  0
 37 23  1  0  0  0  0
 38 24  1  0  0  0  0
M  RAD  2  13   2  14   2
M  END
$$$$
