38
rmsd215.gzmat
C          0.00000        0.00000        0.00000
C          1.52700        0.00000        0.00000
H          1.92430        0.00000        1.06030
N          2.00270        1.23640       -0.65130
N          2.78140        2.12150       -0.01380
C          3.05020        3.09310       -0.94180
C          2.36960        2.71310       -2.17440
N          1.72350        1.52970       -1.93280
C          2.46460        3.53060       -3.32380
C          3.21290        4.67290       -3.22700
C          3.88250        5.04420       -2.01910
C          3.81550        4.28020       -0.88510
C          2.10980       -1.22660       -0.78110
H          1.94030       -1.08370       -1.89150
C          1.49410       -2.54340       -0.31310
N          3.56880       -1.28000       -0.55920
N          4.44380       -1.24750       -1.57420
C          5.67890       -1.31150       -0.98290
C          5.46360       -1.38210        0.45770
N          4.11020       -1.36160        0.66750
C          6.56340       -1.46150        1.34200
C          7.81710       -1.47780        0.79190
C          8.02870       -1.41380       -0.62080
C          6.99090       -1.32780       -1.50970
H         -0.39520        0.91440        0.46820
H         -0.40420       -0.84800        0.56450
H         -0.41160       -0.03100       -1.01980
H          1.95490        3.23360       -4.23710
H          3.31830        5.33360       -4.08770
H          4.46120        5.96800       -2.02480
H          4.32540        4.54510        0.03890
H          0.43010       -2.60580       -0.57000
H          1.59970       -2.68500        0.77240
H          1.98870       -3.40190       -0.79250
H          6.38680       -1.50700        2.41390
H          8.69590       -1.54260        1.43330
H          9.05800       -1.43460       -0.97980
H          7.13790       -1.27220       -2.58650
