rmsd240.gzmat
 OpenBabel08211713413D

 38 41  0  0  1  0  0  0  0  0999 V2000
    0.0000    0.0000    0.0000 C   0  0  0  0  0  0  0  0  0  0  0  0
    1.5284    0.0000    0.0000 C   0  0  2  0  0  0  0  0  0  0  0  0
    1.9259    0.0000    1.0610 H   0  0  0  0  0  0  0  0  0  0  0  0
    1.9976    1.2425   -0.6446 N   0  0  0  0  0  0  0  0  0  0  0  0
    1.8445    1.4811   -1.9576 N   0  0  0  0  0  0  0  0  0  0  0  0
    2.3789    2.7269   -2.1561 C   0  0  0  0  0  0  0  0  0  0  0  0
    2.8495    3.2064   -0.8620 C   0  0  0  0  0  0  0  0  0  0  0  0
    2.5804    2.2251    0.0561 N   0  0  0  0  0  0  0  0  0  0  0  0
    3.4472    4.4822   -0.7473 C   0  0  0  0  0  0  0  0  0  0  0  0
    3.5567    5.2339   -1.8862 C   0  0  0  0  0  0  0  0  0  0  0  0
    3.0995    4.7618   -3.1562 C   0  0  0  0  0  0  0  0  0  0  0  0
    2.5199    3.5309   -3.3101 C   0  0  0  0  0  0  0  0  0  0  0  0
    2.1015   -1.2305   -0.7764 C   0  0  2  0  0  0  0  0  0  0  0  0
    1.9067   -1.1090   -1.8857 H   0  0  0  0  0  0  0  0  0  0  0  0
    1.4986   -2.5395   -0.2668 C   0  0  0  0  0  0  0  0  0  0  0  0
    3.5657   -1.2821   -0.5920 N   0  0  0  0  0  0  0  0  0  0  0  0
    4.4015   -1.4380   -1.6280 N   0  0  0  0  0  0  0  0  0  0  0  0
    5.6551   -1.4618   -1.0743 C   0  0  0  0  0  0  0  0  0  0  0  0
    5.4933   -1.3074    0.3666 C   0  0  0  0  0  0  0  0  0  0  0  0
    4.1497   -1.2057    0.6152 N   0  0  0  0  0  0  0  0  0  0  0  0
    6.6246   -1.2875    1.2141 C   0  0  0  0  0  0  0  0  0  0  0  0
    7.8548   -1.4303    0.6303 C   0  0  0  0  0  0  0  0  0  0  0  0
    8.0124   -1.5912   -0.7819 C   0  0  0  0  0  0  0  0  0  0  0  0
    6.9436   -1.6059   -1.6372 C   0  0  0  0  0  0  0  0  0  0  0  0
   -0.3936    0.9219    0.4548 H   0  0  0  0  0  0  0  0  0  0  0  0
   -0.4042   -0.8382    0.5793 H   0  0  0  0  0  0  0  0  0  0  0  0
   -0.4119   -0.0502   -1.0183 H   0  0  0  0  0  0  0  0  0  0  0  0
    3.7995    4.8242    0.2236 H   0  0  0  0  0  0  0  0  0  0  0  0
    4.0069    6.2261   -1.8471 H   0  0  0  0  0  0  0  0  0  0  0  0
    3.2296    5.4184   -4.0166 H   0  0  0  0  0  0  0  0  0  0  0  0
    2.1730    3.1561   -4.2700 H   0  0  0  0  0  0  0  0  0  0  0  0
    0.4370   -2.6216   -0.5282 H   0  0  0  0  0  0  0  0  0  0  0  0
    1.5977   -2.6416    0.8233 H   0  0  0  0  0  0  0  0  0  0  0  0
    2.0052   -3.4084   -0.7139 H   0  0  0  0  0  0  0  0  0  0  0  0
    6.4901   -1.1583    2.2855 H   0  0  0  0  0  0  0  0  0  0  0  0
    8.7572   -1.4212    1.2421 H   0  0  0  0  0  0  0  0  0  0  0  0
    9.0255   -1.7013   -1.1683 H   0  0  0  0  0  0  0  0  0  0  0  0
    7.0484   -1.7218   -2.7138 H   0  0  0  0  0  0  0  0  0  0  0  0
  1  2  1  0  0  0  0
  1 25  1  0  0  0  0
  1 26  1  0  0  0  0
  2  3  1  1  0  0  0
  4  2  1  0  0  0  0
  4  8  1  0  0  0  0
  5  4  1  0  0  0  0
  6  5  2  0  0  0  0
  6  7  1  0  0  0  0
  7  9  1  0  0  0  0
  7  8  2  0  0  0  0
  9 28  1  0  0  0  0
 10 29  1  0  0  0  0
 10  9  2  0  0  0  0
 11 10  1  0  0  0  0
 12 11  2  0  0  0  0
 12  6  1  0  0  0  0
 13 14  1  6  0  0  0
 13 16  1  0  0  0  0
 13 15  1  0  0  0  0
 13  2  1  0  0  0  0
 15 33  1  0  0  0  0
 16 20  1  0  0  0  0
 17 18  2  0  0  0  0
 17 16  1  0  0  0  0
 18 19  1  0  0  0  0
 19 20  2  0  0  0  0
 19 21  1  0  0  0  0
 21 35  1  0  0  0  0
 22 21  2  0  0  0  0
 22 36  1  0  0  0  0
 23 22  1  0  0  0  0
 24 18  1  0  0  0  0
 24 23  2  0  0  0  0
 27  1  1  0  0  0  0
 30 11  1  0  0  0  0
 31 12  1  0  0  0  0
 32 15  1  0  0  0  0
 34 15  1  0  0  0  0
 37 23  1  0  0  0  0
 38 24  1  0  0  0  0
M  END
$$$$
