rmsd220.gzmat
 OpenBabel08211713413D

 38 41  0  0  1  0  0  0  0  0999 V2000
    0.0000    0.0000    0.0000 C   0  0  0  0  0  0  0  0  0  0  0  0
    1.5277    0.0000    0.0000 C   0  0  2  0  0  0  0  0  0  0  0  0
    1.9245    0.0000    1.0607 H   0  0  0  0  0  0  0  0  0  0  0  0
    1.9989    1.2404   -0.6476 N   0  0  0  0  0  0  0  0  0  0  0  0
    2.6379    2.1997    0.0365 N   0  0  0  0  0  0  0  0  0  0  0  0
    2.9190    3.1706   -0.8891 C   0  0  0  0  0  0  0  0  0  0  0  0
    2.3958    2.7100   -2.1698 C   0  0  0  0  0  0  0  0  0  0  0  0
    1.8206    1.4851   -1.9565 N   0  0  0  0  0  0  0  0  0  0  0  0
    2.5398    3.5065   -3.3287 C   0  0  0  0  0  0  0  0  0  0  0  0
    3.1821    4.7079   -3.1942 C   0  0  0  0  0  0  0  0  0  0  0  0
    3.6913    5.1621   -1.9375 C   0  0  0  0  0  0  0  0  0  0  0  0
    3.5710    4.4213   -0.7925 C   0  0  0  0  0  0  0  0  0  0  0  0
    2.1075   -1.2282   -0.7794 C   0  0  2  0  0  0  0  0  0  0  0  0
    1.9182   -1.0983   -1.8886 H   0  0  0  0  0  0  0  0  0  0  0  0
    1.5077   -2.5434   -0.2857 C   0  0  0  0  0  0  0  0  0  0  0  0
    3.5704   -1.2676   -0.5841 N   0  0  0  0  0  0  0  0  0  0  0  0
    4.1373   -1.3073    0.6333 N   0  0  0  0  0  0  0  0  0  0  0  0
    5.4864   -1.3091    0.3963 C   0  0  0  0  0  0  0  0  0  0  0  0
    5.6717   -1.2722   -1.0494 C   0  0  0  0  0  0  0  0  0  0  0  0
    4.4244   -1.2470   -1.6170 N   0  0  0  0  0  0  0  0  0  0  0  0
    6.9727   -1.2686   -1.6025 C   0  0  0  0  0  0  0  0  0  0  0  0
    8.0299   -1.2985   -0.7333 C   0  0  0  0  0  0  0  0  0  0  0  0
    7.8480   -1.3317    0.6847 C   0  0  0  0  0  0  0  0  0  0  0  0
    6.6055   -1.3366    1.2599 C   0  0  0  0  0  0  0  0  0  0  0  0
   -0.3937    0.9374    0.4228 H   0  0  0  0  0  0  0  0  0  0  0  0
   -0.4042   -0.8175    0.6080 H   0  0  0  0  0  0  0  0  0  0  0  0
   -0.4118   -0.0840   -1.0158 H   0  0  0  0  0  0  0  0  0  0  0  0
    2.1465    3.1483   -4.2769 H   0  0  0  0  0  0  0  0  0  0  0  0
    3.3209    5.3556   -4.0599 H   0  0  0  0  0  0  0  0  0  0  0  0
    4.1887    6.1319   -1.9133 H   0  0  0  0  0  0  0  0  0  0  0  0
    3.9514    4.7543    0.1710 H   0  0  0  0  0  0  0  0  0  0  0  0
    0.4488   -2.6291   -0.5565 H   0  0  0  0  0  0  0  0  0  0  0  0
    1.5987   -2.6560    0.8042 H   0  0  0  0  0  0  0  0  0  0  0  0
    2.0232   -3.4064   -0.7350 H   0  0  0  0  0  0  0  0  0  0  0  0
    7.0961   -1.2406   -2.6833 H   0  0  0  0  0  0  0  0  0  0  0  0
    9.0519   -1.2947   -1.1130 H   0  0  0  0  0  0  0  0  0  0  0  0
    8.7409   -1.3502    1.3094 H   0  0  0  0  0  0  0  0  0  0  0  0
    6.4512   -1.3552    2.3362 H   0  0  0  0  0  0  0  0  0  0  0  0
  1  2  1  0  0  0  0
  1 25  1  0  0  0  0
  1 26  1  0  0  0  0
  2  3  1  1  0  0  0
  4  2  1  0  0  0  0
  4  5  1  0  0  0  0
  6 12  1  0  0  0  0
  6  5  2  0  0  0  0
  7  8  2  0  0  0  0
  7  6  1  0  0  0  0
  8  4  1  0  0  0  0
  9 10  2  0  0  0  0
  9  7  1  0  0  0  0
 10 11  1  0  0  0  0
 11 30  1  0  0  0  0
 11 12  2  0  0  0  0
 12 31  1  0  0  0  0
 13 14  1  6  0  0  0
 13 16  1  0  0  0  0
 13 15  1  0  0  0  0
 13  2  1  0  0  0  0
 15 33  1  0  0  0  0
 16 17  1  0  0  0  0
 18 17  2  0  0  0  0
 18 24  1  0  0  0  0
 19 18  1  0  0  0  0
 20 19  2  0  0  0  0
 20 16  1  0  0  0  0
 21 19  1  0  0  0  0
 21 22  2  0  0  0  0
 22 23  1  0  0  0  0
 23 24  2  0  0  0  0
 23 37  1  0  0  0  0
 24 38  1  0  0  0  0
 27  1  1  0  0  0  0
 28  9  1  0  0  0  0
 29 10  1  0  0  0  0
 32 15  1  0  0  0  0
 34 15  1  0  0  0  0
 35 21  1  0  0  0  0
 36 22  1  0  0  0  0
M  END
$$$$
