38
rmsd230.gzmat
C          0.00000        0.00000        0.00000
C          1.52750        0.00000        0.00000
H          1.92790        0.00000        1.05950
N          1.99840        1.24030       -0.64730
N          2.63600        2.19860        0.03960
C          2.91960        3.17040       -0.88410
C          2.39880        2.71180       -2.16660
N          1.82190        1.48740       -1.95590
C          2.55100        3.50840       -3.32440
C          3.19470        4.70880       -3.18630
C          3.70160        5.16040       -1.92780
C          3.57600        4.41820       -0.78420
C          2.10010       -1.23170       -0.77750
H          1.88580       -1.11790       -1.88390
C          1.52060       -2.54320       -0.25010
N          3.56680       -1.26120       -0.61640
N          4.39250       -1.30890       -1.67130
C          5.65440       -1.30430       -1.13720
C          5.50830       -1.25080        0.31280
N          4.16550       -1.23010        0.58560
C          6.65030       -1.22580        1.14540
C          7.87640       -1.25950        0.53740
C          8.02020       -1.31680       -0.88430
C          6.93970       -1.33800       -1.72480
H         -0.39270        0.93890        0.41960
H         -0.40440       -0.81630        0.60960
H         -0.41160       -0.08710       -1.01590
H          2.16440        3.15180       -4.27610
H          3.33850        5.35610       -4.05150
H          4.20270        6.12830       -1.90180
H          3.95830        4.74660        0.18010
H          0.45710       -2.63940       -0.49610
H          1.63720       -2.63820        0.83880
H          2.03160       -3.40990       -0.69700
H          6.52490       -1.17660        2.22450
H          8.78630       -1.24000        1.13710
H          9.03170       -1.34030       -1.29050
H          7.03370       -1.37570       -2.80800
