38
rmsd172.gzmat
C          0.00000        0.00000        0.00000
C          1.52710        0.00000        0.00000
H          1.92420        0.00000        1.06050
N          2.00410        1.23670       -0.65010
N          2.73620        2.14670        0.00800
C          3.01150        3.11950       -0.91710
C          2.38570        2.71260       -2.17000
N          1.76130        1.51490       -1.94180
C          2.49850        3.52510       -3.32140
C          3.20690        4.69090       -3.20600
C          3.82070        5.08970       -1.97750
C          3.73600        4.33080       -0.84130
C          2.10500       -1.23110       -0.77710
H          1.92130       -1.10060       -1.88690
C          1.49870       -2.54410       -0.28600
N          3.56640       -1.27450       -0.57430
N          4.42560       -1.19860       -1.60070
C          5.66970       -1.24870       -1.02840
C          5.47740       -1.36240        0.41280
N          4.12710       -1.37330        0.64280
C          6.59280       -1.44400        1.27750
C          7.83770       -1.41230        0.70890
C          8.02610       -1.29330       -0.70350
C          6.97310       -1.21040       -1.57440
H         -0.39450        0.92860        0.44010
H         -0.40300       -0.83080        0.59080
H         -0.41220       -0.06460       -1.01760
H          2.03110        3.20670       -4.25000
H          3.32090        5.35070       -4.06610
H          4.37080        6.03080       -1.96880
H          4.20010        4.61990        0.09980
H          0.44150       -2.62740       -0.56290
H          1.58370       -2.65560        0.80470
H          2.01530       -3.40860       -0.73060
H          6.43500       -1.52610        2.35000
H          8.72840       -1.47630        1.33440
H          9.04980       -1.26710       -1.07640
H          7.10030       -1.11370       -2.65070
