38
rmsd168.gzmat
C          0.00000        0.00000        0.00000
C          1.52860        0.00000        0.00000
H          1.92560        0.00000        1.06120
N          1.99960        1.24220       -0.64470
N          2.54930        2.23880        0.06310
C          2.80990        3.22510       -0.85240
C          2.37100        2.73320       -2.15280
N          1.86140        1.47590       -1.96030
C          2.51250        3.53920       -3.30560
C          3.05520        4.78570       -3.14330
C          3.47640        5.27180       -1.86630
C          3.37140        4.51630       -0.72920
C          2.09910       -1.23090       -0.77700
H          1.92540       -1.09460       -1.88820
C          1.46970       -2.53710       -0.29290
N          3.55870       -1.30230       -0.56590
N          4.41440       -1.44030       -1.58810
C          5.65610       -1.49330       -1.00950
C          5.46550       -1.37610        0.43130
N          4.11830       -1.26350        0.65480
C          6.57750       -1.39980        1.30360
C          7.81810       -1.54450        0.74280
C          8.00470       -1.66610       -0.66960
C          6.95480       -1.63920       -1.54810
H         -0.39510        0.94640        0.40020
H         -0.40260       -0.80290        0.62890
H         -0.41200       -0.11170       -1.01310
H          2.19510        3.15320       -4.27160
H          3.18210        5.44510       -4.00230
H          3.89370        6.27780       -1.81950
H          3.69910        4.86760        0.24700
H          0.40920       -2.59830       -0.56490
H          1.55530       -2.65750        0.79640
H          1.96620       -3.40760       -0.74840
H          6.42010       -1.30230        2.37520
H          8.70640       -1.56680        1.37450
H          9.02470       -1.78090       -1.03710
H          7.08290       -1.72450       -2.62520
