38
rmsd220.gzmat
C          0.00000        0.00000        0.00000
C          1.52770        0.00000        0.00000
H          1.92450        0.00000        1.06070
N          1.99890        1.24040       -0.64760
N          2.63790        2.19970        0.03650
C          2.91900        3.17060       -0.88910
C          2.39580        2.71000       -2.16980
N          1.82060        1.48510       -1.95650
C          2.53980        3.50650       -3.32870
C          3.18210        4.70790       -3.19420
C          3.69130        5.16210       -1.93750
C          3.57100        4.42130       -0.79250
C          2.10750       -1.22820       -0.77940
H          1.91820       -1.09830       -1.88860
C          1.50770       -2.54340       -0.28570
N          3.57040       -1.26760       -0.58410
N          4.13730       -1.30730        0.63330
C          5.48640       -1.30910        0.39630
C          5.67170       -1.27220       -1.04940
N          4.42440       -1.24700       -1.61700
C          6.97270       -1.26860       -1.60250
C          8.02990       -1.29850       -0.73330
C          7.84800       -1.33170        0.68470
C          6.60550       -1.33660        1.25990
H         -0.39370        0.93740        0.42280
H         -0.40420       -0.81750        0.60800
H         -0.41180       -0.08400       -1.01580
H          2.14650        3.14830       -4.27690
H          3.32090        5.35560       -4.05990
H          4.18870        6.13190       -1.91330
H          3.95140        4.75430        0.17100
H          0.44880       -2.62910       -0.55650
H          1.59870       -2.65600        0.80420
H          2.02320       -3.40640       -0.73500
H          7.09610       -1.24060       -2.68330
H          9.05190       -1.29470       -1.11300
H          8.74090       -1.35020        1.30940
H          6.45120       -1.35520        2.33620
