46
rmsd245.gzmat
C          0.00000        0.00000        0.00000
C          1.42350        0.00000        0.00000
C          2.11850        0.00000        1.19310
C          1.42530        0.00510        2.40700
C          0.02800        0.00040        2.40320
C         -0.69430       -0.01140        1.21340
C          2.12310        0.06100        3.73420
H          1.53500       -0.49100        4.51420
C          3.58040       -0.45770        3.74360
N          4.53740        0.55960        3.30020
C          5.81780        0.06820        2.77190
C          5.67610       -0.41110        1.34930
C          5.67550        0.52050        0.30910
C          5.50900        0.09520       -1.00570
C          5.34510       -1.26170       -1.28480
C          5.35360       -2.19140       -0.24700
C          5.52120       -1.76860        1.07070
C          4.17500        1.86800        3.06650
O          4.95970        2.64120        2.54780
C          2.79320        2.32040        3.49240
O          2.10210        1.37140        4.27020
C          2.06090        0.00000       -1.34670
S          0.70210       -0.10800       -2.51000
O          0.64980        1.04170       -3.36940
O          0.59980       -1.42670       -3.07290
N         -0.55170        0.06320       -1.27340
C         -1.95930       -0.22630       -1.51280
H          3.21110        0.00050        1.17240
H         -0.51310        0.01360        3.35160
H         -1.77870       -0.01880        1.23180
H          3.65790       -1.37310        3.11390
H          3.85520       -0.74870        4.78740
H          6.20200       -0.73420        3.44180
H          6.56690        0.90270        2.82630
H          5.79850        1.58430        0.53590
H          5.51470        0.82290       -1.81580
H          5.22110       -1.59640       -2.31370
H          5.23130       -3.25100       -0.46360
H          5.53410       -2.50080        1.87520
H          2.85300        3.20000        4.16660
H          2.19170        2.58450        2.59840
H          2.77740       -0.84260       -1.45870
H          2.66750        0.91750       -1.50830
H         -2.24680        0.10280       -2.53040
H         -2.59740        0.33220       -0.80290
H         -2.18810       -1.30430       -1.41890
