46
rmsd1.gzmat
C          0.00000        0.00000        0.00000
C          1.42260        0.00000        0.00000
C          2.11980        0.00000        1.19300
C          1.42560        0.00490        2.40470
C          0.02750       -0.00240        2.40200
C         -0.69520       -0.01150        1.21350
C          2.10550        0.05800        3.74120
H          1.69840       -0.73660        4.41930
C          3.64930       -0.02180        3.73230
N          4.25630        1.25510        3.34950
C          5.60540        1.20430        2.77230
C          5.57140        0.82470        1.31400
C          5.25120        1.79160        0.35920
C          5.19220        1.44540       -0.98780
C          5.44900        0.13280       -1.38290
C          5.77210       -0.83070       -0.42970
C          5.83920       -0.48560        0.91910
C          3.52760        2.42000        3.25950
O          4.02960        3.42650        2.79340
C          2.10470        2.42320        3.78170
O          1.73400        1.23320        4.44100
C          2.05730        0.00400       -1.34750
S          0.69750       -0.13430       -2.50760
O          0.64210        0.99320       -3.39560
O          0.60020       -1.46660       -3.03830
N         -0.55500        0.06210       -1.27360
C         -1.96040       -0.24640       -1.50320
H          3.21190        0.00800        1.17320
H         -0.50860        0.00980        3.35370
H         -1.77950       -0.01870        1.23190
H          3.98860       -0.84030        3.05960
H          4.00260       -0.27360        4.76310
H          6.22680        0.49600        3.36610
H          6.08100        2.21410        2.89620
H          5.04060        2.81760        0.67810
H          4.95070        2.20340       -1.73200
H          5.40690       -0.13680       -2.43650
H          5.97520       -1.85380       -0.73720
H          6.10510       -1.23830        1.65800
H          1.97250        3.19570        4.56730
H          1.40080        2.62210        2.94730
H          2.79150       -0.82100       -1.45650
H          2.64400        0.93490       -1.51360
H         -2.25350        0.05510       -2.52750
H         -2.60040        0.32540       -0.80530
H         -2.18210       -1.32280       -1.38130
