46
rmsd71.gzmat
C          0.00000        0.00000        0.00000
C          1.42210        0.00000        0.00000
C          2.11940        0.00000        1.19380
C          1.42370       -0.01060        2.40410
C          0.02530       -0.01810        2.40100
C         -0.69660       -0.01560        1.21220
C          2.10020        0.00070        3.74370
H          1.74390       -0.86410        4.36300
C          3.64550        0.01960        3.73940
N          4.17060        1.35340        3.44180
C          5.51570        1.42440        2.85820
C          5.48840        1.15030        1.37600
C          5.05600        2.14920        0.50140
C          5.00720        1.90070       -0.86730
C          5.39310        0.65610       -1.36460
C          5.82730       -0.33930       -0.49150
C          5.87730       -0.09400        0.87990
C          3.37840        2.47900        3.45350
O          3.82470        3.55050        3.08540
C          1.95400        2.35380        3.95640
O          1.65370        1.09780        4.52240
C          2.05630       -0.00660       -1.34780
S          0.69400       -0.13780       -2.50660
O          0.64980        0.98810       -3.39710
O          0.58800       -1.47120       -3.03380
N         -0.55900        0.06520       -1.27300
C         -1.95900       -0.27990       -1.49090
H          3.21150        0.01880        1.17560
H         -0.51090       -0.01770        3.35290
H         -1.78120       -0.01830        1.22870
H          4.04010       -0.73190        3.02050
H          4.01090       -0.27440        4.75490
H          6.18350        0.71320        3.39610
H          5.93320        2.44910        3.05250
H          4.75070        3.12230        0.90060
H          4.67180        2.68160       -1.54910
H          5.36360        0.46480       -2.43560
H          6.13230       -1.30900       -0.87970
H          6.22500       -0.87170        1.55600
H          1.76620        3.05650        4.79450
H          1.24620        2.56900        3.12910
H          2.77980       -0.84140       -1.45440
H          2.65430        0.91670       -1.51870
H         -2.24200       -0.09210       -2.54390
H         -2.61140        0.35690       -0.86400
H         -2.17440       -1.33940       -1.25940
