46
rmsd246.gzmat
C          0.00000        0.00000        0.00000
C          1.42350        0.00000        0.00000
C          2.11870        0.00000        1.19260
C          1.42610        0.01200        2.40700
C          0.02890        0.00620        2.40350
C         -0.69380       -0.00990        1.21370
C          2.12920        0.08300        3.73060
H          1.51780       -0.40900        4.53240
C          3.55850       -0.50860        3.75400
N          4.56560        0.44360        3.27640
C          5.81310       -0.13160        2.75330
C          5.63630       -0.63550        1.34320
C          5.71530        0.26260        0.27690
C          5.51900       -0.18630       -1.02610
C          5.24010       -1.53150       -1.26660
C          5.16580       -2.42790       -0.20220
C          5.36770       -1.98270        1.10310
C          4.26580        1.75770        2.98880
O          5.08260        2.46830        2.43150
C          2.91240        2.29600        3.40620
O          2.17700        1.41130        4.21820
C          2.06130       -0.00020       -1.34630
S          0.70290       -0.10600       -2.51000
O          0.64750        1.04570       -3.36630
O          0.60430       -1.42340       -3.07670
N         -0.55140        0.05980       -1.27340
C         -1.95880       -0.23070       -1.51160
H          3.21120       -0.00700        1.17210
H         -0.51250        0.02170        3.35150
H         -1.77800       -0.01850        1.23280
H          3.58540       -1.44630        3.15370
H          3.82240       -0.77940        4.80590
H          6.15410       -0.94070        3.43890
H          6.60830        0.66020        2.78680
H          5.92220        1.31920        0.47420
H          5.58820        0.51420       -1.85710
H          5.08970       -1.88420       -2.28550
H          4.95090       -3.47860       -0.38830
H          5.31650       -2.68920        1.92890
H          3.02210        3.19270        4.05140
H          2.32020        2.56250        2.50650
H          2.77570       -0.84520       -1.45680
H          2.67060        0.91540       -1.50690
H         -2.24260        0.07890       -2.53610
H         -2.59730        0.34320       -0.81460
H         -2.19050       -1.30600       -1.39650
