46
rmsd35.gzmat
C          0.00000        0.00000        0.00000
C          1.42300        0.00000        0.00000
C          2.11860        0.00000        1.19370
C          1.42280       -0.00300        2.40470
C          0.02450       -0.01540        2.40110
C         -0.69770       -0.01890        1.21230
C          2.10230        0.04040        3.74180
H          1.70030       -0.76510        4.41050
C          3.64630       -0.03170        3.73070
N          4.24870        1.25500        3.37630
C          5.59870        1.22220        2.80000
C          5.55900        0.90430        1.32710
C          5.21180        1.90650        0.41910
C          5.14760        1.62010       -0.94140
C          5.43040        0.33270       -1.39750
C          5.78160       -0.66580       -0.49140
C          5.84850       -0.38140        0.87160
C          3.52660        2.42600        3.33750
O          4.04090        3.45320        2.93440
C          2.09170        2.40580        3.82450
O          1.72270        1.20250        4.45880
C          2.05690        0.00610       -1.34830
S          0.69660       -0.07180       -2.51280
O          0.64440        1.10090       -3.33990
O          0.59470       -1.37300       -3.11440
N         -0.55340        0.06060       -1.27130
C         -1.97190       -0.18140       -1.49440
H          3.21090        0.01500        1.17590
H         -0.51200       -0.01170        3.35290
H         -1.78190       -0.02740        1.22780
H          3.98920       -0.83380        3.04030
H          4.00150       -0.30570        4.75510
H          6.21830        0.48840        3.36340
H          6.07860        2.22470        2.96290
H          4.98380        2.91270        0.78540
H          4.88130        2.40490       -1.64860
H          5.38650        0.10990       -2.46200
H          6.00790       -1.66890       -0.84650
H          6.13170       -1.16240        1.57370
H          1.93000        3.16590        4.61650
H          1.40650        2.60810        2.97540
H          2.76380       -0.84070       -1.47150
H          2.67420        0.91980       -1.49930
H         -2.21170       -0.13530       -2.57290
H         -2.57600        0.59790       -0.99130
H         -2.28980       -1.17130       -1.11860
