46
rmsd2.gzmat
C          0.00000        0.00000        0.00000
C          1.42270        0.00000        0.00000
C          2.11980        0.00000        1.19340
C          1.42460       -0.00170        2.40440
C          0.02640       -0.02220        2.40180
C         -0.69590       -0.02750        1.21340
C          2.10120        0.05420        3.74270
H          1.75450       -0.79190        4.39180
C          3.64620        0.09380        3.73240
N          4.14940        1.42340        3.37990
C          5.49430        1.49180        2.79570
C          5.48210        1.16730        1.32380
C          5.07930        2.14020        0.40700
C          5.06320        1.84860       -0.95420
C          5.44460        0.58380       -1.40170
C          5.84340       -0.38800       -0.48570
C          5.86340       -0.09830        0.87770
C          3.33210        2.53010        3.32520
O          3.74810        3.58330        2.87830
C          1.92180        2.41130        3.86750
O          1.64620        1.17350        4.48450
C          2.05840        0.00780       -1.34720
S          0.69740       -0.06580       -2.51160
O          0.65510        1.10160       -3.34700
O          0.58740       -1.37170       -3.10270
N         -0.55550        0.08450       -1.27170
C         -1.95770       -0.23320       -1.50970
H          3.21200        0.01550        1.17390
H         -0.50870       -0.02110        3.35450
H         -1.78020       -0.04140        1.23200
H          4.04860       -0.67960        3.04140
H          4.02050       -0.15420        4.75670
H          6.16870        0.80800        3.36040
H          5.89750        2.52790        2.95680
H          4.77060        3.12790        0.76550
H          4.75930        2.61310       -1.66900
H          5.44120        0.35920       -2.46660
H          6.14710       -1.37330       -0.83320
H          6.18270       -0.85820        1.58740
H          1.75060        3.14180        4.68520
H          1.19080        2.59190        3.05280
H          2.76300       -0.84030       -1.47190
H          2.67800        0.92060       -1.49640
H         -2.25050        0.07880       -2.53060
H         -2.60620        0.32300       -0.80730
H         -2.16870       -1.31340       -1.40200
