rmsd69.gzmat
 OpenBabel08211713423D

 46 49  0  0  1  0  0  0  0  0999 V2000
    0.0000    0.0000    0.0000 C   0  0  0  0  0  0  0  0  0  0  0  0
    1.4233    0.0000    0.0000 C   0  0  0  0  0  0  0  0  0  0  0  0
    2.1206    0.0000    1.1933 C   0  0  0  0  0  0  0  0  0  0  0  0
    1.4247   -0.0099    2.4040 C   0  0  0  0  0  0  0  0  0  0  0  0
    0.0263   -0.0321    2.4008 C   0  0  0  0  0  0  0  0  0  0  0  0
   -0.6963   -0.0312    1.2126 C   0  0  0  0  0  0  0  0  0  0  0  0
    2.0990    0.0286    3.7439 C   0  0  1  0  0  0  0  0  0  0  0  0
    1.7590   -0.8340    4.3746 H   0  0  0  0  0  0  0  0  0  0  0  0
    3.6435    0.0816    3.7397 C   0  0  0  0  0  0  0  0  0  0  0  0
    4.1374    1.4216    3.4169 N   0  0  0  0  0  0  0  0  0  0  0  0
    5.4835    1.5138    2.8394 C   0  0  0  0  0  0  0  0  0  0  0  0
    5.4777    1.1968    1.3658 C   0  0  0  0  0  0  0  0  0  0  0  0
    5.0357    2.1604    0.4574 C   0  0  0  0  0  0  0  0  0  0  0  0
    5.0215    1.8755   -0.9051 C   0  0  0  0  0  0  0  0  0  0  0  0
    5.4465    0.6278   -1.3621 C   0  0  0  0  0  0  0  0  0  0  0  0
    5.8865   -0.3337   -0.4547 C   0  0  0  0  0  0  0  0  0  0  0  0
    5.9041   -0.0505    0.9102 C   0  0  0  0  0  0  0  0  0  0  0  0
    3.3182    2.5276    3.4041 C   0  0  0  0  0  0  0  0  0  0  0  0
    3.7373    3.6004    3.0090 O   0  0  0  0  0  0  0  0  0  0  0  0
    1.8997    2.3806    3.9175 C   0  0  0  0  0  0  0  0  0  0  0  0
    1.6304    1.1283    4.5069 O   0  0  0  0  0  0  0  0  0  0  0  0
    2.0577    0.0061   -1.3482 C   0  0  0  0  0  0  0  0  0  0  0  0
    0.6965   -0.0869   -2.5110 S   0  0  0  0  0  0  0  0  0  0  0  0
    0.6474    1.0664   -3.3653 O   0  0  0  0  0  0  0  0  0  0  0  0
    0.5907   -1.4026   -3.0805 O   0  0  0  0  0  0  0  0  0  0  0  0
   -0.5530    0.0827   -1.2715 N   0  0  0  0  0  0  0  0  0  0  0  0
   -1.9679   -0.1680   -1.5095 C   0  0  0  0  0  0  0  0  0  0  0  0
    3.2129    0.0213    1.1745 H   0  0  0  0  0  0  0  0  0  0  0  0
   -0.5098   -0.0393    3.3529 H   0  0  0  0  0  0  0  0  0  0  0  0
   -1.7805   -0.0475    1.2309 H   0  0  0  0  0  0  0  0  0  0  0  0
    4.0550   -0.6736    3.0341 H   0  0  0  0  0  0  0  0  0  0  0  0
    4.0155   -0.1847    4.7604 H   0  0  0  0  0  0  0  0  0  0  0  0
    6.1672    0.8383    3.4029 H   0  0  0  0  0  0  0  0  0  0  0  0
    5.8708    2.5554    3.0056 H   0  0  0  0  0  0  0  0  0  0  0  0
    4.6973    3.1353    0.8237 H   0  0  0  0  0  0  0  0  0  0  0  0
    4.6850    2.6326   -1.6128 H   0  0  0  0  0  0  0  0  0  0  0  0
    5.4441    0.4092   -2.4285 H   0  0  0  0  0  0  0  0  0  0  0  0
    6.2231   -1.3055   -0.8099 H   0  0  0  0  0  0  0  0  0  0  0  0
    6.2569   -0.8016    1.6130 H   0  0  0  0  0  0  0  0  0  0  0  0
    1.7015    3.0941    4.7438 H   0  0  0  0  0  0  0  0  0  0  0  0
    1.1824    2.5661    3.0916 H   0  0  0  0  0  0  0  0  0  0  0  0
    2.7684   -0.8372   -1.4694 H   0  0  0  0  0  0  0  0  0  0  0  0
    2.6697    0.9231   -1.5013 H   0  0  0  0  0  0  0  0  0  0  0  0
   -2.2502    0.1815   -2.5215 H   0  0  0  0  0  0  0  0  0  0  0  0
   -2.5897    0.3980   -0.7906 H   0  0  0  0  0  0  0  0  0  0  0  0
   -2.2243   -1.2407   -1.4269 H   0  0  0  0  0  0  0  0  0  0  0  0
  1  2  2  0  0  0  0
  1  6  1  0  0  0  0
  2  3  1  0  0  0  0
  3  4  2  0  0  0  0
  4  7  1  0  0  0  0
  5  4  1  0  0  0  0
  5 29  1  0  0  0  0
  6 30  1  0  0  0  0
  6  5  2  0  0  0  0
  7  8  1  1  0  0  0
  7 21  1  0  0  0  0
  9  7  1  0  0  0  0
  9 32  1  0  0  0  0
 10  9  1  0  0  0  0
 11 34  1  0  0  0  0
 11 33  1  0  0  0  0
 11 10  1  0  0  0  0
 12 11  1  0  0  0  0
 13 35  1  0  0  0  0
 13 12  2  0  0  0  0
 14 13  1  0  0  0  0
 15 14  2  0  0  0  0
 15 16  1  0  0  0  0
 16 17  2  0  0  0  0
 17 12  1  0  0  0  0
 17 39  1  0  0  0  0
 18 10  1  0  0  0  0
 18 20  1  0  0  0  0
 19 18  2  0  0  0  0
 20 21  1  0  0  0  0
 20 40  1  0  0  0  0
 22  2  1  0  0  0  0
 23 22  1  0  0  0  0
 23 26  1  0  0  0  0
 24 23  2  0  0  0  0
 25 23  2  0  0  0  0
 26  1  1  0  0  0  0
 27 46  1  0  0  0  0
 27 26  1  0  0  0  0
 27 45  1  0  0  0  0
 28  3  1  0  0  0  0
 31  9  1  0  0  0  0
 36 14  1  0  0  0  0
 37 15  1  0  0  0  0
 38 16  1  0  0  0  0
 41 20  1  0  0  0  0
 42 22  1  0  0  0  0
 43 22  1  0  0  0  0
 44 27  1  0  0  0  0
M  END
$$$$
