rmsd1.gzmat
 OpenBabel08211713423D

 46 49  0  0  1  0  0  0  0  0999 V2000
    0.0000    0.0000    0.0000 C   0  0  0  0  0  0  0  0  0  0  0  0
    1.4226    0.0000    0.0000 C   0  0  0  0  0  0  0  0  0  0  0  0
    2.1198    0.0000    1.1930 C   0  0  0  0  0  0  0  0  0  0  0  0
    1.4256    0.0049    2.4047 C   0  0  0  0  0  0  0  0  0  0  0  0
    0.0275   -0.0024    2.4020 C   0  0  0  0  0  0  0  0  0  0  0  0
   -0.6952   -0.0115    1.2135 C   0  0  0  0  0  0  0  0  0  0  0  0
    2.1055    0.0580    3.7412 C   0  0  1  0  0  0  0  0  0  0  0  0
    1.6984   -0.7366    4.4193 H   0  0  0  0  0  0  0  0  0  0  0  0
    3.6493   -0.0218    3.7323 C   0  0  0  0  0  0  0  0  0  0  0  0
    4.2563    1.2551    3.3495 N   0  0  0  0  0  0  0  0  0  0  0  0
    5.6054    1.2043    2.7723 C   0  0  0  0  0  0  0  0  0  0  0  0
    5.5714    0.8247    1.3140 C   0  0  0  0  0  0  0  0  0  0  0  0
    5.2512    1.7916    0.3592 C   0  0  0  0  0  0  0  0  0  0  0  0
    5.1922    1.4454   -0.9878 C   0  0  0  0  0  0  0  0  0  0  0  0
    5.4490    0.1328   -1.3829 C   0  0  0  0  0  0  0  0  0  0  0  0
    5.7721   -0.8307   -0.4297 C   0  0  0  0  0  0  0  0  0  0  0  0
    5.8392   -0.4856    0.9191 C   0  0  0  0  0  0  0  0  0  0  0  0
    3.5276    2.4200    3.2595 C   0  0  0  0  0  0  0  0  0  0  0  0
    4.0296    3.4265    2.7934 O   0  0  0  0  0  0  0  0  0  0  0  0
    2.1047    2.4232    3.7817 C   0  0  0  0  0  0  0  0  0  0  0  0
    1.7340    1.2332    4.4410 O   0  0  0  0  0  0  0  0  0  0  0  0
    2.0573    0.0040   -1.3475 C   0  0  0  0  0  0  0  0  0  0  0  0
    0.6975   -0.1343   -2.5076 S   0  0  0  0  0  0  0  0  0  0  0  0
    0.6421    0.9932   -3.3956 O   0  0  0  0  0  0  0  0  0  0  0  0
    0.6002   -1.4666   -3.0383 O   0  0  0  0  0  0  0  0  0  0  0  0
   -0.5550    0.0621   -1.2736 N   0  0  0  0  0  0  0  0  0  0  0  0
   -1.9604   -0.2464   -1.5032 C   0  0  0  0  0  0  0  0  0  0  0  0
    3.2119    0.0080    1.1732 H   0  0  0  0  0  0  0  0  0  0  0  0
   -0.5086    0.0098    3.3537 H   0  0  0  0  0  0  0  0  0  0  0  0
   -1.7795   -0.0187    1.2319 H   0  0  0  0  0  0  0  0  0  0  0  0
    3.9886   -0.8403    3.0596 H   0  0  0  0  0  0  0  0  0  0  0  0
    4.0026   -0.2736    4.7631 H   0  0  0  0  0  0  0  0  0  0  0  0
    6.2268    0.4960    3.3661 H   0  0  0  0  0  0  0  0  0  0  0  0
    6.0810    2.2141    2.8962 H   0  0  0  0  0  0  0  0  0  0  0  0
    5.0406    2.8176    0.6781 H   0  0  0  0  0  0  0  0  0  0  0  0
    4.9507    2.2034   -1.7320 H   0  0  0  0  0  0  0  0  0  0  0  0
    5.4069   -0.1368   -2.4365 H   0  0  0  0  0  0  0  0  0  0  0  0
    5.9752   -1.8538   -0.7372 H   0  0  0  0  0  0  0  0  0  0  0  0
    6.1051   -1.2383    1.6580 H   0  0  0  0  0  0  0  0  0  0  0  0
    1.9725    3.1957    4.5673 H   0  0  0  0  0  0  0  0  0  0  0  0
    1.4008    2.6221    2.9473 H   0  0  0  0  0  0  0  0  0  0  0  0
    2.7915   -0.8210   -1.4565 H   0  0  0  0  0  0  0  0  0  0  0  0
    2.6440    0.9349   -1.5136 H   0  0  0  0  0  0  0  0  0  0  0  0
   -2.2535    0.0551   -2.5275 H   0  0  0  0  0  0  0  0  0  0  0  0
   -2.6004    0.3254   -0.8053 H   0  0  0  0  0  0  0  0  0  0  0  0
   -2.1821   -1.3228   -1.3813 H   0  0  0  0  0  0  0  0  0  0  0  0
  1  2  2  0  0  0  0
  1  6  1  0  0  0  0
  2  3  1  0  0  0  0
  3  4  2  0  0  0  0
  4  7  1  0  0  0  0
  5  4  1  0  0  0  0
  5 29  1  0  0  0  0
  6 30  1  0  0  0  0
  6  5  2  0  0  0  0
  7  8  1  1  0  0  0
  7 21  1  0  0  0  0
  9  7  1  0  0  0  0
  9 32  1  0  0  0  0
 10  9  1  0  0  0  0
 11 34  1  0  0  0  0
 11 10  1  0  0  0  0
 11 33  1  0  0  0  0
 12 11  1  0  0  0  0
 13 35  1  0  0  0  0
 13 12  2  0  0  0  0
 14 13  1  0  0  0  0
 15 14  2  0  0  0  0
 15 16  1  0  0  0  0
 16 17  2  0  0  0  0
 17 12  1  0  0  0  0
 17 39  1  0  0  0  0
 18 10  1  0  0  0  0
 18 20  1  0  0  0  0
 19 18  2  0  0  0  0
 20 21  1  0  0  0  0
 20 40  1  0  0  0  0
 22  2  1  0  0  0  0
 23 22  1  0  0  0  0
 23 26  1  0  0  0  0
 24 23  2  0  0  0  0
 25 23  2  0  0  0  0
 26  1  1  0  0  0  0
 27 46  1  0  0  0  0
 27 26  1  0  0  0  0
 27 45  1  0  0  0  0
 28  3  1  0  0  0  0
 31  9  1  0  0  0  0
 36 14  1  0  0  0  0
 37 15  1  0  0  0  0
 38 16  1  0  0  0  0
 41 20  1  0  0  0  0
 42 22  1  0  0  0  0
 43 22  1  0  0  0  0
 44 27  1  0  0  0  0
M  END
$$$$
