23
rmsd225.gzmat
N          0.00000        0.00000        0.00000
C          1.30510        0.00000        0.00000
S          2.00020        0.00000        1.63600
C          0.38170        0.00580        2.31230
C         -0.54100        0.00190        1.29540
C         -2.01520       -0.00560        1.42980
C          0.12610        0.01930        3.76210
C          0.37130        1.42800        4.33750
O         -0.39650        1.60870        5.54170
P          0.15010        1.27530        6.99700
O         -0.88850        1.53420        7.97750
O          0.70920       -0.21060        6.83120
O          1.53820        2.05750        7.17840
H          1.91160       -0.00020       -0.89620
H         -2.51350        0.05400        0.44630
H         -2.37420        0.84520        2.02930
H         -2.37060       -0.92900        1.91340
H          0.74200       -0.73570        4.30150
H         -0.92580       -0.28630        3.97920
H         -0.11380        2.20830        3.70580
H          1.44900        1.65740        4.41840
H          1.28740       -0.43130        7.65040
H          1.35410        3.01370        7.47550
