23
rmsd9.gzmat
N          0.00000        0.00000        0.00000
C          1.30500        0.00000        0.00000
S          1.99910        0.00000        1.63280
C          0.38000        0.00860        2.31210
C         -0.54340       -0.00300        1.29520
C         -2.01840       -0.04500        1.41210
C          0.13500        0.01530        3.76400
C          0.65670        1.28230        4.46980
O         -0.39420        2.24690        4.60630
P         -0.67300        3.46530        3.61980
O         -1.42740        4.49080        4.32020
O          0.77650        3.80640        3.02110
O         -1.45110        2.90870        2.35580
H          1.91060        0.00140       -0.89710
H         -2.50960        0.27310        0.47530
H         -2.40260        0.60660        2.21440
H         -2.37150       -1.06690        1.62150
H          0.58590       -0.88100        4.24600
H         -0.95880       -0.08420        3.97700
H          1.59870        1.65880        4.03330
H          0.84060        1.07330        5.55120
H          0.91830        4.81440        3.03910
H         -0.82560        2.34560        1.76870
