23
rmsd1.gzmat
N          0.00000        0.00000        0.00000
C          1.30550        0.00000        0.00000
S          1.99970        0.00000        1.63300
C          0.38140       -0.00520        2.31230
C         -0.54250        0.00270        1.29520
C         -2.01740        0.03300        1.41730
C          0.12970       -0.00590        3.76300
C          0.63650       -1.27510        4.47470
O         -0.39170       -2.27300        4.50580
P         -0.52660       -3.49550        3.49270
O         -1.19830       -4.60320        4.15070
O         -1.32280       -2.98530        2.22120
O          0.96380       -3.68520        2.92720
H          1.91020       -0.00050       -0.89760
H         -2.50820       -0.28770        0.48140
H         -2.37820        1.05090        1.63270
H         -2.39040       -0.62620        2.21900
H         -0.96400        0.10270        3.96950
H          0.58900        0.88580        4.24590
H          0.73170       -1.08700        5.57120
H          1.62110       -1.60790        4.10060
H         -0.73860       -2.35050        1.66390
H          1.21460       -4.67170        2.95840
