23

N         -0.17800        0.57780        0.21840
C          1.11740        0.69440        0.14400
S          1.97060        0.28040        1.59620
C          0.44710       -0.06720        2.36230
C         -0.57950        0.12710        1.46010
C         -2.04340       -0.06410        1.72540
C          0.32110       -0.25310        3.84130
C          0.24560        1.10720        4.55450
O         -0.74920        1.91340        3.92610
P         -0.52150        3.33970        3.20470
O         -0.92380        4.54300        3.95430
O          1.06450        3.27450        2.82730
O         -1.29130        3.17700        1.80600
H          1.65410        1.01900       -0.75000
H         -2.52750       -0.48490        0.83240
H         -2.52920        0.89660        1.95590
H         -2.21910       -0.73610        2.57580
H          1.16410       -0.82450        4.26180
H         -0.59520       -0.82400        4.05430
H          1.22160        1.61230        4.51280
H         -0.04080        0.97460        5.60940
H          1.46250        4.14930        2.94860
H         -0.93960        2.48480        1.21690
