23
rmsd233.gzmat
N          0.00000        0.00000        0.00000
C          1.30500        0.00000        0.00000
S          1.99940        0.00000        1.63600
C          0.38160       -0.00180        2.31280
C         -0.54140       -0.00070        1.29590
C         -2.01620        0.00840        1.42080
C          0.13230        0.01030        3.76350
C         -0.07770        1.46160        4.24370
O         -0.74660        1.44730        5.51640
P          0.00090        1.51870        6.91620
O         -0.97380        1.39320        7.98310
O          1.13870        0.40520        6.81250
O          0.90930        2.84220        6.88660
H          1.91120       -0.00170       -0.89640
H         -2.48660       -0.64830        0.66800
H         -2.42250        1.01880        1.24580
H         -2.35710       -0.32230        2.41240
H          0.94760       -0.47620        4.34440
H         -0.77120       -0.59470        4.01710
H         -0.85630        1.97540        3.63310
H          0.85520        2.05050        4.18740
H          2.02080        0.79900        7.16210
H          0.38740        3.63020        7.26020
