23
rmsd28.gzmat
N          0.00000        0.00000        0.00000
C          1.30450        0.00000        0.00000
S          2.00100        0.00000        1.63360
C          0.37900       -0.00610        2.31510
C         -0.54560        0.00310        1.29760
C         -2.02270        0.05100        1.40330
C          0.14140       -0.03900        3.76870
C          0.52290       -1.39090        4.40590
O         -0.51830       -2.36340        4.23060
P         -0.62190       -3.35180        2.98350
O         -1.79170       -4.19930        3.15740
O         -0.53060       -2.36700        1.73650
O          0.79480       -4.09240        2.85600
H          1.91050       -0.00020       -0.89570
H         -2.41960        0.99920        1.00860
H         -2.37750       -0.06910        2.43660
H         -2.48650       -0.75800        0.81070
H         -0.93470        0.16500        3.98980
H          0.69300        0.77460        4.28870
H          0.49180       -1.31320        5.51940
H          1.53470       -1.72340        4.10960
H         -0.48550       -2.93000        0.87360
H          0.79460       -4.92260        3.44740
