rmsd132.gzmat
 OpenBabel08211713423D

 23 23  0  0  1  0  0  0  0  0999 V2000
    0.0000    0.0000    0.0000 N   0  0  0  0  0  0  0  0  0  0  0  0
    1.3047    0.0000    0.0000 C   0  0  0  0  0  0  0  0  0  0  0  0
    2.0004    0.0000    1.6343 S   0  0  0  0  0  0  0  0  0  0  0  0
    0.3812    0.0061    2.3126 C   0  0  2  0  0  0  0  0  0  0  0  0
   -0.5430    0.0007    1.2967 C   0  0  0  0  0  0  0  0  0  0  0  0
   -2.0184   -0.0253    1.4094 C   0  0  0  0  0  0  0  0  0  0  0  0
    0.1373    0.0380    3.7645 C   0  0  0  0  0  0  0  0  0  0  0  0
    0.2889    1.4612    4.3462 C   0  0  0  0  0  0  0  0  0  0  0  0
   -0.9313    2.1429    4.0084 O   0  0  0  0  0  0  0  0  0  0  0  0
   -0.9984    3.4766    3.1435 P   0  0  0  0  0  0  0  0  0  0  0  0
   -2.3911    3.8622    3.0261 O   0  0  0  0  0  0  0  0  0  0  0  0
   -0.0174    4.4821    3.9007 O   0  0  0  0  0  0  0  0  0  0  0  0
   -0.1615    3.2732    1.7949 O   0  0  0  0  0  0  0  0  0  0  0  0
    1.9111    0.0005   -0.8963 H   0  0  0  0  0  0  0  0  0  0  0  0
   -2.4244   -0.9900    1.0620 H   0  0  0  0  0  0  0  0  0  0  0  0
   -2.4886    0.7499    0.7788 H   0  0  0  0  0  0  0  0  0  0  0  0
   -2.3699    0.1385    2.4395 H   0  0  0  0  0  0  0  0  0  0  0  0
    0.8069   -0.6547    4.3171 H   0  0  0  0  0  0  0  0  0  0  0  0
   -0.8940   -0.3273    3.9912 H   0  0  0  0  0  0  0  0  0  0  0  0
    1.2374    1.9333    4.0358 H   0  0  0  0  0  0  0  0  0  0  0  0
    0.2566    1.4367    5.4584 H   0  0  0  0  0  0  0  0  0  0  0  0
    0.5148    5.0089    3.1940 H   0  0  0  0  0  0  0  0  0  0  0  0
   -0.5303    2.4893    1.2588 H   0  0  0  0  0  0  0  0  0  0  0  0
  1  5  2  0  0  0  0
  2  1  2  0  0  0  0
  2  3  1  0  0  0  0
  3  4  1  0  0  0  0
  4  7  1  6  0  0  0
  5  6  1  0  0  0  0
  5  4  1  0  0  0  0
  6 17  1  0  0  0  0
  7 19  1  0  0  0  0
  7 18  1  0  0  0  0
  7  8  1  0  0  0  0
  8 21  1  0  0  0  0
  9  8  1  0  0  0  0
 10 12  1  0  0  0  0
 10  9  1  0  0  0  0
 11 10  2  0  0  0  0
 13 10  1  0  0  0  0
 14  2  1  0  0  0  0
 15  6  1  0  0  0  0
 16  6  1  0  0  0  0
 20  8  1  0  0  0  0
 22 12  1  0  0  0  0
 23 13  1  0  0  0  0
M  RAD  1   4   2
M  END
$$$$
