23
rmsd152.gzmat
N          0.00000        0.00000        0.00000
C          1.30540        0.00000        0.00000
S          2.00040        0.00000        1.63580
C          0.38370        0.00180        2.31170
C         -0.54010        0.00050        1.29500
C         -2.01350       -0.00190        1.43720
C          0.12180        0.01730        3.76010
C          0.07510        1.47150        4.27110
O         -0.73080        1.54670        5.46080
P         -0.15450        1.39710        6.93400
O         -1.24480        1.46710        7.88990
O          0.71180        0.05960        6.84680
O          1.02720        2.47030        7.09360
H          1.91150       -0.00090       -0.89630
H         -2.51900        0.01230        0.45630
H         -2.36810        0.87630        1.99920
H         -2.36560       -0.90010        1.96910
H          0.86880       -0.57350        4.33580
H         -0.85100       -0.48300        3.98740
H         -0.54590        2.11190        3.60150
H          1.08520        1.91440        4.34380
H          1.40700        0.07390        7.60230
H          0.64570        3.35020        7.43240
