rmsd225.gzmat
 OpenBabel08211713423D

 23 23  0  0  1  0  0  0  0  0999 V2000
    0.0000    0.0000    0.0000 N   0  0  0  0  0  0  0  0  0  0  0  0
    1.3051    0.0000    0.0000 C   0  0  0  0  0  0  0  0  0  0  0  0
    2.0002    0.0000    1.6360 S   0  0  0  0  0  0  0  0  0  0  0  0
    0.3817    0.0058    2.3123 C   0  0  2  0  0  0  0  0  0  0  0  0
   -0.5410    0.0019    1.2954 C   0  0  0  0  0  0  0  0  0  0  0  0
   -2.0152   -0.0056    1.4298 C   0  0  0  0  0  0  0  0  0  0  0  0
    0.1261    0.0193    3.7621 C   0  0  0  0  0  0  0  0  0  0  0  0
    0.3713    1.4280    4.3375 C   0  0  0  0  0  0  0  0  0  0  0  0
   -0.3965    1.6087    5.5417 O   0  0  0  0  0  0  0  0  0  0  0  0
    0.1501    1.2753    6.9970 P   0  0  0  0  0  0  0  0  0  0  0  0
   -0.8885    1.5342    7.9775 O   0  0  0  0  0  0  0  0  0  0  0  0
    0.7092   -0.2106    6.8312 O   0  0  0  0  0  0  0  0  0  0  0  0
    1.5382    2.0575    7.1784 O   0  0  0  0  0  0  0  0  0  0  0  0
    1.9116   -0.0002   -0.8962 H   0  0  0  0  0  0  0  0  0  0  0  0
   -2.5135    0.0540    0.4463 H   0  0  0  0  0  0  0  0  0  0  0  0
   -2.3742    0.8452    2.0293 H   0  0  0  0  0  0  0  0  0  0  0  0
   -2.3706   -0.9290    1.9134 H   0  0  0  0  0  0  0  0  0  0  0  0
    0.7420   -0.7357    4.3015 H   0  0  0  0  0  0  0  0  0  0  0  0
   -0.9258   -0.2863    3.9792 H   0  0  0  0  0  0  0  0  0  0  0  0
   -0.1138    2.2083    3.7058 H   0  0  0  0  0  0  0  0  0  0  0  0
    1.4490    1.6574    4.4184 H   0  0  0  0  0  0  0  0  0  0  0  0
    1.2874   -0.4313    7.6504 H   0  0  0  0  0  0  0  0  0  0  0  0
    1.3541    3.0137    7.4755 H   0  0  0  0  0  0  0  0  0  0  0  0
  1  5  2  0  0  0  0
  2  1  2  0  0  0  0
  2  3  1  0  0  0  0
  3  4  1  0  0  0  0
  4  7  1  6  0  0  0
  5  6  1  0  0  0  0
  5  4  1  0  0  0  0
  6 17  1  0  0  0  0
  6 16  1  0  0  0  0
  7 19  1  0  0  0  0
  7 18  1  0  0  0  0
  7  8  1  0  0  0  0
  8 21  1  0  0  0  0
  8  9  1  0  0  0  0
  9 10  1  0  0  0  0
 10 13  1  0  0  0  0
 10 11  2  0  0  0  0
 12 10  1  0  0  0  0
 12 22  1  0  0  0  0
 13 23  1  0  0  0  0
 14  2  1  0  0  0  0
 15  6  1  0  0  0  0
 20  8  1  0  0  0  0
M  RAD  1   4   2
M  END
$$$$
