55
rmsd116.gzmat
Cl         0.00000        0.00000        0.00000
C          1.70930        0.00000        0.00000
C          2.36070        0.00000        1.25290
C          3.73110        0.00400        1.27630
C          4.47600        0.01020        0.06360
C          5.89740        0.01820        0.08090
C          6.60400        0.02970       -1.09510
C          5.92850        0.04120       -2.34010
C          4.55770        0.02700       -2.38040
C          3.80040        0.01050       -1.17720
C          2.37780       -0.00100       -1.19170
S          8.35530        0.03570       -1.05620
O          8.78210       -0.43580        0.23990
O          8.87760       -0.50150       -2.28790
N          8.75290        1.73140       -1.12080
C          9.08820        2.45490        0.09820
H          8.94020        1.82830        1.01710
C         10.50660        3.07470        0.07490
C         10.32260        4.59870       -0.10370
N          8.87730        4.84320        0.06380
C          8.13470        3.67380        0.14720
O          6.93330        3.65430        0.26610
C          8.28050        6.09150       -0.39650
H          7.19630        6.09220       -0.08830
C          8.97830        7.30990        0.20850
C          8.43750        6.14190       -1.93520
O          9.50970        6.45060       -2.42410
N          7.35610        5.89950       -2.75910
C          7.62190        5.74040       -4.20090
C          7.65490        4.24540       -4.57060
O          6.45140        3.61510       -4.17240
C          6.21400        3.70880       -2.78070
C          6.14440        5.18340       -2.34070
H          1.77710       -0.00410        2.17400
H          4.27110        0.00510        2.22470
H          6.39770        0.01280        1.05740
H          6.50240        0.05590       -3.27440
H          4.02970        0.02840       -3.33270
H          1.85540       -0.00930       -2.14750
H          9.23380        2.07030       -1.94920
H         11.12940        2.65110       -0.73000
H         11.04250        2.85030        1.01200
H         10.87920        5.17150        0.66710
H         10.68620        4.95050       -1.09460
H         10.00380        7.42530       -0.17290
H          9.03330        7.23050        1.30040
H          8.44100        8.23390       -0.04020
H          8.58050        6.24150       -4.47460
H          6.80860        6.25760       -4.76080
H          7.66150        4.09360       -5.66490
H          8.51560        3.72090       -4.12180
H          5.24370        3.19400       -2.66080
H          6.99060        3.15310       -2.22630
H          5.27180        5.68640       -2.82180
H          5.98410        5.24050       -1.24120
