55
rmsd128.gzmat
Cl         0.00000        0.00000        0.00000
C          1.70910        0.00000        0.00000
C          2.36320        0.00000        1.25180
C          3.73360       -0.00460        1.27400
C          4.47580       -0.01120        0.05940
C          5.89730       -0.03100        0.07310
C          6.60210       -0.01490       -1.10370
C          5.92230        0.01160       -2.34690
C          4.55160        0.01370       -2.38530
C          3.79700        0.00080       -1.18020
C          2.37440        0.00270       -1.19390
S          8.35980       -0.03130       -1.11360
O          8.84850       -1.31540       -0.68210
O          8.81100        0.58150       -2.34050
N          8.75740        1.05730        0.19890
C          9.15790        2.42580       -0.14090
H         10.05350        2.46530       -0.81570
C          7.99550        3.26280       -0.73080
C          8.05450        4.62320        0.00360
N          8.87780        4.37520        1.20320
C          9.48650        3.13920        1.18850
O         10.16820        2.69910        2.08600
C          8.74010        5.18280        2.40680
H          9.43650        4.77510        3.19520
C          9.08580        6.64840        2.13890
C          7.26740        5.09790        2.87210
O          6.45050        5.90030        2.46390
N          6.89550        4.15550        3.82000
C          5.44820        3.98810        4.05530
C          4.89500        2.87520        3.14730
O          5.61430        1.67090        3.34650
C          7.00240        1.80030        3.09990
C          7.61190        2.88700        4.00560
H          1.78110        0.00180        2.17400
H          4.27900        0.00440        2.22370
H          6.39350       -0.05290        1.05140
H          6.49360        0.03680       -3.28270
H          4.02020        0.02810       -3.33570
H          1.85040        0.00420       -2.14950
H          9.37110        0.65590        0.92060
H          7.01810        2.77590       -0.56060
H          8.09800        3.38000       -1.82310
H          8.53960        5.40660       -0.61760
H          7.04420        4.99820        0.27300
H          8.36120        7.12140        1.45980
H         10.08250        6.74480        1.69070
H          9.07190        7.23000        3.06990
H          4.91370        4.94950        3.87470
H          5.30280        3.72920        5.12820
H          3.86290        2.59110        3.41930
H          4.93470        3.15830        2.08130
H          7.39130        0.79530        3.34510
H          7.17010        2.01570        2.02850
H          7.51270        2.59320        5.07800
H          8.70220        2.99450        3.81550
