55
rmsd39.gzmat
Cl         0.00000        0.00000        0.00000
C          1.70930        0.00000        0.00000
C          2.36310        0.00000        1.25160
C          3.73380        0.02100        1.27350
C          4.47550        0.05320        0.05950
C          5.89670        0.12290        0.07530
C          6.59340        0.22440       -1.10240
C          5.91440        0.21320       -2.34640
C          4.54730        0.12460       -2.38550
C          3.79630        0.05700       -1.17990
C          2.37460        0.01920       -1.19360
S          8.33200        0.42470       -1.08630
O          8.89800       -0.27290        0.04270
O          8.84740        0.26230       -2.42560
N          8.50780        2.12960       -0.76130
C          8.80740        2.59920        0.58430
H          9.24170        1.79520        1.23550
C          9.68950        3.87020        0.59080
C          8.72280        5.06110        0.79620
N          7.48780        4.46110        1.34210
C          7.45840        3.08310        1.17320
O          6.51310        2.39500        1.48070
C          6.24820        5.23210        1.37240
H          5.49660        4.64300        1.97120
C          6.44130        6.60370        2.01610
C          5.78110        5.43180       -0.08990
O          6.30350        6.28720       -0.78540
N          4.78370        4.64700       -0.60270
C          4.20360        3.47040        0.04850
C          2.68430        3.47180       -0.20300
O          2.42480        3.49470       -1.59360
C          2.94190        4.65480       -2.21890
C          4.46870        4.73440       -2.03780
H          1.78140       -0.01410        2.17320
H          4.27920        0.03000        2.22000
H          6.40070        0.11190        1.05330
H          6.48680        0.26950       -3.28070
H          4.01320        0.11700       -3.33400
H          1.85030        0.02760       -2.14960
H          8.86160        2.71630       -1.50860
H         10.27340        3.98190       -0.33730
H         10.42950        3.82110        1.40830
H          9.12390        5.79780        1.52080
H          8.52050        5.60440       -0.15470
H          7.02670        7.27710        1.37150
H          6.95880        6.52140        2.97970
H          5.47480        7.09370        2.19080
H          4.41890        3.44690        1.13860
H          4.66480        2.54400       -0.37550
H          2.21650        2.52420        0.12170
H          2.18290        4.32400        0.28680
H          2.66240        4.50780       -3.27750
H          2.43610        5.55030       -1.81730
H          4.96850        3.90010       -2.58000
H          4.86480        5.68850       -2.46000
