rmsd165.gzmat
 OpenBabel08211713433D

 55 58  0  0  1  0  0  0  0  0999 V2000
    0.0000    0.0000    0.0000 Cl  0  0  0  0  0  0  0  0  0  0  0  0
    1.7080    0.0000    0.0000 C   0  0  0  0  0  0  0  0  0  0  0  0
    2.3639    0.0000    1.2509 C   0  0  0  0  0  0  0  0  0  0  0  0
    3.7339   -0.0454    1.2723 C   0  0  0  0  0  0  0  0  0  0  0  0
    4.4772   -0.0769    0.0581 C   0  0  0  0  0  0  0  0  0  0  0  0
    5.8961   -0.1754    0.0647 C   0  0  0  0  0  0  0  0  0  0  0  0
    6.5929   -0.1964   -1.1168 C   0  0  0  0  0  0  0  0  0  0  0  0
    5.9141   -0.0887   -2.3556 C   0  0  0  0  0  0  0  0  0  0  0  0
    4.5454   -0.0164   -2.3876 C   0  0  0  0  0  0  0  0  0  0  0  0
    3.7963   -0.0289   -1.1794 C   0  0  0  0  0  0  0  0  0  0  0  0
    2.3744   -0.0056   -1.1929 C   0  0  0  0  0  0  0  0  0  0  0  0
    8.3376   -0.4050   -1.1123 S   0  0  0  0  0  0  0  0  0  0  0  0
    8.6829   -1.4555   -0.1878 O   0  0  0  0  0  0  0  0  0  0  0  0
    8.8124   -0.3942   -2.4764 O   0  0  0  0  0  0  0  0  0  0  0  0
    8.9034    1.0685   -0.3602 N   0  0  0  0  0  0  0  0  0  0  0  0
    9.5556    2.0519   -1.2273 C   0  0  1  0  0  0  0  0  0  0  0  0
   10.4190    1.6211   -1.8026 H   0  0  0  0  0  0  0  0  0  0  0  0
    8.5636    2.7507   -2.1915 C   0  0  0  0  0  0  0  0  0  0  0  0
    8.9247    4.2531   -2.1334 C   0  0  0  0  0  0  0  0  0  0  0  0
    9.7124    4.3982   -0.8954 N   0  0  0  0  0  0  0  0  0  0  0  0
   10.0831    3.1974   -0.3398 C   0  0  0  0  0  0  0  0  0  0  0  0
   10.7135    3.0780    0.6862 O   0  0  0  0  0  0  0  0  0  0  0  0
   10.0567    5.7023   -0.3518 C   0  0  1  0  0  0  0  0  0  0  0  0
   10.7044    5.5567    0.5604 H   0  0  0  0  0  0  0  0  0  0  0  0
   10.8107    6.5558   -1.3743 C   0  0  0  0  0  0  0  0  0  0  0  0
    8.7322    6.4098    0.0181 C   0  0  0  0  0  0  0  0  0  0  0  0
    8.2139    7.1844   -0.7620 O   0  0  0  0  0  0  0  0  0  0  0  0
    8.1834    6.2222    1.2790 N   0  0  0  0  0  0  0  0  0  0  0  0
    6.8184    6.7427    1.4922 C   0  0  0  0  0  0  0  0  0  0  0  0
    5.7895    5.6422    1.1749 C   0  0  0  0  0  0  0  0  0  0  0  0
    6.0406    4.4945    1.9666 O   0  0  0  0  0  0  0  0  0  0  0  0
    7.3325    3.9520    1.7621 C   0  0  0  0  0  0  0  0  0  0  0  0
    8.4153    5.0062    2.0703 C   0  0  0  0  0  0  0  0  0  0  0  0
    1.7795    0.0370    2.1717 H   0  0  0  0  0  0  0  0  0  0  0  0
    4.2747   -0.0575    2.2202 H   0  0  0  0  0  0  0  0  0  0  0  0
    6.4005   -0.2460    1.0354 H   0  0  0  0  0  0  0  0  0  0  0  0
    6.4826   -0.0725   -3.2935 H   0  0  0  0  0  0  0  0  0  0  0  0
    4.0096    0.0440   -3.3338 H   0  0  0  0  0  0  0  0  0  0  0  0
    1.8512   -0.0009   -2.1486 H   0  0  0  0  0  0  0  0  0  0  0  0
    9.4213    0.9409    0.5188 H   0  0  0  0  0  0  0  0  0  0  0  0
    7.5176    2.5912   -1.8722 H   0  0  0  0  0  0  0  0  0  0  0  0
    8.6492    2.3457   -3.2140 H   0  0  0  0  0  0  0  0  0  0  0  0
    9.5293    4.5691   -3.0097 H   0  0  0  0  0  0  0  0  0  0  0  0
    8.0239    4.9020   -2.1027 H   0  0  0  0  0  0  0  0  0  0  0  0
   10.1658    6.8442   -2.2176 H   0  0  0  0  0  0  0  0  0  0  0  0
   11.6785    6.0201   -1.7766 H   0  0  0  0  0  0  0  0  0  0  0  0
   11.1667    7.4899   -0.9213 H   0  0  0  0  0  0  0  0  0  0  0  0
    6.6409    7.6432    0.8611 H   0  0  0  0  0  0  0  0  0  0  0  0
    6.7388    7.0663    2.5544 H   0  0  0  0  0  0  0  0  0  0  0  0
    4.7643    5.9295    1.4687 H   0  0  0  0  0  0  0  0  0  0  0  0
    5.8036    5.3676    0.1060 H   0  0  0  0  0  0  0  0  0  0  0  0
    7.3669    3.1111    2.4783 H   0  0  0  0  0  0  0  0  0  0  0  0
    7.4106    3.5607    0.7325 H   0  0  0  0  0  0  0  0  0  0  0  0
    8.3728    5.2886    3.1500 H   0  0  0  0  0  0  0  0  0  0  0  0
    9.4323    4.5915    1.8988 H   0  0  0  0  0  0  0  0  0  0  0  0
  1  2  1  0  0  0  0
  2  3  2  0  0  0  0
  3  4  1  0  0  0  0
  3 34  1  0  0  0  0
  4 35  1  0  0  0  0
  5  6  1  0  0  0  0
  5  4  2  0  0  0  0
  6 36  1  0  0  0  0
  7 12  1  0  0  0  0
  7  6  2  0  0  0  0
  8  7  1  0  0  0  0
  9  8  2  0  0  0  0
  9 10  1  0  0  0  0
 10  5  1  0  0  0  0
 11 10  2  0  0  0  0
 11  2  1  0  0  0  0
 12 15  1  0  0  0  0
 12 13  2  0  0  0  0
 14 12  2  0  0  0  0
 15 40  1  0  0  0  0
 16 17  1  6  0  0  0
 16 15  1  0  0  0  0
 16 21  1  0  0  0  0
 18 19  1  0  0  0  0
 18 41  1  0  0  0  0
 18 16  1  0  0  0  0
 19 44  1  0  0  0  0
 19 20  1  0  0  0  0
 20 23  1  0  0  0  0
 20 21  1  0  0  0  0
 21 22  2  0  0  0  0
 23 26  1  0  0  0  0
 23 24  1  1  0  0  0
 25 47  1  0  0  0  0
 25 23  1  0  0  0  0
 26 28  1  0  0  0  0
 27 26  2  0  0  0  0
 28 29  1  0  0  0  0
 28 33  1  0  0  0  0
 29 49  1  0  0  0  0
 30 50  1  0  0  0  0
 30 29  1  0  0  0  0
 30 31  1  0  0  0  0
 32 31  1  0  0  0  0
 32 33  1  0  0  0  0
 32 52  1  0  0  0  0
 33 54  1  0  0  0  0
 37  8  1  0  0  0  0
 38  9  1  0  0  0  0
 39 11  1  0  0  0  0
 42 18  1  0  0  0  0
 43 19  1  0  0  0  0
 45 25  1  0  0  0  0
 46 25  1  0  0  0  0
 48 29  1  0  0  0  0
 51 30  1  0  0  0  0
 53 32  1  0  0  0  0
 55 33  1  0  0  0  0
M  END
$$$$
