55

Cl         0.45040        1.25320       -1.56730
C          2.12240        0.95180       -1.16560
C          2.50260        0.96200        0.20090
C          3.81840        0.73920        0.53890
C          4.80100        0.50230       -0.46050
C          6.17010        0.32340       -0.13460
C          7.08760        0.15270       -1.14520
C          6.71110        0.12540       -2.51160
C          5.38680        0.28820       -2.84360
C          4.40070        0.48680       -1.83710
C          3.04050        0.71780       -2.16640
S          8.81420       -0.01220       -0.73490
O          8.90350       -0.43050        0.66700
O          9.47170       -0.75230       -1.81450
N          9.41890        1.55790       -0.86610
C          9.62290        2.36840        0.33760
H          9.53390        1.72350        1.22250
C         10.93280        3.16020        0.28630
C         10.54930        4.47170       -0.41630
N          9.14750        4.63560       -0.03730
C          8.55180        3.47150        0.35980
O          7.36890        3.32110        0.61980
C          8.35050        5.80700       -0.39500
H          7.44210        5.73350        0.21030
C          9.06300        7.11780       -0.07960
C          8.05780        5.70220       -1.90560
O          8.97810        5.91490       -2.68920
N          6.81820        5.31410       -2.32110
C          6.58910        5.09300       -3.74810
C          6.08260        3.67040       -3.96810
O          4.91910        3.41860       -3.20810
C          5.16370        3.59060       -1.82460
C          5.64880        5.00070       -1.50260
H          1.74630        1.15140        0.96350
H          4.12550        0.75490        1.58700
H          6.49620        0.34650        0.90520
H          7.47580       -0.03480       -3.27230
H          5.07600        0.28160       -3.88990
H          2.73180        0.73220       -3.21190
H         10.17150        1.55910       -1.55150
H         11.74220        2.61580       -0.22100
H         11.26390        3.36980        1.31420
H         11.15230        5.32350       -0.07170
H         10.64700        4.42050       -1.51370
H          9.92610        7.26180       -0.74350
H          9.39390        7.13260        0.96960
H          8.37530        7.96180       -0.23910
H          7.53240        5.27420       -4.27690
H          5.83150        5.81190       -4.10850
H          5.82060        3.51490       -5.02570
H          6.88050        2.95080       -3.69300
H          4.22190        3.38000       -1.29970
H          5.92640        2.87560       -1.47210
H          4.85140        5.73380       -1.72260
H          5.88930        5.03760       -0.43720
