55
rmsd228.gzmat
Cl         0.00000        0.00000        0.00000
C          1.70960        0.00000        0.00000
C          2.36340        0.00000        1.25120
C          3.73440        0.00360        1.27300
C          4.47660        0.00590        0.05760
C          5.89850        0.02070        0.07000
C          6.59990        0.06270       -1.10820
C          5.91920        0.06070       -2.35070
C          4.54900        0.03470       -2.38730
C          3.79660        0.01290       -1.18130
C          2.37440        0.00630       -1.19430
S          8.35370        0.16400       -1.09530
O          8.89930       -0.79510       -0.16840
O          8.82420        0.27500       -2.45540
N          8.58890        1.71070       -0.31710
C          8.91640        2.88910       -1.12100
H          9.96420        2.86350       -1.51750
C          7.90910        3.16880       -2.26200
C          7.60220        4.68280       -2.18120
N          8.04290        5.09620       -0.83450
C          8.75000        4.10590       -0.18070
O          9.17560        4.20020        0.94700
C          7.38720        6.18680       -0.12570
H          7.88760        6.31050        0.87740
C          7.48900        7.50010       -0.90210
C          5.89130        5.82500        0.03890
O          5.10520        6.05350       -0.86090
N          5.43290        5.32570        1.24790
C          4.03850        4.84400        1.28590
C          3.99640        3.33070        1.01320
O          4.82530        2.64210        1.93380
C          6.17730        3.05990        1.88110
C          6.28610        4.56860        2.17320
H          1.78250       -0.00020        2.17430
H          4.27770        0.02490        2.22100
H          6.39940        0.00540        1.04520
H          6.49120        0.07680       -3.28680
H          4.01540        0.03210       -3.33650
H          1.84940        0.00640       -2.14930
H          9.12860        1.68950        0.55630
H          6.97560        2.59020       -2.14170
H          8.32460        2.88170       -3.24340
H          8.17250        5.25990       -2.94010
H          6.52450        4.89830       -2.34650
H          6.92330        7.46240       -1.84460
H          8.53290        7.73570       -1.14430
H          7.07850        8.33330       -0.31740
H          3.41760        5.39680        0.54320
H          3.62630        5.07030        2.29530
H          2.99890        2.89840        1.20990
H          4.30570        3.08800       -0.01820
H          6.65590        2.45370        2.67090
H          6.60930        2.79650        0.89790
H          5.93600        4.78320        3.21090
H          7.34650        4.90080        2.12550
