
     RDKit          3D

 55 58  0  0  0  0  0  0  0  0999 V2000
    0.1028    0.1474    0.6683 Cl  0  0  0  0  0  0  0  0  0  0  0  0
    1.8430    0.0284    0.5867 C   0  0  0  0  0  0  0  0  0  0  0  0
    2.5755   -0.0182    1.8003 C   0  0  0  0  0  0  0  0  0  0  0  0
    3.9475   -0.1281    1.7583 C   0  0  0  0  0  0  0  0  0  0  0  0
    4.6391   -0.1981    0.5183 C   0  0  0  0  0  0  0  0  0  0  0  0
    6.0461   -0.3716    0.4517 C   0  0  0  0  0  0  0  0  0  0  0  0
    6.6674   -0.4745   -0.7738 C   0  0  0  0  0  0  0  0  0  0  0  0
    5.9422   -0.3846   -1.9884 C   0  0  0  0  0  0  0  0  0  0  0  0
    4.5769   -0.2215   -1.9421 C   0  0  0  0  0  0  0  0  0  0  0  0
    3.8867   -0.1324   -0.7006 C   0  0  0  0  0  0  0  0  0  0  0  0
    2.4737   -0.0225   -0.6372 C   0  0  0  0  0  0  0  0  0  0  0  0
    8.4459   -0.7086   -0.8129 S   0  0  0  0  0  0  0  0  0  0  0  0
    8.9953    0.1478   -1.8670 O   0  0  0  0  0  0  0  0  0  0  0  0
    8.9058   -0.6290    0.5722 O   0  0  0  0  0  0  0  0  0  0  0  0
    8.7183   -2.2770   -1.3139 N   0  0  0  0  0  0  0  0  0  0  0  0
    8.9857   -2.6221   -2.7079 C   0  0  1  0  0  0  0  0  0  0  0  0
    9.2058   -1.6938   -3.2471 H   0  0  0  0  0  0  0  0  0  0  0  0
   10.0784   -3.6890   -2.8253 C   0  0  0  0  0  0  0  0  0  0  0  0
    9.3165   -5.0071   -2.6102 C   0  0  0  0  0  0  0  0  0  0  0  0
    7.9852   -4.6971   -3.1344 N   0  0  0  0  0  0  0  0  0  0  0  0
    7.7484   -3.3516   -3.2428 C   0  0  0  0  0  0  0  0  0  0  0  0
    6.6757   -2.8589   -3.5537 O   0  0  0  0  0  0  0  0  0  0  0  0
    6.8173   -5.5338   -2.9210 C   0  0  1  0  0  0  0  0  0  0  0  0
    6.1188   -5.2817   -3.7264 H   0  0  0  0  0  0  0  0  0  0  0  0
    7.1261   -7.0286   -2.9628 C   0  0  0  0  0  0  0  0  0  0  0  0
    6.2123   -5.1316   -1.5517 C   0  0  0  0  0  0  0  0  0  0  0  0
    6.9607   -4.7339   -0.6598 O   0  0  0  0  0  0  0  0  0  0  0  0
    4.8723   -5.2778   -1.3616 N   0  0  0  0  0  0  0  0  0  0  0  0
    4.3058   -4.7844   -0.1013 C   0  0  0  0  0  0  0  0  0  0  0  0
    3.7846   -3.3684   -0.3296 C   0  0  0  0  0  0  0  0  0  0  0  0
    2.8381   -3.3317   -1.3833 O   0  0  0  0  0  0  0  0  0  0  0  0
    3.3671   -3.8198   -2.6003 C   0  0  0  0  0  0  0  0  0  0  0  0
    3.8762   -5.2559   -2.4353 C   0  0  0  0  0  0  0  0  0  0  0  0
    2.0397    0.0302    2.7490 H   0  0  0  0  0  0  0  0  0  0  0  0
    4.5220   -0.1717    2.6867 H   0  0  0  0  0  0  0  0  0  0  0  0
    6.6411   -0.4294    1.3644 H   0  0  0  0  0  0  0  0  0  0  0  0
    6.4599   -0.4776   -2.9409 H   0  0  0  0  0  0  0  0  0  0  0  0
    4.0016   -0.1722   -2.8692 H   0  0  0  0  0  0  0  0  0  0  0  0
    1.8902    0.0012   -1.5579 H   0  0  0  0  0  0  0  0  0  0  0  0
    8.2616   -2.9915   -0.7393 H   0  0  0  0  0  0  0  0  0  0  0  0
   10.8836   -3.5360   -2.0958 H   0  0  0  0  0  0  0  0  0  0  0  0
   10.5075   -3.6607   -3.8390 H   0  0  0  0  0  0  0  0  0  0  0  0
    9.7700   -5.8494   -3.1539 H   0  0  0  0  0  0  0  0  0  0  0  0
    9.2528   -5.2726   -1.5429 H   0  0  0  0  0  0  0  0  0  0  0  0
    7.7897   -7.3241   -2.1372 H   0  0  0  0  0  0  0  0  0  0  0  0
    7.6051   -7.2974   -3.9160 H   0  0  0  0  0  0  0  0  0  0  0  0
    6.1949   -7.6057   -2.8669 H   0  0  0  0  0  0  0  0  0  0  0  0
    5.0893   -4.7951    0.6648 H   0  0  0  0  0  0  0  0  0  0  0  0
    3.4854   -5.4565    0.1974 H   0  0  0  0  0  0  0  0  0  0  0  0
    3.2831   -2.9732    0.5652 H   0  0  0  0  0  0  0  0  0  0  0  0
    4.6448   -2.7176   -0.5626 H   0  0  0  0  0  0  0  0  0  0  0  0
    2.5553   -3.7797   -3.3426 H   0  0  0  0  0  0  0  0  0  0  0  0
    4.2063   -3.1873   -2.9484 H   0  0  0  0  0  0  0  0  0  0  0  0
    3.0438   -5.9172   -2.1439 H   0  0  0  0  0  0  0  0  0  0  0  0
    4.2895   -5.6380   -3.3749 H   0  0  0  0  0  0  0  0  0  0  0  0
  1  2  1  0
  2  3  2  0
  2 11  1  0
  3  4  1  0
  3 34  1  0
  4  5  2  0
  4 35  1  0
  5  6  1  0
  5 10  1  0
  6  7  2  0
  6 36  1  0
  7  8  1  0
  7 12  1  0
  8  9  2  0
  8 37  1  0
  9 10  1  0
  9 38  1  0
 10 11  2  0
 11 39  1  0
 12 13  2  0
 12 14  2  0
 12 15  1  0
 15 16  1  0
 15 40  1  0
 16 17  1  6
 16 18  1  0
 16 21  1  0
 18 19  1  0
 18 41  1  0
 18 42  1  0
 19 20  1  0
 19 43  1  0
 19 44  1  0
 20 21  1  0
 20 23  1  0
 21 22  2  0
 23 24  1  6
 23 25  1  0
 23 26  1  0
 25 45  1  0
 25 46  1  0
 25 47  1  0
 26 27  2  0
 26 28  1  0
 28 29  1  0
 28 33  1  0
 29 30  1  0
 29 48  1  0
 29 49  1  0
 30 31  1  0
 30 50  1  0
 30 51  1  0
 31 32  1  0
 32 33  1  0
 32 52  1  0
 32 53  1  0
 33 54  1  0
 33 55  1  0
M  END

