55

Cl        -0.21810        0.47990        0.12250
C          1.52300        0.40600        0.03570
C          2.27700        0.85940        1.14790
C          3.65150        0.80830        1.09940
C          4.32670        0.30640       -0.04670
C          5.74200        0.22950       -0.11120
C          6.34480       -0.28170       -1.23860
C          5.60110       -0.72770       -2.35910
C          4.22740       -0.66160       -2.31060
C          3.55240       -0.14910       -1.16580
C          2.13570       -0.08620       -1.09680
S          8.12620       -0.37660       -1.28220
O          8.56060       -0.01860       -2.63350
O          8.64580        0.29470       -0.08800
N          8.46950       -2.01950       -1.04500
C          8.95750       -2.83900       -2.15950
H          9.29850       -2.18310       -2.97220
C         10.01030       -3.85500       -1.70390
C          9.19180       -5.08760       -1.28720
N          8.00350       -4.98010       -2.12550
C          7.80800       -3.73680       -2.64940
O          6.85580       -3.38920       -3.32900
C          7.03670       -6.06250       -2.27710
H          6.21080       -5.63130       -2.85690
C          7.61540       -7.25150       -3.03720
C          6.56970       -6.48620       -0.86830
O          7.08650       -7.45230       -0.32340
N          5.62880       -5.71120       -0.25240
C          5.24480       -6.01700        1.12300
C          5.49970       -4.79800        2.00530
O          4.83580       -3.65590        1.50970
C          5.23870       -3.34120        0.19180
C          4.99090       -4.50290       -0.76930
H          1.75540        1.24030        2.02650
H          4.24210        1.15220        1.95150
H          6.35320        0.56890        0.72630
H          6.11530       -1.14760       -3.22270
H          3.63580       -1.01000       -3.16040
H          1.53540       -0.42930       -1.94070
H          8.97800       -2.10980       -0.16790
H         10.66020       -3.47260       -0.90360
H         10.65190       -4.10910       -2.56040
H          9.72050       -6.03360       -1.47010
H          8.91770       -5.06940       -0.21680
H          8.41160       -7.74020       -2.46010
H          8.00750       -6.91930       -4.00950
H          6.83260       -8.00420       -3.21090
H          5.82460       -6.88680        1.45480
H          4.16960       -6.26960        1.15050
H          5.12560       -4.97440        3.02510
H          6.59360       -4.61470        2.06260
H          4.65900       -2.46460       -0.12130
H          6.31310       -3.07240        0.16370
H          3.90260       -4.68150       -0.84490
H          5.36170       -4.23560       -1.76450
