rmsd182.gzmat
 OpenBabel08211713363D

 35 36  0  0  1  0  0  0  0  0999 V2000
    0.0000    0.0000    0.0000 C   0  0  0  0  0  0  0  0  0  0  0  0
    1.4848    0.0000    0.0000 C   0  0  0  0  0  0  0  0  0  0  0  0
    2.1362    0.0000    1.1772 N   0  0  0  0  0  0  0  0  0  0  0  0
    3.5056   -0.0052    1.1726 C   0  0  0  0  0  0  0  0  0  0  0  0
    4.0816    0.0785    2.4156 N   0  0  0  0  0  0  0  0  0  0  0  0
    4.2357   -0.0072   -0.0439 C   0  0  1  0  0  0  0  0  0  0  0  0
    5.7115   -0.0166   -0.1321 C   0  0  0  0  0  0  0  0  0  0  0  0
    6.2576    1.3643   -0.1864 N   0  0  0  0  0  0  0  0  0  0  0  0
    5.6719    2.4162    0.4187 C   0  0  0  0  0  0  0  0  0  0  0  0
    6.5258    3.8656    0.1779 S   0  0  0  0  0  0  0  0  0  0  0  0
    7.7266    3.0460   -0.7692 C   0  0  0  0  0  0  0  0  0  0  0  0
    8.8927    3.7413   -1.3468 C   0  0  0  0  0  0  0  0  0  0  0  0
    8.5509    5.1712   -1.8007 C   0  0  0  0  0  0  0  0  0  0  0  0
    7.9633    5.8533   -0.7143 O   0  0  0  0  0  0  0  0  0  0  0  0
    7.4367    1.7002   -0.8697 C   0  0  0  0  0  0  0  0  0  0  0  0
    8.2167    0.6671   -1.5780 C   0  0  0  0  0  0  0  0  0  0  0  0
    3.4584   -0.0210   -1.2245 C   0  0  0  0  0  0  0  0  0  0  0  0
    2.1278   -0.0103   -1.2141 N   0  0  0  0  0  0  0  0  0  0  0  0
   -0.3998    0.8925   -0.5159 H   0  0  0  0  0  0  0  0  0  0  0  0
   -0.4216   -0.0196    1.0206 H   0  0  0  0  0  0  0  0  0  0  0  0
   -0.3972   -0.8755   -0.5492 H   0  0  0  0  0  0  0  0  0  0  0  0
    5.0331   -0.1885    2.5559 H   0  0  0  0  0  0  0  0  0  0  0  0
    3.4770    0.0081    3.2272 H   0  0  0  0  0  0  0  0  0  0  0  0
    6.0469   -0.5729   -1.0480 H   0  0  0  0  0  0  0  0  0  0  0  0
    6.1932   -0.5434    0.7305 H   0  0  0  0  0  0  0  0  0  0  0  0
    4.7430    2.3261    0.9921 H   0  0  0  0  0  0  0  0  0  0  0  0
    9.3099    3.1829   -2.2179 H   0  0  0  0  0  0  0  0  0  0  0  0
    9.7281    3.7709   -0.6052 H   0  0  0  0  0  0  0  0  0  0  0  0
    7.7647    5.1877   -2.5829 H   0  0  0  0  0  0  0  0  0  0  0  0
    9.4410    5.7080   -2.1742 H   0  0  0  0  0  0  0  0  0  0  0  0
    8.6332    6.3404   -0.1873 H   0  0  0  0  0  0  0  0  0  0  0  0
    9.1198    1.0827   -2.0617 H   0  0  0  0  0  0  0  0  0  0  0  0
    7.6452    0.1782   -2.3885 H   0  0  0  0  0  0  0  0  0  0  0  0
    8.5800   -0.1288   -0.9031 H   0  0  0  0  0  0  0  0  0  0  0  0
    3.9324   -0.0402   -2.2185 H   0  0  0  0  0  0  0  0  0  0  0  0
  1  2  1  0  0  0  0
  1 20  1  0  0  0  0
  2  3  2  0  0  0  0
  4  3  2  0  0  0  0
  4  5  1  0  0  0  0
  5 22  1  0  0  0  0
  5 23  1  0  0  0  0
  6  7  1  1  0  0  0
  6  4  1  0  0  0  0
  7 25  1  0  0  0  0
  8  7  1  0  0  0  0
  8  9  1  0  0  0  0
  9 26  1  0  0  0  0
 10  9  1  0  0  0  0
 11 10  1  0  0  0  0
 12 11  1  0  0  0  0
 12 28  1  0  0  0  0
 13 12  1  0  0  0  0
 13 14  1  0  0  0  0
 14 31  1  0  0  0  0
 15 11  2  0  0  0  0
 15  8  1  0  0  0  0
 16 34  1  0  0  0  0
 16 15  1  0  0  0  0
 17 18  2  0  0  0  0
 17  6  1  0  0  0  0
 18  2  2  0  0  0  0
 19  1  1  0  0  0  0
 21  1  1  0  0  0  0
 24  7  1  0  0  0  0
 27 12  1  0  0  0  0
 29 13  1  0  0  0  0
 30 13  1  0  0  0  0
 32 16  1  0  0  0  0
 33 16  1  0  0  0  0
 35 17  1  0  0  0  0
M  RAD  1   6   2
M  END
$$$$
