35
rmsd222.gzmat
C          0.00000        0.00000        0.00000
C          1.48490        0.00000        0.00000
N          2.13400        0.00000        1.17630
C          3.50620        0.00970        1.17080
N          4.07970       -0.02700        2.40740
C          4.23580        0.01270       -0.04920
C          5.71000        0.06180       -0.12090
N          6.31410       -1.27350        0.12630
C          5.63040       -2.43090        0.03720
S          6.59750       -3.78440        0.38490
C          7.98710       -2.77660        0.64110
C          9.30490       -3.33590        0.99630
C          9.18520       -4.40730        2.09620
O          8.25820       -5.37990        1.66630
C          7.66650       -1.44680        0.45840
C          8.56180       -0.27880        0.56540
C          3.45740        0.02410       -1.22880
N          2.12770        0.00610       -1.21660
H         -0.39190        0.98330       -0.32480
H         -0.42010       -0.20970        0.99950
H         -0.40550       -0.74370       -0.71040
H          5.06240        0.04410        2.53020
H          3.49480        0.02010        3.23050
H          6.13490        0.78860        0.61830
H          6.06130        0.41360       -1.12890
H          4.56650       -2.46760       -0.22060
H         10.00950       -2.54350        1.34050
H          9.80040       -3.77420        0.09590
H          8.73570       -4.00480        3.02590
H         10.16200       -4.86350        2.33460
H          8.70270       -6.13430        1.22360
H          9.61230       -0.57200        0.74710
H          8.28960        0.39420        1.39790
H          8.58150        0.32940       -0.35780
H          3.93030        0.05030       -2.22380
