35
rmsd197.gzmat
C          0.00000        0.00000        0.00000
C          1.48510        0.00000        0.00000
N          2.13470        0.00000        1.17670
C          3.50630        0.00080        1.17170
N          4.08010       -0.05160        2.40950
C          4.23670       -0.00230       -0.04720
C          5.71050        0.04100       -0.12240
N          6.31500       -1.30490        0.05480
C          5.60780       -2.44230        0.19030
S          6.60320       -3.81140        0.35630
C          8.03390       -2.83340        0.24670
C          9.38930       -3.40830        0.33880
C          9.49170       -4.75050       -0.40780
O          8.44840       -5.58580        0.04700
C          7.70540       -1.50380        0.08240
C          8.62180       -0.35670       -0.06050
C          3.45870        0.00700       -1.22760
N          2.12870       -0.00160       -1.21570
H         -0.40340        0.68820       -0.76680
H         -0.41870        0.29040        0.97980
H         -0.39550       -1.00330       -0.24400
H          5.05760        0.08070        2.53580
H          3.49180        0.00990        3.23000
H          6.14910        0.72400        0.65010
H          6.05500        0.44370       -1.11410
H          4.51310       -2.46340        0.18410
H          9.67970       -3.54730        1.40840
H         10.15870       -2.71200       -0.06930
H         10.47720       -5.22800       -0.26460
H          9.29420       -4.64250       -1.49360
H          8.74930       -6.18430        0.76440
H          9.68380       -0.66200       -0.02760
H          8.50210        0.39020        0.74440
H          8.49280        0.17340       -1.02250
H          3.93180        0.02670       -2.22280
