35
rmsd121.gzmat
C          0.00000        0.00000        0.00000
C          1.48520        0.00000        0.00000
N          2.13030        0.00000        1.18110
C          3.50000        0.00040        1.18160
N          4.07090       -0.07720        2.42170
C          4.23700        0.00340       -0.03390
C          5.71200        0.04830       -0.10120
N          6.32290       -1.27570        0.18450
C          5.62040       -2.39970        0.41810
S          6.61900       -3.74270        0.72300
C          8.04660       -2.77420        0.51940
C          9.40860       -3.32040        0.67020
C          9.48450       -4.81390        0.30830
O          8.44170       -5.48950        0.97830
C          7.71360       -1.46690        0.23110
C          8.62800       -0.33600       -0.01560
C          3.46510        0.01030       -1.21700
N          2.13370        0.00010       -1.21060
H         -0.41390        0.01270       -1.02530
H         -0.40160        0.87960        0.53710
H         -0.40300       -0.88920        0.51730
H          5.04580        0.07400        2.55140
H          3.47870       -0.01700        3.23990
H          6.13790        0.79300        0.62090
H          6.06330        0.37590       -1.11790
H          4.52580       -2.42710        0.40660
H          9.76880       -3.16520        1.71680
H         10.14010       -2.76320        0.03730
H         10.46730       -5.25050        0.56020
H          9.27160       -4.99780       -0.76480
H          8.73290       -5.83560        1.85020
H          9.68930       -0.64680       -0.00780
H          8.54260        0.45690        0.74940
H          8.46440        0.13930       -1.00050
H          3.94130        0.02500       -2.21050
