35
rmsd171.gzmat
C          0.00000        0.00000        0.00000
C          1.48520        0.00000        0.00000
N          2.13550        0.00000        1.17600
C          3.50750        0.00970        1.16930
N          4.08320       -0.03590        2.40570
C          4.23640        0.01680       -0.05100
C          5.70990        0.08360       -0.12470
N          6.33650       -1.23870        0.13440
C          5.66450       -2.40590        0.09550
S          6.66610       -3.74060        0.41340
C          8.04470       -2.70940        0.62760
C          9.37250       -3.24980        0.97440
C          9.78120       -4.38240        0.01270
O          8.74720       -5.34270        0.01340
C          7.70110       -1.38760        0.42940
C          8.58180       -0.20490        0.48240
C          3.45700        0.02050       -1.23020
N          2.12720        0.00190       -1.21660
H         -0.40120        0.73900       -0.71990
H         -0.42010        0.22730        0.99570
H         -0.39650       -0.98400       -0.31200
H          5.06250        0.07710        2.52850
H          3.49730        0.00640        3.22890
H          6.12520        0.82270        0.60810
H          6.05430        0.43240       -1.13660
H          4.59300       -2.46100       -0.12590
H          9.38420       -3.62610        2.02600
H         10.15810       -2.45980        0.95790
H         10.74920       -4.83180        0.29640
H          9.83140       -4.03690       -1.03930
H          8.97120       -6.11850        0.56970
H          9.63640       -0.47540        0.67580
H          8.30440        0.50400        1.28260
H          8.59010        0.35950       -0.46890
H          3.92900        0.04380       -2.22570
