rmsd24.gzmat
 OpenBabel08211713363D

 35 36  0  0  1  0  0  0  0  0999 V2000
    0.0000    0.0000    0.0000 C   0  0  0  0  0  0  0  0  0  0  0  0
    1.4849    0.0000    0.0000 C   0  0  0  0  0  0  0  0  0  0  0  0
    2.1347    0.0000    1.1762 N   0  0  0  0  0  0  0  0  0  0  0  0
    3.5070    0.0059    1.1729 C   0  0  0  0  0  0  0  0  0  0  0  0
    4.0749    0.0731    2.4132 N   0  0  0  0  0  0  0  0  0  0  0  0
    4.2363    0.0117   -0.0457 C   0  0  1  0  0  0  0  0  0  0  0  0
    5.7101   -0.0076   -0.1357 C   0  0  0  0  0  0  0  0  0  0  0  0
    6.2712    1.3667   -0.2151 N   0  0  0  0  0  0  0  0  0  0  0  0
    5.5800    2.4801    0.1000 C   0  0  0  0  0  0  0  0  0  0  0  0
    6.4873    3.8938   -0.1459 S   0  0  0  0  0  0  0  0  0  0  0  0
    7.8620    2.9764   -0.6649 C   0  0  0  0  0  0  0  0  0  0  0  0
    9.1150    3.6301   -1.0855 C   0  0  0  0  0  0  0  0  0  0  0  0
    8.8669    4.5207   -2.3209 C   0  0  0  0  0  0  0  0  0  0  0  0
    7.8908    5.4772   -1.9737 O   0  0  0  0  0  0  0  0  0  0  0  0
    7.5807    1.6249   -0.6492 C   0  0  0  0  0  0  0  0  0  0  0  0
    8.4734    0.5130   -1.0272 C   0  0  0  0  0  0  0  0  0  0  0  0
    3.4575   -0.0033   -1.2265 C   0  0  0  0  0  0  0  0  0  0  0  0
    2.1281    0.0016   -1.2165 N   0  0  0  0  0  0  0  0  0  0  0  0
   -0.3972    0.9130   -0.4809 H   0  0  0  0  0  0  0  0  0  0  0  0
   -0.4203   -0.0581    1.0196 H   0  0  0  0  0  0  0  0  0  0  0  0
   -0.4004   -0.8518   -0.5821 H   0  0  0  0  0  0  0  0  0  0  0  0
    5.0486   -0.0804    2.5519 H   0  0  0  0  0  0  0  0  0  0  0  0
    3.4780    0.0133    3.2294 H   0  0  0  0  0  0  0  0  0  0  0  0
    6.0435   -0.5732   -1.0483 H   0  0  0  0  0  0  0  0  0  0  0  0
    6.1889   -0.5264    0.7328 H   0  0  0  0  0  0  0  0  0  0  0  0
    4.5445    2.4523    0.4556 H   0  0  0  0  0  0  0  0  0  0  0  0
    9.9123    2.8885   -1.3200 H   0  0  0  0  0  0  0  0  0  0  0  0
    9.5503    4.2466   -0.2633 H   0  0  0  0  0  0  0  0  0  0  0  0
    8.4089    3.9537   -3.1553 H   0  0  0  0  0  0  0  0  0  0  0  0
    9.7963    5.0005   -2.6729 H   0  0  0  0  0  0  0  0  0  0  0  0
    8.2934    6.3426   -1.7490 H   0  0  0  0  0  0  0  0  0  0  0  0
    9.4945    0.8604   -1.2713 H   0  0  0  0  0  0  0  0  0  0  0  0
    8.1197   -0.0269   -1.9257 H   0  0  0  0  0  0  0  0  0  0  0  0
    8.5980   -0.2325   -0.2216 H   0  0  0  0  0  0  0  0  0  0  0  0
    3.9325   -0.0162   -2.2202 H   0  0  0  0  0  0  0  0  0  0  0  0
  1 20  1  0  0  0  0
  2  1  1  0  0  0  0
  2  3  2  0  0  0  0
  4  3  2  0  0  0  0
  4  5  1  0  0  0  0
  5 22  1  0  0  0  0
  5 23  1  0  0  0  0
  6  7  1  1  0  0  0
  6  4  1  0  0  0  0
  7 25  1  0  0  0  0
  8  7  1  0  0  0  0
  8  9  1  0  0  0  0
  9 26  1  0  0  0  0
 10  9  1  0  0  0  0
 11 15  2  0  0  0  0
 11 10  1  0  0  0  0
 12 11  1  0  0  0  0
 12 28  1  0  0  0  0
 13 14  1  0  0  0  0
 13 12  1  0  0  0  0
 14 31  1  0  0  0  0
 15  8  1  0  0  0  0
 16 15  1  0  0  0  0
 16 34  1  0  0  0  0
 17 18  2  0  0  0  0
 17  6  1  0  0  0  0
 18  2  2  0  0  0  0
 19  1  1  0  0  0  0
 21  1  1  0  0  0  0
 24  7  1  0  0  0  0
 27 12  1  0  0  0  0
 29 13  1  0  0  0  0
 30 13  1  0  0  0  0
 32 16  1  0  0  0  0
 33 16  1  0  0  0  0
 35 17  1  0  0  0  0
M  RAD  1   6   2
M  END
$$$$
