35
rmsd56.gzmat
C          0.00000        0.00000        0.00000
C          1.48500        0.00000        0.00000
N          2.13430        0.00000        1.17560
C          3.50720        0.00230        1.17080
N          4.07710       -0.02580        2.40870
C          4.23670       -0.00510       -0.04900
C          5.71080        0.02660       -0.12560
N          6.29920       -1.32830        0.04220
C          5.59030       -2.47020       -0.03430
S          6.55710       -3.85350        0.17970
C          7.97840       -2.87640        0.37910
C          9.31700       -3.45330        0.60700
C          9.25940       -4.78310        1.37880
O          8.33600       -5.63600        0.73720
C          7.66920       -1.53600        0.26820
C          8.59360       -0.38910        0.35050
C          3.45740        0.01230       -1.22850
N          2.12790        0.00290       -1.21690
H         -0.40090       -0.86070       -0.56620
H         -0.39550        0.90700       -0.49660
H         -0.42070       -0.03620        1.02060
H          5.05980        0.03730        2.53620
H          3.48900        0.02230        3.22970
H          6.15340        0.70470        0.64820
H          6.06070        0.42840       -1.11580
H          4.50980       -2.48360       -0.21200
H          9.97340       -2.74460        1.16510
H          9.83880       -3.60720       -0.36920
H          8.84140       -4.66160        2.39860
H         10.25350       -5.25960        1.45260
H          8.76920       -6.17900        0.04160
H          9.64900       -0.70810        0.43390
H          8.40230        0.25170        1.22970
H          8.55190        0.25920       -0.54420
H          3.93100        0.03530       -2.22310
