rmsd127.gzmat
 OpenBabel08211713383D

 33 33  0  0  0  0  0  0  0  0999 V2000
    0.0000    0.0000    0.0000 S   0  0  0  0  0  0  0  0  0  0  0  0
    1.8064    0.0000    0.0000 C   0  0  0  0  0  0  0  0  0  0  0  0
    2.7348    0.0000    1.3344 S   0  0  0  0  0  0  0  0  0  0  0  0
    2.2174    0.0627   -1.3045 N   0  0  0  0  0  0  0  0  0  0  0  0
    1.2594    0.0056   -2.2908 N   0  0  0  0  0  0  0  0  0  0  0  0
    0.0219    0.0009   -1.8076 C   0  0  0  0  0  0  0  0  0  0  0  0
   -1.1132    0.0314   -2.5697 N   0  0  0  0  0  0  0  0  0  0  0  0
   -1.1759    0.2152   -3.9963 C   0  0  0  0  0  0  0  0  0  0  0  0
   -2.2300   -0.0281   -4.5532 O   0  0  0  0  0  0  0  0  0  0  0  0
   -0.0834    0.7390   -4.6332 N   0  0  0  0  0  0  0  0  0  0  0  0
   -0.1288    0.8826   -6.0901 C   0  0  0  0  0  0  0  0  0  0  0  0
   -2.3873   -0.3099   -1.9110 C   0  0  0  0  0  0  0  0  0  0  0  0
    3.5908   -0.1868   -1.7769 C   0  0  0  0  0  0  0  0  0  0  0  0
    3.9843   -1.6289   -1.5824 C   0  0  0  0  0  0  0  0  0  0  0  0
    5.0502   -1.9501   -0.7438 C   0  0  0  0  0  0  0  0  0  0  0  0
    5.3746   -3.2979   -0.5945 C   0  0  0  0  0  0  0  0  0  0  0  0
    6.3861   -3.6193    0.1986 F   0  0  0  0  0  0  0  0  0  0  0  0
    4.6840   -4.3222   -1.2398 C   0  0  0  0  0  0  0  0  0  0  0  0
    3.6265   -3.9706   -2.0764 C   0  0  0  0  0  0  0  0  0  0  0  0
    3.2799   -2.6327   -2.2508 C   0  0  0  0  0  0  0  0  0  0  0  0
    0.8154    0.8345   -4.1803 H   0  0  0  0  0  0  0  0  0  0  0  0
    0.3943    0.0476   -6.5889 H   0  0  0  0  0  0  0  0  0  0  0  0
    0.3481    1.8364   -6.3777 H   0  0  0  0  0  0  0  0  0  0  0  0
   -1.1736    0.8986   -6.4615 H   0  0  0  0  0  0  0  0  0  0  0  0
   -2.3360   -1.2931   -1.4117 H   0  0  0  0  0  0  0  0  0  0  0  0
   -3.2080   -0.3769   -2.6589 H   0  0  0  0  0  0  0  0  0  0  0  0
   -2.6770    0.4776   -1.1923 H   0  0  0  0  0  0  0  0  0  0  0  0
    4.2706    0.5136   -1.2278 H   0  0  0  0  0  0  0  0  0  0  0  0
    3.6609    0.0887   -2.8600 H   0  0  0  0  0  0  0  0  0  0  0  0
    5.6024   -1.1776   -0.2087 H   0  0  0  0  0  0  0  0  0  0  0  0
    4.9573   -5.3655   -1.0948 H   0  0  0  0  0  0  0  0  0  0  0  0
    3.0668   -4.7468   -2.5984 H   0  0  0  0  0  0  0  0  0  0  0  0
    2.4495   -2.3670   -2.9060 H   0  0  0  0  0  0  0  0  0  0  0  0
  1  2  2  0  0  0  0
  2  3  1  0  0  0  0
  4  2  1  0  0  0  0
  5  6  1  0  0  0  0
  5  4  1  0  0  0  0
  7 12  1  0  0  0  0
  7  6  1  0  0  0  0
  8  7  1  0  0  0  0
  9  8  2  0  0  0  0
 10 21  1  0  0  0  0
 10  8  1  0  0  0  0
 11 10  1  0  0  0  0
 12 25  1  0  0  0  0
 12 27  1  0  0  0  0
 13 14  1  0  0  0  0
 13  4  1  0  0  0  0
 13 28  1  0  0  0  0
 14 15  2  0  0  0  0
 15 16  1  0  0  0  0
 15 30  1  0  0  0  0
 16 17  1  0  0  0  0
 18 31  1  0  0  0  0
 18 16  2  0  0  0  0
 19 18  1  0  0  0  0
 20 19  2  0  0  0  0
 20 14  1  0  0  0  0
 22 11  1  0  0  0  0
 23 11  1  0  0  0  0
 24 11  1  0  0  0  0
 26 12  1  0  0  0  0
 29 13  1  0  0  0  0
 32 19  1  0  0  0  0
 33 20  1  0  0  0  0
M  RAD  3   3   2   5   2   6   3
M  END
$$$$
