rmsd196.gzmat
 OpenBabel08211713383D

 33 33  0  0  0  0  0  0  0  0999 V2000
    0.0000    0.0000    0.0000 S   0  0  0  0  0  0  0  0  0  0  0  0
    1.8056    0.0000    0.0000 C   0  0  0  0  0  0  0  0  0  0  0  0
    2.7336    0.0000    1.3362 S   0  0  0  0  0  0  0  0  0  0  0  0
    2.2202   -0.0824   -1.3027 N   0  0  0  0  0  0  0  0  0  0  0  0
    1.2613   -0.0132   -2.2886 N   0  0  0  0  0  0  0  0  0  0  0  0
    0.0222    0.0092   -1.8083 C   0  0  0  0  0  0  0  0  0  0  0  0
   -1.1080    0.0530   -2.5746 N   0  0  0  0  0  0  0  0  0  0  0  0
   -1.1692    0.0063   -4.0144 C   0  0  0  0  0  0  0  0  0  0  0  0
   -2.2570   -0.1859   -4.5244 O   0  0  0  0  0  0  0  0  0  0  0  0
   -0.0270    0.2529   -4.7259 N   0  0  0  0  0  0  0  0  0  0  0  0
   -0.0651    0.1031   -6.1822 C   0  0  0  0  0  0  0  0  0  0  0  0
   -2.4101    0.0120   -1.8843 C   0  0  0  0  0  0  0  0  0  0  0  0
    3.5837    0.2199   -1.7758 C   0  0  0  0  0  0  0  0  0  0  0  0
    3.8952    1.6878   -1.6378 C   0  0  0  0  0  0  0  0  0  0  0  0
    3.1934    2.6146   -2.4096 C   0  0  0  0  0  0  0  0  0  0  0  0
    3.4987    3.9629   -2.2455 C   0  0  0  0  0  0  0  0  0  0  0  0
    2.8380    4.8528   -2.9707 F   0  0  0  0  0  0  0  0  0  0  0  0
    4.4692    4.4182   -1.3529 C   0  0  0  0  0  0  0  0  0  0  0  0
    5.1566    3.4708   -0.5990 C   0  0  0  0  0  0  0  0  0  0  0  0
    4.8741    2.1121   -0.7397 C   0  0  0  0  0  0  0  0  0  0  0  0
    0.8821    0.3118   -4.2855 H   0  0  0  0  0  0  0  0  0  0  0  0
    0.3591   -0.8676   -6.4933 H   0  0  0  0  0  0  0  0  0  0  0  0
    0.5140    0.9210   -6.6472 H   0  0  0  0  0  0  0  0  0  0  0  0
   -1.1026    0.1592   -6.5674 H   0  0  0  0  0  0  0  0  0  0  0  0
   -2.5517   -0.9409   -1.3449 H   0  0  0  0  0  0  0  0  0  0  0  0
   -3.2427    0.0844   -2.6193 H   0  0  0  0  0  0  0  0  0  0  0  0
   -2.5214    0.8704   -1.1980 H   0  0  0  0  0  0  0  0  0  0  0  0
    3.6775   -0.1027   -2.8439 H   0  0  0  0  0  0  0  0  0  0  0  0
    4.2950   -0.4182   -1.1919 H   0  0  0  0  0  0  0  0  0  0  0  0
    2.4228    2.2898   -3.1080 H   0  0  0  0  0  0  0  0  0  0  0  0
    4.6818    5.4799   -1.2435 H   0  0  0  0  0  0  0  0  0  0  0  0
    5.9169    3.7936    0.1126 H   0  0  0  0  0  0  0  0  0  0  0  0
    5.4133    1.3854   -0.1317 H   0  0  0  0  0  0  0  0  0  0  0  0
  2  1  2  0  0  0  0
  2  3  1  0  0  0  0
  4  2  1  0  0  0  0
  5  6  1  0  0  0  0
  5  4  1  0  0  0  0
  7 12  1  0  0  0  0
  7  6  1  0  0  0  0
  8  7  1  0  0  0  0
  9  8  2  0  0  0  0
 10 21  1  0  0  0  0
 10  8  1  0  0  0  0
 11 10  1  0  0  0  0
 12 25  1  0  0  0  0
 12 27  1  0  0  0  0
 13 14  1  0  0  0  0
 13  4  1  0  0  0  0
 13 29  1  0  0  0  0
 14 20  2  0  0  0  0
 15 16  2  0  0  0  0
 15 14  1  0  0  0  0
 16 18  1  0  0  0  0
 17 16  1  0  0  0  0
 18 31  1  0  0  0  0
 18 19  2  0  0  0  0
 19 32  1  0  0  0  0
 20 19  1  0  0  0  0
 20 33  1  0  0  0  0
 22 11  1  0  0  0  0
 23 11  1  0  0  0  0
 24 11  1  0  0  0  0
 26 12  1  0  0  0  0
 28 13  1  0  0  0  0
 30 15  1  0  0  0  0
M  RAD  3   3   2   5   2   6   3
M  END
$$$$
