33

S         -0.03300       -0.56810        0.23140
C          1.74430       -0.55410        0.40380
S          2.55990       -0.64010        1.83730
N          2.24760       -0.44810       -0.85770
N          1.38480       -0.34510       -1.90630
C          0.14580       -0.35860       -1.51850
N         -0.94040       -0.19120       -2.33610
C         -0.90390        0.39530       -3.65730
O         -1.94750        0.58090       -4.25600
N          0.31830        0.72600       -4.12370
C          0.47490        1.36090       -5.41590
C         -2.26210       -0.47560       -1.78410
C          3.66560       -0.28290       -1.17560
C          3.91470        1.10280       -1.72150
C          3.84780        1.33080       -3.10150
C          3.95990        2.63120       -3.58190
F          3.85840        2.84160       -4.90640
C          4.15280        3.71690       -2.73260
C          4.22900        3.47960       -1.35700
C          4.10450        2.18390       -0.84950
H          1.13550        0.46220       -3.57620
H          0.42040        0.63490       -6.24620
H          1.45180        1.86290       -5.44920
H         -0.32000        2.10400       -5.57160
H         -2.31460       -1.51270       -1.41970
H         -2.98870       -0.32640       -2.58920
H         -2.50230        0.21230       -0.95550
H          3.93860       -1.05600       -1.90890
H          4.20900       -0.46220       -0.23980
H          3.69960        0.50980       -3.80560
H          4.23700        4.72060       -3.15240
H          4.38010        4.31920       -0.67490
H          4.13980        2.00460        0.22730
