
     RDKit          3D

 33 34  0  0  0  0  0  0  0  0999 V2000
   -0.0296    0.4970    0.1792 S   0  0  0  0  0  0  0  0  0  0  0  0
    1.7490    0.4548    0.2824 C   0  0  0  0  0  0  0  0  0  0  0  0
    2.6200    0.5826    1.6813 S   0  0  0  0  0  0  0  0  0  0  0  0
    2.2018    0.2932   -0.9915 N   0  0  0  0  0  0  0  0  0  0  0  0
    1.2972    0.1638   -2.0035 N   0  0  0  0  0  0  0  0  0  0  0  0
    0.0746    0.2386   -1.5688 C   0  0  0  0  0  0  0  0  0  0  0  0
   -1.0588    0.1245   -2.3313 N   0  0  0  0  0  0  0  0  0  0  0  0
   -1.1053   -0.2609   -3.7215 C   0  0  0  0  0  0  0  0  0  0  0  0
   -2.1862   -0.3569   -4.2742 O   0  0  0  0  0  0  0  0  0  0  0  0
    0.0894   -0.4991   -4.3051 N   0  0  0  0  0  0  0  0  0  0  0  0
    0.1852   -0.9163   -5.6869 C   0  0  0  0  0  0  0  0  0  0  0  0
   -2.3451    0.3454   -1.6739 C   0  0  0  0  0  0  0  0  0  0  0  0
    3.6100    0.1382   -1.3485 C   0  0  0  0  0  0  0  0  0  0  0  0
    3.9385   -1.2963   -1.6874 C   0  0  0  0  0  0  0  0  0  0  0  0
    4.0120   -2.2475   -0.6595 C   0  0  0  0  0  0  0  0  0  0  0  0
    4.2683   -3.5745   -0.9870 C   0  0  0  0  0  0  0  0  0  0  0  0
    4.3413   -4.4839   -0.0060 F   0  0  0  0  0  0  0  0  0  0  0  0
    4.4555   -3.9888   -2.3055 C   0  0  0  0  0  0  0  0  0  0  0  0
    4.3807   -3.0352   -3.3217 C   0  0  0  0  0  0  0  0  0  0  0  0
    4.1205   -1.6955   -3.0171 C   0  0  0  0  0  0  0  0  0  0  0  0
    0.9340   -0.3668   -3.7494 H   0  0  0  0  0  0  0  0  0  0  0  0
    0.7572   -1.8549   -5.7726 H   0  0  0  0  0  0  0  0  0  0  0  0
    0.6806   -0.1493   -6.3068 H   0  0  0  0  0  0  0  0  0  0  0  0
   -0.8274   -1.0791   -6.0759 H   0  0  0  0  0  0  0  0  0  0  0  0
   -2.5126   -0.3981   -0.8773 H   0  0  0  0  0  0  0  0  0  0  0  0
   -3.1216    0.2354   -2.4373 H   0  0  0  0  0  0  0  0  0  0  0  0
   -2.3925    1.3567   -1.2409 H   0  0  0  0  0  0  0  0  0  0  0  0
    4.1797    0.4872   -0.4775 H   0  0  0  0  0  0  0  0  0  0  0  0
    3.8083    0.8002   -2.2030 H   0  0  0  0  0  0  0  0  0  0  0  0
    3.8683   -1.9616    0.3845 H   0  0  0  0  0  0  0  0  0  0  0  0
    4.6568   -5.0411   -2.5130 H   0  0  0  0  0  0  0  0  0  0  0  0
    4.5259   -3.3414   -4.3602 H   0  0  0  0  0  0  0  0  0  0  0  0
    4.0605   -0.9534   -3.8167 H   0  0  0  0  0  0  0  0  0  0  0  0
  1  2  1  0
  1  6  1  0
  2  3  2  0
  2  4  1  0
  4  5  1  0
  4 13  1  0
  5  6  2  0
  6  7  1  0
  7  8  1  0
  7 12  1  0
  8  9  2  0
  8 10  1  0
 10 11  1  0
 10 21  1  0
 11 22  1  0
 11 23  1  0
 11 24  1  0
 12 25  1  0
 12 26  1  0
 12 27  1  0
 13 14  1  0
 13 28  1  0
 13 29  1  0
 14 15  2  0
 14 20  1  0
 15 16  1  0
 15 30  1  0
 16 17  1  0
 16 18  2  0
 18 19  1  0
 18 31  1  0
 19 20  2  0
 19 32  1  0
 20 33  1  0
M  END

