33
rmsd15.gzmat
S          0.00000        0.00000        0.00000
C          1.80550        0.00000        0.00000
S          2.73210        0.00000        1.33980
N          2.21780       -0.07300       -1.30070
N          1.26120       -0.02050       -2.28860
C          0.02160       -0.00460       -1.80790
N         -1.11090        0.02200       -2.57190
C         -1.17780        0.11650       -4.00840
O         -2.26630       -0.03600       -4.53120
N         -0.04140        0.43700       -4.69780
C         -0.09210        0.47920       -6.16070
C         -2.40470       -0.14140       -1.88380
C          3.59230        0.15870       -1.77820
C          3.96140        1.61650       -1.68320
C          3.33810        2.53820       -2.52570
C          3.69750        3.87780       -2.40390
F          3.11370        4.76280       -3.19820
C          4.64440        4.32920       -1.48480
C          5.25140        3.38730       -0.65830
C          4.91570        2.03690       -0.75700
H          0.86940        0.46630       -4.25980
H          0.45090       -0.37680       -6.59850
H          0.36430        1.42150       -6.51560
H         -1.13550        0.44710       -6.53330
H         -2.43260       -1.07250       -1.29090
H         -3.23420       -0.21400       -2.62250
H         -2.62460        0.73440       -1.24680
H          3.67460       -0.20070       -2.83580
H          4.27830       -0.48780       -1.17330
H          2.58630        2.21720       -3.24520
H          4.90060        5.38440       -1.41160
H          5.99030        3.70770        0.07660
H          5.39490        1.31450       -0.09540
