rmsd102.gzmat
 OpenBabel08211713383D

 33 33  0  0  0  0  0  0  0  0999 V2000
    0.0000    0.0000    0.0000 S   0  0  0  0  0  0  0  0  0  0  0  0
    1.8069    0.0000    0.0000 C   0  0  0  0  0  0  0  0  0  0  0  0
    2.7379    0.0000    1.3320 S   0  0  0  0  0  0  0  0  0  0  0  0
    2.2171    0.0611   -1.3051 N   0  0  0  0  0  0  0  0  0  0  0  0
    1.2588    0.0027   -2.2902 N   0  0  0  0  0  0  0  0  0  0  0  0
    0.0210    0.0027   -1.8077 C   0  0  0  0  0  0  0  0  0  0  0  0
   -1.1122    0.0441   -2.5730 N   0  0  0  0  0  0  0  0  0  0  0  0
   -1.1617    0.1570   -4.0085 C   0  0  0  0  0  0  0  0  0  0  0  0
   -2.2158   -0.0966   -4.5604 O   0  0  0  0  0  0  0  0  0  0  0  0
   -0.0571    0.6299   -4.6646 N   0  0  0  0  0  0  0  0  0  0  0  0
   -0.0917    0.6822   -6.1281 C   0  0  0  0  0  0  0  0  0  0  0  0
   -2.3900   -0.2885   -1.9167 C   0  0  0  0  0  0  0  0  0  0  0  0
    3.5884   -0.1967   -1.7790 C   0  0  0  0  0  0  0  0  0  0  0  0
    3.9820   -1.6342   -1.5540 C   0  0  0  0  0  0  0  0  0  0  0  0
    5.0729   -1.9330   -0.7395 C   0  0  0  0  0  0  0  0  0  0  0  0
    5.3963   -3.2768   -0.5568 C   0  0  0  0  0  0  0  0  0  0  0  0
    6.4331   -3.5768    0.2111 F   0  0  0  0  0  0  0  0  0  0  0  0
    4.6788   -4.3188   -1.1417 C   0  0  0  0  0  0  0  0  0  0  0  0
    3.5938   -3.9895   -1.9516 C   0  0  0  0  0  0  0  0  0  0  0  0
    3.2506   -2.6560   -2.1632 C   0  0  0  0  0  0  0  0  0  0  0  0
    0.8414    0.7334   -4.2119 H   0  0  0  0  0  0  0  0  0  0  0  0
    0.3131   -0.2446   -6.5725 H   0  0  0  0  0  0  0  0  0  0  0  0
    0.5046    1.5434   -6.4768 H   0  0  0  0  0  0  0  0  0  0  0  0
   -1.1289    0.8105   -6.4977 H   0  0  0  0  0  0  0  0  0  0  0  0
   -2.3750   -1.3075   -1.4924 H   0  0  0  0  0  0  0  0  0  0  0  0
   -3.2241   -0.2613   -2.6522 H   0  0  0  0  0  0  0  0  0  0  0  0
   -2.6345    0.4545   -1.1370 H   0  0  0  0  0  0  0  0  0  0  0  0
    4.2701    0.5150   -1.2470 H   0  0  0  0  0  0  0  0  0  0  0  0
    3.6533    0.0560   -2.8684 H   0  0  0  0  0  0  0  0  0  0  0  0
    5.6444   -1.1465   -0.2473 H   0  0  0  0  0  0  0  0  0  0  0  0
    4.9522   -5.3584   -0.9709 H   0  0  0  0  0  0  0  0  0  0  0  0
    3.0094   -4.7813   -2.4206 H   0  0  0  0  0  0  0  0  0  0  0  0
    2.4011   -2.4086   -2.8006 H   0  0  0  0  0  0  0  0  0  0  0  0
  1  2  2  0  0  0  0
  2  3  1  0  0  0  0
  4  2  1  0  0  0  0
  5  6  1  0  0  0  0
  5  4  1  0  0  0  0
  7 12  1  0  0  0  0
  7  6  1  0  0  0  0
  8  7  1  0  0  0  0
  9  8  2  0  0  0  0
 10 21  1  0  0  0  0
 10  8  1  0  0  0  0
 11 10  1  0  0  0  0
 12 25  1  0  0  0  0
 12 27  1  0  0  0  0
 13 14  1  0  0  0  0
 13  4  1  0  0  0  0
 13 28  1  0  0  0  0
 14 15  2  0  0  0  0
 15 16  1  0  0  0  0
 15 30  1  0  0  0  0
 16 17  1  0  0  0  0
 18 31  1  0  0  0  0
 18 16  2  0  0  0  0
 19 18  1  0  0  0  0
 20 19  2  0  0  0  0
 20 14  1  0  0  0  0
 22 11  1  0  0  0  0
 23 11  1  0  0  0  0
 24 11  1  0  0  0  0
 26 12  1  0  0  0  0
 29 13  1  0  0  0  0
 32 19  1  0  0  0  0
 33 20  1  0  0  0  0
M  RAD  3   3   2   5   2   6   3
M  END
$$$$
