rmsd114.gzmat
 OpenBabel08211713383D

 33 33  0  0  0  0  0  0  0  0999 V2000
    0.0000    0.0000    0.0000 S   0  0  0  0  0  0  0  0  0  0  0  0
    1.8050    0.0000    0.0000 C   0  0  0  0  0  0  0  0  0  0  0  0
    2.7273    0.0000    1.3439 S   0  0  0  0  0  0  0  0  0  0  0  0
    2.2180    0.0609   -1.3003 N   0  0  0  0  0  0  0  0  0  0  0  0
    1.2615    0.0225   -2.2888 N   0  0  0  0  0  0  0  0  0  0  0  0
    0.0220    0.0153   -1.8079 C   0  0  0  0  0  0  0  0  0  0  0  0
   -1.1120    0.0511   -2.5695 N   0  0  0  0  0  0  0  0  0  0  0  0
   -1.1757    0.1520   -4.0060 C   0  0  0  0  0  0  0  0  0  0  0  0
   -2.2545   -0.0344   -4.5366 O   0  0  0  0  0  0  0  0  0  0  0  0
   -0.0488    0.5221   -4.6869 N   0  0  0  0  0  0  0  0  0  0  0  0
   -0.1019    0.5600   -6.1499 C   0  0  0  0  0  0  0  0  0  0  0  0
   -2.3972   -0.2024   -1.8918 C   0  0  0  0  0  0  0  0  0  0  0  0
    3.5912   -0.1763   -1.7813 C   0  0  0  0  0  0  0  0  0  0  0  0
    3.9205   -1.6463   -1.7377 C   0  0  0  0  0  0  0  0  0  0  0  0
    3.3553   -2.5000   -2.6861 C   0  0  0  0  0  0  0  0  0  0  0  0
    3.6648   -3.8551   -2.6078 C   0  0  0  0  0  0  0  0  0  0  0  0
    3.1423   -4.6753   -3.5073 F   0  0  0  0  0  0  0  0  0  0  0  0
    4.4999   -4.3873   -1.6255 C   0  0  0  0  0  0  0  0  0  0  0  0
    5.0493   -3.5123   -0.6922 C   0  0  0  0  0  0  0  0  0  0  0  0
    4.7692   -2.1465   -0.7507 C   0  0  0  0  0  0  0  0  0  0  0  0
    0.8584    0.5922   -4.2458 H   0  0  0  0  0  0  0  0  0  0  0  0
    0.5512    1.3699   -6.5189 H   0  0  0  0  0  0  0  0  0  0  0  0
   -1.1318    0.7582   -6.5075 H   0  0  0  0  0  0  0  0  0  0  0  0
    0.2275   -0.4002   -6.5861 H   0  0  0  0  0  0  0  0  0  0  0  0
   -2.4137   -1.1989   -1.4163 H   0  0  0  0  0  0  0  0  0  0  0  0
   -3.2344   -0.1863   -2.6241 H   0  0  0  0  0  0  0  0  0  0  0  0
   -2.6140    0.5873   -1.1510 H   0  0  0  0  0  0  0  0  0  0  0  0
    4.2892    0.4310   -1.1513 H   0  0  0  0  0  0  0  0  0  0  0  0
    3.6841    0.2195   -2.8242 H   0  0  0  0  0  0  0  0  0  0  0  0
    2.6833   -2.1145   -3.4524 H   0  0  0  0  0  0  0  0  0  0  0  0
    4.7154   -5.4533   -1.5854 H   0  0  0  0  0  0  0  0  0  0  0  0
    5.6974   -3.8981    0.0951 H   0  0  0  0  0  0  0  0  0  0  0  0
    5.2080   -1.4754   -0.0110 H   0  0  0  0  0  0  0  0  0  0  0  0
  2  1  2  0  0  0  0
  2  3  1  0  0  0  0
  4  2  1  0  0  0  0
  5  6  1  0  0  0  0
  5  4  1  0  0  0  0
  7 12  1  0  0  0  0
  7  6  1  0  0  0  0
  8  7  1  0  0  0  0
  9  8  2  0  0  0  0
 10 21  1  0  0  0  0
 10  8  1  0  0  0  0
 11 10  1  0  0  0  0
 12 25  1  0  0  0  0
 12 27  1  0  0  0  0
 13 14  1  0  0  0  0
 13  4  1  0  0  0  0
 13 28  1  0  0  0  0
 14 20  2  0  0  0  0
 15 16  2  0  0  0  0
 15 14  1  0  0  0  0
 16 18  1  0  0  0  0
 17 16  1  0  0  0  0
 18 31  1  0  0  0  0
 18 19  2  0  0  0  0
 19 32  1  0  0  0  0
 20 19  1  0  0  0  0
 20 33  1  0  0  0  0
 22 11  1  0  0  0  0
 23 11  1  0  0  0  0
 24 11  1  0  0  0  0
 26 12  1  0  0  0  0
 29 13  1  0  0  0  0
 30 15  1  0  0  0  0
M  RAD  3   3   2   5   2   6   3
M  END
$$$$
