33
rmsd102.gzmat
S          0.00000        0.00000        0.00000
C          1.80690        0.00000        0.00000
S          2.73790        0.00000        1.33200
N          2.21710        0.06110       -1.30510
N          1.25880        0.00270       -2.29020
C          0.02100        0.00270       -1.80770
N         -1.11220        0.04410       -2.57300
C         -1.16170        0.15700       -4.00850
O         -2.21580       -0.09660       -4.56040
N         -0.05710        0.62990       -4.66460
C         -0.09170        0.68220       -6.12810
C         -2.39000       -0.28850       -1.91670
C          3.58840       -0.19670       -1.77900
C          3.98200       -1.63420       -1.55400
C          5.07290       -1.93300       -0.73950
C          5.39630       -3.27680       -0.55680
F          6.43310       -3.57680        0.21110
C          4.67880       -4.31880       -1.14170
C          3.59380       -3.98950       -1.95160
C          3.25060       -2.65600       -2.16320
H          0.84140        0.73340       -4.21190
H          0.31310       -0.24460       -6.57250
H          0.50460        1.54340       -6.47680
H         -1.12890        0.81050       -6.49770
H         -2.37500       -1.30750       -1.49240
H         -3.22410       -0.26130       -2.65220
H         -2.63450        0.45450       -1.13700
H          4.27010        0.51500       -1.24700
H          3.65330        0.05600       -2.86840
H          5.64440       -1.14650       -0.24730
H          4.95220       -5.35840       -0.97090
H          3.00940       -4.78130       -2.42060
H          2.40110       -2.40860       -2.80060
