31
rmsd108.gzmat
C          0.00000        0.00000        0.00000
C          1.39070        0.00000        0.00000
C          2.09160        0.00000        1.20820
C          3.59560        0.01060        1.22240
H          3.97310       -0.12330        2.27380
C          4.10910       -1.12290        0.36820
O          4.03190       -1.27600       -0.82100
O          4.73770       -2.04150        1.14650
C          4.13590        1.32840        0.66180
C          1.39380        0.00570        2.41690
C          0.00180        0.01010        2.41810
C         -0.69840        0.00360        1.20980
C         -2.16590       -0.00490        1.21120
C         -2.85810       -1.06760        0.62500
C         -4.25070       -1.07610        0.63220
C         -4.95360       -0.02450        1.21800
C         -4.26310        1.03700        1.80070
C         -2.87040        1.04760        1.80130
H         -0.54670        0.00030       -0.94190
H          1.93510       -0.01030       -0.94750
H          5.08110       -2.82150        0.64600
H          3.89450        1.44300       -0.40480
H          5.22530        1.39650        0.76470
H          3.69540        2.18560        1.18710
H          1.93110        0.00400        3.36350
H         -0.54300        0.00910        3.36050
H         -2.30700       -1.88910        0.17020
H         -4.79110       -1.90560        0.18030
H         -6.04130       -0.03270        1.22090
H         -4.81140        1.85900        2.25620
H         -2.32820        1.87520        2.25500
