31

C          0.03310       -0.16570        0.01600
C          1.42630       -0.15250        0.01230
C          2.14520        0.02960        1.20300
C          3.66760        0.08300        1.19370
H          4.01000        0.04780        2.23860
C          4.19780       -1.16570        0.50690
O          4.47810       -1.25230       -0.66380
O          4.28820       -2.20730        1.35510
C          4.19730        1.34810        0.50940
C          1.42760        0.19400        2.39370
C          0.03290        0.18310        2.39740
C         -0.69420        0.00370        1.20820
C         -2.17790       -0.00960        1.21060
C         -2.89520       -0.86350        0.35300
C         -4.29060       -0.87640        0.35510
C         -5.00150       -0.03510        1.21560
C         -4.30300        0.81900        2.07350
C         -2.90750        0.83140        2.07040
H         -0.50260       -0.28680       -0.92780
H          1.96660       -0.28580       -0.92790
H          4.57920       -2.97220        0.82880
H          3.90560        1.36350       -0.55000
H          5.29620        1.39250        0.55640
H          3.78700        2.24260        1.00020
H          1.96860        0.32350        3.33480
H         -0.50090        0.28940        3.34410
H         -2.35090       -1.54340       -0.30570
H         -4.82630       -1.55430       -0.31400
H         -6.09400       -0.04500        1.21750
H         -4.84840        1.48730        2.74430
H         -2.37320        1.52140        2.72680
