rmsd107.gzmat
 OpenBabel08211713373D

 31 32  0  0  1  0  0  0  0  0999 V2000
    0.0000    0.0000    0.0000 C   0  0  0  0  0  0  0  0  0  0  0  0
    1.3907    0.0000    0.0000 C   0  0  0  0  0  0  0  0  0  0  0  0
    2.0914    0.0000    1.2082 C   0  0  0  0  0  0  0  0  0  0  0  0
    3.5946    0.0422    1.2243 C   0  0  1  0  0  0  0  0  0  0  0  0
    3.9749   -0.1057    2.2729 H   0  0  0  0  0  0  0  0  0  0  0  0
    4.1476   -1.0514    0.3436 C   0  0  0  0  0  0  0  0  0  0  0  0
    4.0213   -1.2132   -0.8403 O   0  0  0  0  0  0  0  0  0  0  0  0
    4.8888   -1.9146    1.0865 O   0  0  0  0  0  0  0  0  0  0  0  0
    4.0961    1.3899    0.6968 C   0  0  0  0  0  0  0  0  0  0  0  0
    1.3923   -0.0061    2.4167 C   0  0  0  0  0  0  0  0  0  0  0  0
    0.0002   -0.0026    2.4177 C   0  0  0  0  0  0  0  0  0  0  0  0
   -0.7006    0.0036    1.2093 C   0  0  0  0  0  0  0  0  0  0  0  0
   -2.1685    0.0142    1.2068 C   0  0  0  0  0  0  0  0  0  0  0  0
   -2.8746   -0.9956    0.5480 C   0  0  0  0  0  0  0  0  0  0  0  0
   -4.2671   -0.9833    0.5488 C   0  0  0  0  0  0  0  0  0  0  0  0
   -4.9575    0.0366    1.2022 C   0  0  0  0  0  0  0  0  0  0  0  0
   -4.2538    1.0464    1.8569 C   0  0  0  0  0  0  0  0  0  0  0  0
   -2.8612    1.0361    1.8622 C   0  0  0  0  0  0  0  0  0  0  0  0
   -0.5464    0.0038   -0.9426 H   0  0  0  0  0  0  0  0  0  0  0  0
    1.9346   -0.0068   -0.9482 H   0  0  0  0  0  0  0  0  0  0  0  0
    5.2762   -2.6600    0.5661 H   0  0  0  0  0  0  0  0  0  0  0  0
    3.8451    1.5278   -0.3649 H   0  0  0  0  0  0  0  0  0  0  0  0
    5.1832    1.4857    0.7964 H   0  0  0  0  0  0  0  0  0  0  0  0
    3.6353    2.2201    1.2479 H   0  0  0  0  0  0  0  0  0  0  0  0
    1.9311   -0.0131    3.3629 H   0  0  0  0  0  0  0  0  0  0  0  0
   -0.5445   -0.0110    3.3604 H   0  0  0  0  0  0  0  0  0  0  0  0
   -2.3337   -1.7933    0.0409 H   0  0  0  0  0  0  0  0  0  0  0  0
   -4.8162   -1.7720    0.0380 H   0  0  0  0  0  0  0  0  0  0  0  0
   -6.0454    0.0445    1.2017 H   0  0  0  0  0  0  0  0  0  0  0  0
   -4.7926    1.8443    2.3643 H   0  0  0  0  0  0  0  0  0  0  0  0
   -2.3089    1.8254    2.3690 H   0  0  0  0  0  0  0  0  0  0  0  0
  1 12  1  0  0  0  0
  2  1  2  0  0  0  0
  2  3  1  0  0  0  0
  3  4  1  0  0  0  0
  3 10  2  0  0  0  0
  4  5  1  1  0  0  0
  6  8  1  0  0  0  0
  6  4  1  0  0  0  0
  7  6  2  0  0  0  0
  9 23  1  0  0  0  0
  9  4  1  0  0  0  0
  9 24  1  0  0  0  0
 10 11  1  0  0  0  0
 10 25  1  0  0  0  0
 11 26  1  0  0  0  0
 12 11  2  0  0  0  0
 13 12  1  0  0  0  0
 13 18  2  0  0  0  0
 14 15  2  0  0  0  0
 14 13  1  0  0  0  0
 15 16  1  0  0  0  0
 16 17  2  0  0  0  0
 17 18  1  0  0  0  0
 17 30  1  0  0  0  0
 18 31  1  0  0  0  0
 19  1  1  0  0  0  0
 20  2  1  0  0  0  0
 21  8  1  0  0  0  0
 22  9  1  0  0  0  0
 27 14  1  0  0  0  0
 28 15  1  0  0  0  0
 29 16  1  0  0  0  0
M  END
$$$$
