31
rmsd143.gzmat
C          0.00000        0.00000        0.00000
C          1.39210        0.00000        0.00000
C          2.09180        0.00000        1.20800
C          3.59540       -0.02900        1.19080
H          3.97280        0.10080        0.13850
C          4.12610        1.09790        2.04290
O          4.04880        1.25860        3.23130
O          4.77120        2.00230        1.26060
C          4.12200       -1.35510        1.74480
C          1.39210        0.00850        2.41690
C          0.00140        0.01500        2.41810
C         -0.69910        0.00610        1.20890
C         -2.16690       -0.00120        1.21050
C         -2.85870       -1.05480        0.60800
C         -4.25120       -1.06730        0.61900
C         -4.95530       -0.02730        1.22400
C         -4.26520        1.02640        1.82120
C         -2.87270        1.04050        1.81820
H         -0.54660        0.00200       -0.94190
H          1.92890       -0.00030       -0.94660
H          5.13060        2.77700        1.75780
H          3.85890       -1.48640        2.80370
H          5.21360       -1.42340        1.66460
H          3.69360       -2.20330        1.19560
H          1.93790        0.01840        3.36360
H         -0.54440        0.02170        3.36070
H         -2.30690       -1.86650        0.13750
H         -4.78980       -1.89140        0.15580
H         -6.04290       -0.03790        1.22960
H         -4.81460        1.83930        2.29220
H         -2.33200        1.86350        2.28240
