rmsd143.gzmat
 OpenBabel08211713373D

 31 32  0  0  1  0  0  0  0  0999 V2000
    0.0000    0.0000    0.0000 C   0  0  0  0  0  0  0  0  0  0  0  0
    1.3921    0.0000    0.0000 C   0  0  0  0  0  0  0  0  0  0  0  0
    2.0918    0.0000    1.2080 C   0  0  0  0  0  0  0  0  0  0  0  0
    3.5954   -0.0290    1.1908 C   0  0  1  0  0  0  0  0  0  0  0  0
    3.9728    0.1008    0.1385 H   0  0  0  0  0  0  0  0  0  0  0  0
    4.1261    1.0979    2.0429 C   0  0  0  0  0  0  0  0  0  0  0  0
    4.0488    1.2586    3.2313 O   0  0  0  0  0  0  0  0  0  0  0  0
    4.7712    2.0023    1.2606 O   0  0  0  0  0  0  0  0  0  0  0  0
    4.1220   -1.3551    1.7448 C   0  0  0  0  0  0  0  0  0  0  0  0
    1.3921    0.0085    2.4169 C   0  0  0  0  0  0  0  0  0  0  0  0
    0.0014    0.0150    2.4181 C   0  0  0  0  0  0  0  0  0  0  0  0
   -0.6991    0.0061    1.2089 C   0  0  0  0  0  0  0  0  0  0  0  0
   -2.1669   -0.0012    1.2105 C   0  0  0  0  0  0  0  0  0  0  0  0
   -2.8587   -1.0548    0.6080 C   0  0  0  0  0  0  0  0  0  0  0  0
   -4.2512   -1.0673    0.6190 C   0  0  0  0  0  0  0  0  0  0  0  0
   -4.9553   -0.0273    1.2240 C   0  0  0  0  0  0  0  0  0  0  0  0
   -4.2652    1.0264    1.8212 C   0  0  0  0  0  0  0  0  0  0  0  0
   -2.8727    1.0405    1.8182 C   0  0  0  0  0  0  0  0  0  0  0  0
   -0.5466    0.0020   -0.9419 H   0  0  0  0  0  0  0  0  0  0  0  0
    1.9289   -0.0003   -0.9466 H   0  0  0  0  0  0  0  0  0  0  0  0
    5.1306    2.7770    1.7578 H   0  0  0  0  0  0  0  0  0  0  0  0
    3.8589   -1.4864    2.8037 H   0  0  0  0  0  0  0  0  0  0  0  0
    5.2136   -1.4234    1.6646 H   0  0  0  0  0  0  0  0  0  0  0  0
    3.6936   -2.2033    1.1956 H   0  0  0  0  0  0  0  0  0  0  0  0
    1.9379    0.0184    3.3636 H   0  0  0  0  0  0  0  0  0  0  0  0
   -0.5444    0.0217    3.3607 H   0  0  0  0  0  0  0  0  0  0  0  0
   -2.3069   -1.8665    0.1375 H   0  0  0  0  0  0  0  0  0  0  0  0
   -4.7898   -1.8914    0.1558 H   0  0  0  0  0  0  0  0  0  0  0  0
   -6.0429   -0.0379    1.2296 H   0  0  0  0  0  0  0  0  0  0  0  0
   -4.8146    1.8393    2.2922 H   0  0  0  0  0  0  0  0  0  0  0  0
   -2.3320    1.8635    2.2824 H   0  0  0  0  0  0  0  0  0  0  0  0
  1 12  1  0  0  0  0
  2  1  2  0  0  0  0
  2  3  1  0  0  0  0
  3 10  2  0  0  0  0
  4  5  1  6  0  0  0
  4  3  1  0  0  0  0
  4  9  1  0  0  0  0
  4  6  1  0  0  0  0
  6  7  2  0  0  0  0
  8 21  1  0  0  0  0
  8  6  1  0  0  0  0
  9 22  1  0  0  0  0
 10 11  1  0  0  0  0
 10 25  1  0  0  0  0
 11 26  1  0  0  0  0
 12 13  1  0  0  0  0
 12 11  2  0  0  0  0
 13 18  2  0  0  0  0
 14 15  2  0  0  0  0
 14 13  1  0  0  0  0
 15 16  1  0  0  0  0
 16 29  1  0  0  0  0
 16 17  2  0  0  0  0
 17 30  1  0  0  0  0
 18 17  1  0  0  0  0
 18 31  1  0  0  0  0
 19  1  1  0  0  0  0
 20  2  1  0  0  0  0
 23  9  1  0  0  0  0
 24  9  1  0  0  0  0
 27 14  1  0  0  0  0
 28 15  1  0  0  0  0
M  END
$$$$
