rmsd89.gzmat
 OpenBabel08211713373D

 31 32  0  0  1  0  0  0  0  0999 V2000
    0.0000    0.0000    0.0000 C   0  0  0  0  0  0  0  0  0  0  0  0
    1.3907    0.0000    0.0000 C   0  0  0  0  0  0  0  0  0  0  0  0
    2.0922    0.0000    1.2083 C   0  0  0  0  0  0  0  0  0  0  0  0
    3.5968    0.0045    1.2207 C   0  0  1  0  0  0  0  0  0  0  0  0
    3.9757   -0.0946    2.2750 H   0  0  0  0  0  0  0  0  0  0  0  0
    4.0893   -1.1689    0.4084 C   0  0  0  0  0  0  0  0  0  0  0  0
    4.0732   -1.3297   -0.7824 O   0  0  0  0  0  0  0  0  0  0  0  0
    4.6018   -2.1196    1.2317 O   0  0  0  0  0  0  0  0  0  0  0  0
    4.1505    1.2951    0.6129 C   0  0  0  0  0  0  0  0  0  0  0  0
    1.3940    0.0036    2.4168 C   0  0  0  0  0  0  0  0  0  0  0  0
    0.0020    0.0076    2.4177 C   0  0  0  0  0  0  0  0  0  0  0  0
   -0.7002    0.0023    1.2099 C   0  0  0  0  0  0  0  0  0  0  0  0
   -2.1677   -0.0072    1.2138 C   0  0  0  0  0  0  0  0  0  0  0  0
   -2.8623   -1.0023    0.5206 C   0  0  0  0  0  0  0  0  0  0  0  0
   -4.2548   -1.0150    0.5328 C   0  0  0  0  0  0  0  0  0  0  0  0
   -4.9577   -0.0343    1.2311 C   0  0  0  0  0  0  0  0  0  0  0  0
   -4.2660    0.9605    1.9202 C   0  0  0  0  0  0  0  0  0  0  0  0
   -2.8735    0.9748    1.9149 C   0  0  0  0  0  0  0  0  0  0  0  0
   -0.5461    0.0011   -0.9425 H   0  0  0  0  0  0  0  0  0  0  0  0
    1.9361   -0.0107   -0.9469 H   0  0  0  0  0  0  0  0  0  0  0  0
    4.9183   -2.9284    0.7601 H   0  0  0  0  0  0  0  0  0  0  0  0
    3.9014    1.3794   -0.4546 H   0  0  0  0  0  0  0  0  0  0  0  0
    5.2419    1.3496    0.7015 H   0  0  0  0  0  0  0  0  0  0  0  0
    3.7315    2.1757    1.1157 H   0  0  0  0  0  0  0  0  0  0  0  0
    1.9315   -0.0006    3.3634 H   0  0  0  0  0  0  0  0  0  0  0  0
   -0.5426    0.0054    3.3606 H   0  0  0  0  0  0  0  0  0  0  0  0
   -2.3126   -1.7696   -0.0226 H   0  0  0  0  0  0  0  0  0  0  0  0
   -4.7949   -1.7927   -0.0040 H   0  0  0  0  0  0  0  0  0  0  0  0
   -6.0454   -0.0453    1.2377 H   0  0  0  0  0  0  0  0  0  0  0  0
   -4.8133    1.7280    2.4635 H   0  0  0  0  0  0  0  0  0  0  0  0
   -2.3329    1.7530    2.4506 H   0  0  0  0  0  0  0  0  0  0  0  0
  1 12  1  0  0  0  0
  2  1  2  0  0  0  0
  2  3  1  0  0  0  0
  3  4  1  0  0  0  0
  3 10  2  0  0  0  0
  4  5  1  1  0  0  0
  6  4  1  0  0  0  0
  6  8  1  0  0  0  0
  7  6  2  0  0  0  0
  9 23  1  0  0  0  0
  9 24  1  0  0  0  0
  9  4  1  0  0  0  0
 10 11  1  0  0  0  0
 10 25  1  0  0  0  0
 11 26  1  0  0  0  0
 12 13  1  0  0  0  0
 12 11  2  0  0  0  0
 13 18  2  0  0  0  0
 14 15  2  0  0  0  0
 14 13  1  0  0  0  0
 15 16  1  0  0  0  0
 16 29  1  0  0  0  0
 16 17  2  0  0  0  0
 17 30  1  0  0  0  0
 18 17  1  0  0  0  0
 18 31  1  0  0  0  0
 19  1  1  0  0  0  0
 20  2  1  0  0  0  0
 21  8  1  0  0  0  0
 22  9  1  0  0  0  0
 27 14  1  0  0  0  0
 28 15  1  0  0  0  0
M  END
$$$$
