rmsd105.gzmat
 OpenBabel08211713373D

 31 32  0  0  1  0  0  0  0  0999 V2000
    0.0000    0.0000    0.0000 C   0  0  0  0  0  0  0  0  0  0  0  0
    1.3907    0.0000    0.0000 C   0  0  0  0  0  0  0  0  0  0  0  0
    2.0916    0.0000    1.2082 C   0  0  0  0  0  0  0  0  0  0  0  0
    3.5953    0.0424    1.2238 C   0  0  1  0  0  0  0  0  0  0  0  0
    3.9766   -0.1144    2.2707 H   0  0  0  0  0  0  0  0  0  0  0  0
    4.1435   -1.0486    0.3368 C   0  0  0  0  0  0  0  0  0  0  0  0
    4.0563   -1.1792   -0.8547 O   0  0  0  0  0  0  0  0  0  0  0  0
    4.8220   -1.9562    1.0867 O   0  0  0  0  0  0  0  0  0  0  0  0
    4.0983    1.3935    0.7073 C   0  0  0  0  0  0  0  0  0  0  0  0
    1.3928   -0.0097    2.4167 C   0  0  0  0  0  0  0  0  0  0  0  0
    0.0007   -0.0034    2.4182 C   0  0  0  0  0  0  0  0  0  0  0  0
   -0.7003    0.0057    1.2100 C   0  0  0  0  0  0  0  0  0  0  0  0
   -2.1677    0.0245    1.2094 C   0  0  0  0  0  0  0  0  0  0  0  0
   -2.8817   -0.9697    0.5352 C   0  0  0  0  0  0  0  0  0  0  0  0
   -4.2741   -0.9442    0.5324 C   0  0  0  0  0  0  0  0  0  0  0  0
   -4.9565    0.0738    1.1969 C   0  0  0  0  0  0  0  0  0  0  0  0
   -4.2447    1.0652    1.8706 C   0  0  0  0  0  0  0  0  0  0  0  0
   -2.8523    1.0416    1.8798 C   0  0  0  0  0  0  0  0  0  0  0  0
   -0.5456    0.0021   -0.9428 H   0  0  0  0  0  0  0  0  0  0  0  0
    1.9350   -0.0071   -0.9478 H   0  0  0  0  0  0  0  0  0  0  0  0
    5.1984   -2.7063    0.5648 H   0  0  0  0  0  0  0  0  0  0  0  0
    3.8523    1.5378   -0.3545 H   0  0  0  0  0  0  0  0  0  0  0  0
    5.1851    1.4898    0.8118 H   0  0  0  0  0  0  0  0  0  0  0  0
    3.6353    2.2199    1.2626 H   0  0  0  0  0  0  0  0  0  0  0  0
    1.9310   -0.0224    3.3627 H   0  0  0  0  0  0  0  0  0  0  0  0
   -0.5461   -0.0123    3.3600 H   0  0  0  0  0  0  0  0  0  0  0  0
   -2.3471   -1.7650    0.0177 H   0  0  0  0  0  0  0  0  0  0  0  0
   -4.8299   -1.7206    0.0101 H   0  0  0  0  0  0  0  0  0  0  0  0
   -6.0442    0.0950    1.1900 H   0  0  0  0  0  0  0  0  0  0  0  0
   -4.7767    1.8597    2.3901 H   0  0  0  0  0  0  0  0  0  0  0  0
   -2.2945    1.8176    2.4008 H   0  0  0  0  0  0  0  0  0  0  0  0
  1 12  1  0  0  0  0
  2  1  2  0  0  0  0
  2  3  1  0  0  0  0
  3  4  1  0  0  0  0
  3 10  2  0  0  0  0
  4  5  1  1  0  0  0
  6  8  1  0  0  0  0
  6  4  1  0  0  0  0
  7  6  2  0  0  0  0
  9 23  1  0  0  0  0
  9  4  1  0  0  0  0
  9 24  1  0  0  0  0
 10 11  1  0  0  0  0
 10 25  1  0  0  0  0
 11 26  1  0  0  0  0
 12 11  2  0  0  0  0
 13 12  1  0  0  0  0
 13 18  2  0  0  0  0
 14 13  1  0  0  0  0
 15 14  2  0  0  0  0
 15 16  1  0  0  0  0
 16 17  2  0  0  0  0
 17 18  1  0  0  0  0
 17 30  1  0  0  0  0
 18 31  1  0  0  0  0
 19  1  1  0  0  0  0
 20  2  1  0  0  0  0
 21  8  1  0  0  0  0
 22  9  1  0  0  0  0
 27 14  1  0  0  0  0
 28 15  1  0  0  0  0
 29 16  1  0  0  0  0
M  END
$$$$
