
     RDKit          3D

 31 32  0  0  0  0  0  0  0  0999 V2000
    0.0331   -0.1657    0.0160 C   0  0  0  0  0  0  0  0  0  0  0  0
    1.4263   -0.1525    0.0123 C   0  0  0  0  0  0  0  0  0  0  0  0
    2.1452    0.0296    1.2030 C   0  0  0  0  0  0  0  0  0  0  0  0
    3.6676    0.0830    1.1937 C   0  0  1  0  0  0  0  0  0  0  0  0
    4.0100    0.0478    2.2386 H   0  0  0  0  0  0  0  0  0  0  0  0
    4.1978   -1.1657    0.5069 C   0  0  0  0  0  0  0  0  0  0  0  0
    4.4781   -1.2523   -0.6638 O   0  0  0  0  0  0  0  0  0  0  0  0
    4.2882   -2.2073    1.3551 O   0  0  0  0  0  0  0  0  0  0  0  0
    4.1973    1.3481    0.5094 C   0  0  0  0  0  0  0  0  0  0  0  0
    1.4276    0.1940    2.3937 C   0  0  0  0  0  0  0  0  0  0  0  0
    0.0329    0.1831    2.3974 C   0  0  0  0  0  0  0  0  0  0  0  0
   -0.6942    0.0037    1.2082 C   0  0  0  0  0  0  0  0  0  0  0  0
   -2.1779   -0.0096    1.2106 C   0  0  0  0  0  0  0  0  0  0  0  0
   -2.8952   -0.8635    0.3530 C   0  0  0  0  0  0  0  0  0  0  0  0
   -4.2906   -0.8764    0.3551 C   0  0  0  0  0  0  0  0  0  0  0  0
   -5.0015   -0.0351    1.2156 C   0  0  0  0  0  0  0  0  0  0  0  0
   -4.3030    0.8190    2.0735 C   0  0  0  0  0  0  0  0  0  0  0  0
   -2.9075    0.8314    2.0704 C   0  0  0  0  0  0  0  0  0  0  0  0
   -0.5026   -0.2868   -0.9278 H   0  0  0  0  0  0  0  0  0  0  0  0
    1.9666   -0.2858   -0.9279 H   0  0  0  0  0  0  0  0  0  0  0  0
    4.5792   -2.9722    0.8288 H   0  0  0  0  0  0  0  0  0  0  0  0
    3.9056    1.3635   -0.5500 H   0  0  0  0  0  0  0  0  0  0  0  0
    5.2962    1.3925    0.5564 H   0  0  0  0  0  0  0  0  0  0  0  0
    3.7870    2.2426    1.0002 H   0  0  0  0  0  0  0  0  0  0  0  0
    1.9686    0.3235    3.3348 H   0  0  0  0  0  0  0  0  0  0  0  0
   -0.5009    0.2894    3.3441 H   0  0  0  0  0  0  0  0  0  0  0  0
   -2.3509   -1.5434   -0.3057 H   0  0  0  0  0  0  0  0  0  0  0  0
   -4.8263   -1.5543   -0.3140 H   0  0  0  0  0  0  0  0  0  0  0  0
   -6.0940   -0.0450    1.2175 H   0  0  0  0  0  0  0  0  0  0  0  0
   -4.8484    1.4873    2.7443 H   0  0  0  0  0  0  0  0  0  0  0  0
   -2.3732    1.5214    2.7268 H   0  0  0  0  0  0  0  0  0  0  0  0
  1  2  2  0
  1 12  1  0
  1 19  1  0
  2  3  1  0
  2 20  1  0
  3  4  1  0
  3 10  2  0
  4  5  1  1
  4  6  1  0
  4  9  1  0
  6  7  2  0
  6  8  1  0
  8 21  1  0
  9 22  1  0
  9 23  1  0
  9 24  1  0
 10 11  1  0
 10 25  1  0
 11 12  2  0
 11 26  1  0
 12 13  1  0
 13 14  2  0
 13 18  1  0
 14 15  1  0
 14 27  1  0
 15 16  2  0
 15 28  1  0
 16 17  1  0
 16 29  1  0
 17 18  2  0
 17 30  1  0
 18 31  1  0
M  END

