rmsd108.gzmat
 OpenBabel08211713373D

 31 32  0  0  1  0  0  0  0  0999 V2000
    0.0000    0.0000    0.0000 C   0  0  0  0  0  0  0  0  0  0  0  0
    1.3907    0.0000    0.0000 C   0  0  0  0  0  0  0  0  0  0  0  0
    2.0916    0.0000    1.2082 C   0  0  0  0  0  0  0  0  0  0  0  0
    3.5956    0.0106    1.2224 C   0  0  1  0  0  0  0  0  0  0  0  0
    3.9731   -0.1233    2.2738 H   0  0  0  0  0  0  0  0  0  0  0  0
    4.1091   -1.1229    0.3682 C   0  0  0  0  0  0  0  0  0  0  0  0
    4.0319   -1.2760   -0.8210 O   0  0  0  0  0  0  0  0  0  0  0  0
    4.7377   -2.0415    1.1465 O   0  0  0  0  0  0  0  0  0  0  0  0
    4.1359    1.3284    0.6618 C   0  0  0  0  0  0  0  0  0  0  0  0
    1.3938    0.0057    2.4169 C   0  0  0  0  0  0  0  0  0  0  0  0
    0.0018    0.0101    2.4181 C   0  0  0  0  0  0  0  0  0  0  0  0
   -0.6984    0.0036    1.2098 C   0  0  0  0  0  0  0  0  0  0  0  0
   -2.1659   -0.0049    1.2112 C   0  0  0  0  0  0  0  0  0  0  0  0
   -2.8581   -1.0676    0.6250 C   0  0  0  0  0  0  0  0  0  0  0  0
   -4.2507   -1.0761    0.6322 C   0  0  0  0  0  0  0  0  0  0  0  0
   -4.9536   -0.0245    1.2180 C   0  0  0  0  0  0  0  0  0  0  0  0
   -4.2631    1.0370    1.8007 C   0  0  0  0  0  0  0  0  0  0  0  0
   -2.8704    1.0476    1.8013 C   0  0  0  0  0  0  0  0  0  0  0  0
   -0.5467    0.0003   -0.9419 H   0  0  0  0  0  0  0  0  0  0  0  0
    1.9351   -0.0103   -0.9475 H   0  0  0  0  0  0  0  0  0  0  0  0
    5.0811   -2.8215    0.6460 H   0  0  0  0  0  0  0  0  0  0  0  0
    3.8945    1.4430   -0.4048 H   0  0  0  0  0  0  0  0  0  0  0  0
    5.2253    1.3965    0.7647 H   0  0  0  0  0  0  0  0  0  0  0  0
    3.6954    2.1856    1.1871 H   0  0  0  0  0  0  0  0  0  0  0  0
    1.9311    0.0040    3.3635 H   0  0  0  0  0  0  0  0  0  0  0  0
   -0.5430    0.0091    3.3605 H   0  0  0  0  0  0  0  0  0  0  0  0
   -2.3070   -1.8891    0.1702 H   0  0  0  0  0  0  0  0  0  0  0  0
   -4.7911   -1.9056    0.1803 H   0  0  0  0  0  0  0  0  0  0  0  0
   -6.0413   -0.0327    1.2209 H   0  0  0  0  0  0  0  0  0  0  0  0
   -4.8114    1.8590    2.2562 H   0  0  0  0  0  0  0  0  0  0  0  0
   -2.3282    1.8752    2.2550 H   0  0  0  0  0  0  0  0  0  0  0  0
  1 12  1  0  0  0  0
  2  1  2  0  0  0  0
  2  3  1  0  0  0  0
  3  4  1  0  0  0  0
  3 10  2  0  0  0  0
  4  5  1  1  0  0  0
  6  8  1  0  0  0  0
  6  4  1  0  0  0  0
  7  6  2  0  0  0  0
  9 23  1  0  0  0  0
  9 24  1  0  0  0  0
  9  4  1  0  0  0  0
 10 11  1  0  0  0  0
 10 25  1  0  0  0  0
 11 26  1  0  0  0  0
 12 13  1  0  0  0  0
 12 11  2  0  0  0  0
 13 18  2  0  0  0  0
 14 15  2  0  0  0  0
 14 13  1  0  0  0  0
 15 16  1  0  0  0  0
 16 29  1  0  0  0  0
 16 17  2  0  0  0  0
 17 18  1  0  0  0  0
 17 30  1  0  0  0  0
 18 31  1  0  0  0  0
 19  1  1  0  0  0  0
 20  2  1  0  0  0  0
 21  8  1  0  0  0  0
 22  9  1  0  0  0  0
 27 14  1  0  0  0  0
 28 15  1  0  0  0  0
M  END
$$$$
