51
rmsd11.gzmat
O          0.00000        0.00000        0.00000
C          1.19050        0.00000        0.00000
N          2.12670        0.00000        1.04490
C          3.32930       -0.12810        0.16220
H          3.80290       -1.13000        0.20320
C          2.34620        0.05770       -1.06490
H          2.34240       -0.73490       -1.82370
O          2.45730        1.24410       -1.75940
C          4.36530        0.98040        0.40030
H          3.84680        1.94120        0.64630
N          5.23760        0.55120        1.51490
C          6.49890       -0.02020        0.99490
C          6.59080        0.37780       -0.49280
C          5.29660        1.13940       -0.82520
C          5.30550        1.28490        2.69470
O          6.21040        1.19490        3.49680
O          4.17650        2.01440        2.85000
C          3.93800        2.71700        4.09290
C          3.89270        1.72440        5.24710
C          5.00900        3.78460        4.27750
C          2.56120        3.32560        3.80240
C          2.01700       -0.53690        2.38590
C          2.33880       -2.01000        2.42680
C          3.64060       -2.42800        2.70280
C          3.94820       -3.78670        2.70580
C          2.95510       -4.72720        2.43620
C          1.65320       -4.30880        2.16410
C          1.34350       -2.95050        2.15820
H          2.34730        2.02100       -1.16290
H          7.37580        0.32950        1.58020
H          6.44420       -1.12400        1.12010
H          7.47850        1.00320       -0.68220
H          6.70070       -0.51500       -1.13070
H          5.50340        2.20630       -1.01430
H          4.82610        0.76090       -1.74970
H          3.15460        0.93320        5.07500
H          3.64000        2.22290        6.18870
H          4.86750        1.23240        5.39260
H          5.11540        4.40470        3.38050
H          5.99320        3.33280        4.47750
H          4.77560        4.44560        5.11820
H          2.59790        3.99770        2.93650
H          2.19700        3.89600        4.66170
H          1.82380        2.54600        3.56920
H          0.98430       -0.33790        2.76390
H          2.71410        0.04280        3.04640
H          4.41850       -1.69140        2.91010
H          4.96440       -4.11190        2.91880
H          3.19530       -5.78800        2.43980
H          0.87780       -5.04310        1.95500
H          0.32750       -2.62340        1.93910
