51
rmsd115.gzmat
O          0.00000        0.00000        0.00000
C          1.19030        0.00000        0.00000
N          2.12610        0.00000        1.04520
C          3.32880       -0.14240        0.16380
H          3.78710       -1.15170        0.20310
C          2.34700        0.05660       -1.06330
H          2.34170       -0.72930       -1.82830
O          2.46120        1.24950       -1.74700
C          4.37880        0.95090        0.41070
H          3.86800        1.89900        0.71810
N          5.28930        0.47490        1.47580
C          6.54420       -0.04590        0.88970
C          6.60280        0.45960       -0.56530
C          5.26640        1.17030       -0.83790
C          5.39450        1.16170        2.68240
O          6.33320        1.05250        3.44190
O          4.26390        1.86730        2.91680
C          4.07340        2.50700        4.20200
C          2.67790        3.11060        4.00640
C          4.09040        1.45700        5.30530
C          5.13980        3.57870        4.38810
C          2.00640       -0.52620        2.38900
C          2.28700       -2.00690        2.43860
C          3.58840       -2.45820        2.65900
C          3.85520       -3.82490        2.67750
C          2.82320       -4.74000        2.47460
C          1.52260       -4.28810        2.25600
C          1.25280       -2.92140        2.23740
H          2.35450        2.02050       -1.14220
H          7.43140        0.26790        1.48070
H          6.50110       -1.15600        0.93590
H          7.45270        1.14620       -0.71250
H          6.75960       -0.37690       -1.26600
H          5.42190        2.24830       -1.01260
H          4.78570        0.78790       -1.75570
H          2.67080        3.84230        3.18990
H          2.33700        3.61140        4.91710
H          1.94360        2.33690        3.74620
H          5.08320        0.99010        5.40160
H          3.37350        0.65180        5.11050
H          3.84590        1.89790        6.27710
H          6.13630        3.13270        4.53180
H          4.93090        4.20380        5.26160
H          5.20630        4.23350        3.51210
H          0.98050       -0.29590        2.76750
H          2.72070        0.03700        3.04500
H          4.39660       -1.74100        2.81040
H          4.86930       -4.17740        2.85360
H          3.03160       -5.80740        2.48850
H          0.71670       -5.00260        2.10140
H          0.23740       -2.56880        2.06020
