51
rmsd184.gzmat
O          0.00000        0.00000        0.00000
C          1.19050        0.00000        0.00000
N          2.12630        0.00000        1.04700
C          3.32770       -0.14710        0.16380
H          3.78580       -1.15610        0.20950
C          2.34640        0.05110       -1.06350
H          2.33670       -0.73650       -1.82690
O          2.46900        1.24200       -1.74910
C          4.37810        0.94900        0.39070
H          3.87300        1.89820        0.70240
N          5.30920        0.47910        1.44380
C          6.59220        0.06670        0.83230
C          6.68310        0.81130       -0.51270
C          5.23430        1.16740       -0.88450
C          5.38190        1.14540        2.66600
O          6.31680        1.05750        3.43260
O          4.22500        1.80570        2.90420
C          4.01510        2.44860        4.18390
C          2.59220        2.98650        3.99440
C          4.09130        1.41500        5.29970
C          5.03260        3.57090        4.34690
C          2.00610       -0.55780        2.37840
C          2.24540       -2.04680        2.38760
C          3.48100       -2.55040        2.79210
C          3.70820       -3.92490        2.77630
C          2.70320       -4.79350        2.35390
C          1.46910       -4.28840        1.94670
C          1.23870       -2.91520        1.96450
H          2.36640        2.01430       -1.14460
H          7.45340        0.28080        1.49920
H          6.55530       -1.03510        0.68790
H          7.30220        1.71970       -0.41870
H          7.16200        0.19110       -1.28610
H          5.15290        2.20820       -1.23690
H          4.87480        0.54450       -1.72290
H          2.52660        3.63130        3.10910
H          2.27620        3.57000        4.86410
H          1.87240        2.17110        3.84700
H          5.11810        1.03850        5.43040
H          3.45560        0.54710        5.09220
H          3.77600        1.84060        6.25780
H          6.05230        3.17170        4.46180
H          4.81810        4.18050        5.23020
H          5.04190        4.23240        3.47320
H          0.98980       -0.31340        2.77460
H          2.74040       -0.02840        3.04010
H          4.27060       -1.87100        3.11370
H          4.67120       -4.31870        3.09450
H          2.88030       -5.86680        2.34260
H          0.68570       -4.96710        1.61560
H          0.27580       -2.51680        1.64450
