rmsd11.gzmat
 OpenBabel08211713403D

 51 53  0  0  1  0  0  0  0  0999 V2000
    0.0000    0.0000    0.0000 O   0  0  0  0  0  0  0  0  0  0  0  0
    1.1905    0.0000    0.0000 C   0  0  0  0  0  0  0  0  0  0  0  0
    2.1267    0.0000    1.0449 N   0  0  0  0  0  0  0  0  0  0  0  0
    3.3293   -0.1281    0.1622 C   0  0  1  0  0  0  0  0  0  0  0  0
    3.8029   -1.1300    0.2032 H   0  0  0  0  0  0  0  0  0  0  0  0
    2.3462    0.0577   -1.0649 C   0  0  2  0  0  0  0  0  0  0  0  0
    2.3424   -0.7349   -1.8237 H   0  0  0  0  0  0  0  0  0  0  0  0
    2.4573    1.2441   -1.7594 O   0  0  0  0  0  0  0  0  0  0  0  0
    4.3653    0.9804    0.4003 C   0  0  1  0  0  0  0  0  0  0  0  0
    3.8468    1.9412    0.6463 H   0  0  0  0  0  0  0  0  0  0  0  0
    5.2376    0.5512    1.5149 N   0  0  0  0  0  0  0  0  0  0  0  0
    6.4989   -0.0202    0.9949 C   0  0  0  0  0  0  0  0  0  0  0  0
    6.5908    0.3778   -0.4928 C   0  0  0  0  0  0  0  0  0  0  0  0
    5.2966    1.1394   -0.8252 C   0  0  0  0  0  0  0  0  0  0  0  0
    5.3055    1.2849    2.6947 C   0  0  0  0  0  0  0  0  0  0  0  0
    6.2104    1.1949    3.4968 O   0  0  0  0  0  0  0  0  0  0  0  0
    4.1765    2.0144    2.8500 O   0  0  0  0  0  0  0  0  0  0  0  0
    3.9380    2.7170    4.0929 C   0  0  0  0  0  0  0  0  0  0  0  0
    3.8927    1.7244    5.2471 C   0  0  0  0  0  0  0  0  0  0  0  0
    5.0090    3.7846    4.2775 C   0  0  0  0  0  0  0  0  0  0  0  0
    2.5612    3.3256    3.8024 C   0  0  0  0  0  0  0  0  0  0  0  0
    2.0170   -0.5369    2.3859 C   0  0  0  0  0  0  0  0  0  0  0  0
    2.3388   -2.0100    2.4268 C   0  0  0  0  0  0  0  0  0  0  0  0
    3.6406   -2.4280    2.7028 C   0  0  0  0  0  0  0  0  0  0  0  0
    3.9482   -3.7867    2.7058 C   0  0  0  0  0  0  0  0  0  0  0  0
    2.9551   -4.7272    2.4362 C   0  0  0  0  0  0  0  0  0  0  0  0
    1.6532   -4.3088    2.1641 C   0  0  0  0  0  0  0  0  0  0  0  0
    1.3435   -2.9505    2.1582 C   0  0  0  0  0  0  0  0  0  0  0  0
    2.3473    2.0210   -1.1629 H   0  0  0  0  0  0  0  0  0  0  0  0
    7.3758    0.3295    1.5802 H   0  0  0  0  0  0  0  0  0  0  0  0
    6.4442   -1.1240    1.1201 H   0  0  0  0  0  0  0  0  0  0  0  0
    7.4785    1.0032   -0.6822 H   0  0  0  0  0  0  0  0  0  0  0  0
    6.7007   -0.5150   -1.1307 H   0  0  0  0  0  0  0  0  0  0  0  0
    5.5034    2.2063   -1.0143 H   0  0  0  0  0  0  0  0  0  0  0  0
    4.8261    0.7609   -1.7497 H   0  0  0  0  0  0  0  0  0  0  0  0
    3.1546    0.9332    5.0750 H   0  0  0  0  0  0  0  0  0  0  0  0
    3.6400    2.2229    6.1887 H   0  0  0  0  0  0  0  0  0  0  0  0
    4.8675    1.2324    5.3926 H   0  0  0  0  0  0  0  0  0  0  0  0
    5.1154    4.4047    3.3805 H   0  0  0  0  0  0  0  0  0  0  0  0
    5.9932    3.3328    4.4775 H   0  0  0  0  0  0  0  0  0  0  0  0
    4.7756    4.4456    5.1182 H   0  0  0  0  0  0  0  0  0  0  0  0
    2.5979    3.9977    2.9365 H   0  0  0  0  0  0  0  0  0  0  0  0
    2.1970    3.8960    4.6617 H   0  0  0  0  0  0  0  0  0  0  0  0
    1.8238    2.5460    3.5692 H   0  0  0  0  0  0  0  0  0  0  0  0
    0.9843   -0.3379    2.7639 H   0  0  0  0  0  0  0  0  0  0  0  0
    2.7141    0.0428    3.0464 H   0  0  0  0  0  0  0  0  0  0  0  0
    4.4185   -1.6914    2.9101 H   0  0  0  0  0  0  0  0  0  0  0  0
    4.9644   -4.1119    2.9188 H   0  0  0  0  0  0  0  0  0  0  0  0
    3.1953   -5.7880    2.4398 H   0  0  0  0  0  0  0  0  0  0  0  0
    0.8778   -5.0431    1.9550 H   0  0  0  0  0  0  0  0  0  0  0  0
    0.3275   -2.6234    1.9391 H   0  0  0  0  0  0  0  0  0  0  0  0
  2  1  2  0  0  0  0
  2  3  1  0  0  0  0
  3 22  1  0  0  0  0
  4  6  1  0  0  0  0
  4  5  1  1  0  0  0
  4  9  1  0  0  0  0
  4  3  1  0  0  0  0
  6  7  1  6  0  0  0
  6  2  1  0  0  0  0
  8 29  1  0  0  0  0
  8  6  1  0  0  0  0
  9 10  1  1  0  0  0
  9 11  1  0  0  0  0
 11 15  1  0  0  0  0
 12 31  1  0  0  0  0
 12 11  1  0  0  0  0
 12 30  1  0  0  0  0
 13 12  1  0  0  0  0
 14 13  1  0  0  0  0
 14  9  1  0  0  0  0
 15 17  1  0  0  0  0
 15 16  2  0  0  0  0
 17 18  1  0  0  0  0
 18 20  1  0  0  0  0
 18 19  1  0  0  0  0
 19 38  1  0  0  0  0
 19 37  1  0  0  0  0
 20 40  1  0  0  0  0
 20 41  1  0  0  0  0
 21 18  1  0  0  0  0
 21 43  1  0  0  0  0
 22 23  1  0  0  0  0
 22 45  1  0  0  0  0
 22 46  1  0  0  0  0
 23 24  2  0  0  0  0
 24 25  1  0  0  0  0
 24 47  1  0  0  0  0
 25 48  1  0  0  0  0
 26 49  1  0  0  0  0
 26 25  2  0  0  0  0
 27 26  1  0  0  0  0
 28 27  2  0  0  0  0
 28 23  1  0  0  0  0
 32 13  1  0  0  0  0
 33 13  1  0  0  0  0
 34 14  1  0  0  0  0
 35 14  1  0  0  0  0
 36 19  1  0  0  0  0
 39 20  1  0  0  0  0
 42 21  1  0  0  0  0
 44 21  1  0  0  0  0
 50 27  1  0  0  0  0
 51 28  1  0  0  0  0
M  END
$$$$
