51
rmsd149.gzmat
O          0.00000        0.00000        0.00000
C          1.19050        0.00000        0.00000
N          2.12580        0.00000        1.04680
C          3.32770       -0.15150        0.16570
H          3.78270       -1.16160        0.21070
C          2.34820        0.04830       -1.06270
H          2.33770       -0.74050       -1.82480
O          2.46950        1.23740       -1.75120
C          4.38140        0.93940        0.40870
H          3.87470        1.89450        0.69990
N          5.27630        0.46600        1.48790
C          6.53900       -0.05320        0.91960
C          6.63860        0.49560       -0.51720
C          5.27950        1.14160       -0.83550
C          5.35960        1.14830        2.69790
O          6.26130        1.00270        3.49520
O          4.24990        1.89940        2.88640
C          4.04500        2.57180        4.15160
C          2.71210        3.27690        3.87540
C          3.92530        1.53640        5.26290
C          5.17820        3.56230        4.38760
C          2.00260       -0.53950        2.38470
C          2.15710       -2.03940        2.40690
C          3.38160       -2.61050        2.75070
C          3.52310       -3.99680        2.75500
C          2.44410       -4.80990        2.41260
C          1.22150       -4.23680        2.06430
C          1.07680       -2.85190        2.06170
H          2.37450        2.01170       -1.14840
H          7.41380        0.23130        1.54240
H          6.48180       -1.16350        0.93020
H          7.45440        1.23220       -0.60340
H          6.87630       -0.30960       -1.23110
H          5.39530        2.21640       -1.05410
H          4.82700        0.70270       -1.74220
H          2.82170        4.05020        3.10660
H          2.32470        3.74930        4.78260
H          1.95700        2.56770        3.50990
H          4.86490        0.97600        5.39180
H          3.13680        0.80480        5.05290
H          3.69820        2.01060        6.22330
H          6.11390        3.04630        4.65390
H          4.94180        4.25500        5.20120
H          5.38650        4.15470        3.48920
H          1.00820       -0.23560        2.79560
H          2.77590       -0.04520        3.02820
H          4.22810       -1.97510        3.01250
H          4.47700       -4.44340        3.02720
H          2.55410       -5.89200        2.41800
H          0.37970       -4.87150        1.79540
H          0.12330       -2.40180        1.78470
