rmsd115.gzmat
 OpenBabel08211713403D

 51 53  0  0  1  0  0  0  0  0999 V2000
    0.0000    0.0000    0.0000 O   0  0  0  0  0  0  0  0  0  0  0  0
    1.1903    0.0000    0.0000 C   0  0  0  0  0  0  0  0  0  0  0  0
    2.1261    0.0000    1.0452 N   0  0  0  0  0  0  0  0  0  0  0  0
    3.3288   -0.1424    0.1638 C   0  0  1  0  0  0  0  0  0  0  0  0
    3.7871   -1.1517    0.2031 H   0  0  0  0  0  0  0  0  0  0  0  0
    2.3470    0.0566   -1.0633 C   0  0  2  0  0  0  0  0  0  0  0  0
    2.3417   -0.7293   -1.8283 H   0  0  0  0  0  0  0  0  0  0  0  0
    2.4612    1.2495   -1.7470 O   0  0  0  0  0  0  0  0  0  0  0  0
    4.3788    0.9509    0.4107 C   0  0  1  0  0  0  0  0  0  0  0  0
    3.8680    1.8990    0.7181 H   0  0  0  0  0  0  0  0  0  0  0  0
    5.2893    0.4749    1.4758 N   0  0  0  0  0  0  0  0  0  0  0  0
    6.5442   -0.0459    0.8897 C   0  0  0  0  0  0  0  0  0  0  0  0
    6.6028    0.4596   -0.5653 C   0  0  0  0  0  0  0  0  0  0  0  0
    5.2664    1.1703   -0.8379 C   0  0  0  0  0  0  0  0  0  0  0  0
    5.3945    1.1617    2.6824 C   0  0  0  0  0  0  0  0  0  0  0  0
    6.3332    1.0525    3.4419 O   0  0  0  0  0  0  0  0  0  0  0  0
    4.2639    1.8673    2.9168 O   0  0  0  0  0  0  0  0  0  0  0  0
    4.0734    2.5070    4.2020 C   0  0  0  0  0  0  0  0  0  0  0  0
    2.6779    3.1106    4.0064 C   0  0  0  0  0  0  0  0  0  0  0  0
    4.0904    1.4570    5.3053 C   0  0  0  0  0  0  0  0  0  0  0  0
    5.1398    3.5787    4.3881 C   0  0  0  0  0  0  0  0  0  0  0  0
    2.0064   -0.5262    2.3890 C   0  0  0  0  0  0  0  0  0  0  0  0
    2.2870   -2.0069    2.4386 C   0  0  0  0  0  0  0  0  0  0  0  0
    3.5884   -2.4582    2.6590 C   0  0  0  0  0  0  0  0  0  0  0  0
    3.8552   -3.8249    2.6775 C   0  0  0  0  0  0  0  0  0  0  0  0
    2.8232   -4.7400    2.4746 C   0  0  0  0  0  0  0  0  0  0  0  0
    1.5226   -4.2881    2.2560 C   0  0  0  0  0  0  0  0  0  0  0  0
    1.2528   -2.9214    2.2374 C   0  0  0  0  0  0  0  0  0  0  0  0
    2.3545    2.0205   -1.1422 H   0  0  0  0  0  0  0  0  0  0  0  0
    7.4314    0.2679    1.4807 H   0  0  0  0  0  0  0  0  0  0  0  0
    6.5011   -1.1560    0.9359 H   0  0  0  0  0  0  0  0  0  0  0  0
    7.4527    1.1462   -0.7125 H   0  0  0  0  0  0  0  0  0  0  0  0
    6.7596   -0.3769   -1.2660 H   0  0  0  0  0  0  0  0  0  0  0  0
    5.4219    2.2483   -1.0126 H   0  0  0  0  0  0  0  0  0  0  0  0
    4.7857    0.7879   -1.7557 H   0  0  0  0  0  0  0  0  0  0  0  0
    2.6708    3.8423    3.1899 H   0  0  0  0  0  0  0  0  0  0  0  0
    2.3370    3.6114    4.9171 H   0  0  0  0  0  0  0  0  0  0  0  0
    1.9436    2.3369    3.7462 H   0  0  0  0  0  0  0  0  0  0  0  0
    5.0832    0.9901    5.4016 H   0  0  0  0  0  0  0  0  0  0  0  0
    3.3735    0.6518    5.1105 H   0  0  0  0  0  0  0  0  0  0  0  0
    3.8459    1.8979    6.2771 H   0  0  0  0  0  0  0  0  0  0  0  0
    6.1363    3.1327    4.5318 H   0  0  0  0  0  0  0  0  0  0  0  0
    4.9309    4.2038    5.2616 H   0  0  0  0  0  0  0  0  0  0  0  0
    5.2063    4.2335    3.5121 H   0  0  0  0  0  0  0  0  0  0  0  0
    0.9805   -0.2959    2.7675 H   0  0  0  0  0  0  0  0  0  0  0  0
    2.7207    0.0370    3.0450 H   0  0  0  0  0  0  0  0  0  0  0  0
    4.3966   -1.7410    2.8104 H   0  0  0  0  0  0  0  0  0  0  0  0
    4.8693   -4.1774    2.8536 H   0  0  0  0  0  0  0  0  0  0  0  0
    3.0316   -5.8074    2.4885 H   0  0  0  0  0  0  0  0  0  0  0  0
    0.7167   -5.0026    2.1014 H   0  0  0  0  0  0  0  0  0  0  0  0
    0.2374   -2.5688    2.0602 H   0  0  0  0  0  0  0  0  0  0  0  0
  2  1  2  0  0  0  0
  2  3  1  0  0  0  0
  3 22  1  0  0  0  0
  4  6  1  0  0  0  0
  4  5  1  1  0  0  0
  4  9  1  0  0  0  0
  4  3  1  0  0  0  0
  6  7  1  6  0  0  0
  6  2  1  0  0  0  0
  8 29  1  0  0  0  0
  8  6  1  0  0  0  0
  9 10  1  1  0  0  0
  9 11  1  0  0  0  0
 11 15  1  0  0  0  0
 12 31  1  0  0  0  0
 12 11  1  0  0  0  0
 12 30  1  0  0  0  0
 13 12  1  0  0  0  0
 14 13  1  0  0  0  0
 14  9  1  0  0  0  0
 15 17  1  0  0  0  0
 15 16  2  0  0  0  0
 17 18  1  0  0  0  0
 18 21  1  0  0  0  0
 18 20  1  0  0  0  0
 19 18  1  0  0  0  0
 19 37  1  0  0  0  0
 20 39  1  0  0  0  0
 20 41  1  0  0  0  0
 21 42  1  0  0  0  0
 21 43  1  0  0  0  0
 22 23  1  0  0  0  0
 22 45  1  0  0  0  0
 22 46  1  0  0  0  0
 23 24  2  0  0  0  0
 24 25  1  0  0  0  0
 24 47  1  0  0  0  0
 25 48  1  0  0  0  0
 26 49  1  0  0  0  0
 26 25  2  0  0  0  0
 27 26  1  0  0  0  0
 28 27  2  0  0  0  0
 28 23  1  0  0  0  0
 32 13  1  0  0  0  0
 33 13  1  0  0  0  0
 34 14  1  0  0  0  0
 35 14  1  0  0  0  0
 36 19  1  0  0  0  0
 38 19  1  0  0  0  0
 40 20  1  0  0  0  0
 44 21  1  0  0  0  0
 50 27  1  0  0  0  0
 51 28  1  0  0  0  0
M  END
$$$$
