51
rmsd220.gzmat
O          0.00000        0.00000        0.00000
C          1.19030        0.00000        0.00000
N          2.12650        0.00000        1.04780
C          3.32830       -0.14090        0.16420
H          3.79200       -1.14760        0.20780
C          2.34620        0.05070       -1.06360
H          2.33760       -0.74280       -1.82130
O          2.46470        1.23550       -1.75950
C          4.37400        0.95890        0.39720
H          3.86630        1.90350        0.71820
N          5.30700        0.48030        1.44530
C          6.58320        0.06160        0.82350
C          6.67630        0.82230       -0.51250
C          5.22880        1.19170       -0.87650
C          5.39440        1.14430        2.66870
O          6.32930        1.03600        3.43230
O          4.25180        1.82640        2.91130
C          4.05600        2.47120        4.19280
C          2.65510        3.06050        3.99160
C          4.08380        1.42870        5.30290
C          5.11230        3.55410        4.37500
C          2.00730       -0.56650        2.37580
C          2.20140       -2.06230        2.37020
C          3.45830       -2.60170        2.64300
C          3.64090       -3.98290        2.61830
C          2.57040       -4.82360        2.31720
C          1.31510       -4.28280        2.04080
C          1.12930       -2.90250        2.06710
H          2.37270        2.01360       -1.16160
H          7.44930        0.25760        1.48940
H          6.53260       -1.03800        0.66460
H          7.30090        1.72600       -0.40870
H          7.14980        0.20890       -1.29460
H          5.15300        2.23800       -1.21290
H          4.86510        0.58330       -1.72370
H          2.64070        3.78060        3.16470
H          2.31200        3.57220        4.89540
H          1.92720        2.27700        3.74220
H          5.08430        0.97990        5.40660
H          3.38200        0.60970        5.10940
H          3.82580        1.87200        6.27050
H          6.11070        3.11810        4.53430
H          4.89080        4.18860        5.23900
H          5.18060        4.19850        3.49130
H          1.00370       -0.29370        2.78560
H          2.76530       -0.06590        3.03310
H          4.29880       -1.94420        2.86990
H          4.62020       -4.40410        2.83600
H          2.71230       -5.90210        2.29790
H          0.48010       -4.93990        1.80430
H          0.15000       -2.47910        1.84400
