rmsd184.gzmat
 OpenBabel08211713403D

 51 53  0  0  1  0  0  0  0  0999 V2000
    0.0000    0.0000    0.0000 O   0  0  0  0  0  0  0  0  0  0  0  0
    1.1905    0.0000    0.0000 C   0  0  0  0  0  0  0  0  0  0  0  0
    2.1263    0.0000    1.0470 N   0  0  0  0  0  0  0  0  0  0  0  0
    3.3277   -0.1471    0.1638 C   0  0  1  0  0  0  0  0  0  0  0  0
    3.7858   -1.1561    0.2095 H   0  0  0  0  0  0  0  0  0  0  0  0
    2.3464    0.0511   -1.0635 C   0  0  2  0  0  0  0  0  0  0  0  0
    2.3367   -0.7365   -1.8269 H   0  0  0  0  0  0  0  0  0  0  0  0
    2.4690    1.2420   -1.7491 O   0  0  0  0  0  0  0  0  0  0  0  0
    4.3781    0.9490    0.3907 C   0  0  1  0  0  0  0  0  0  0  0  0
    3.8730    1.8982    0.7024 H   0  0  0  0  0  0  0  0  0  0  0  0
    5.3092    0.4791    1.4438 N   0  0  0  0  0  0  0  0  0  0  0  0
    6.5922    0.0667    0.8323 C   0  0  0  0  0  0  0  0  0  0  0  0
    6.6831    0.8113   -0.5127 C   0  0  0  0  0  0  0  0  0  0  0  0
    5.2343    1.1674   -0.8845 C   0  0  0  0  0  0  0  0  0  0  0  0
    5.3819    1.1454    2.6660 C   0  0  0  0  0  0  0  0  0  0  0  0
    6.3168    1.0575    3.4326 O   0  0  0  0  0  0  0  0  0  0  0  0
    4.2250    1.8057    2.9042 O   0  0  0  0  0  0  0  0  0  0  0  0
    4.0151    2.4486    4.1839 C   0  0  0  0  0  0  0  0  0  0  0  0
    2.5922    2.9865    3.9944 C   0  0  0  0  0  0  0  0  0  0  0  0
    4.0913    1.4150    5.2997 C   0  0  0  0  0  0  0  0  0  0  0  0
    5.0326    3.5709    4.3469 C   0  0  0  0  0  0  0  0  0  0  0  0
    2.0061   -0.5578    2.3784 C   0  0  0  0  0  0  0  0  0  0  0  0
    2.2454   -2.0468    2.3876 C   0  0  0  0  0  0  0  0  0  0  0  0
    3.4810   -2.5504    2.7921 C   0  0  0  0  0  0  0  0  0  0  0  0
    3.7082   -3.9249    2.7763 C   0  0  0  0  0  0  0  0  0  0  0  0
    2.7032   -4.7935    2.3539 C   0  0  0  0  0  0  0  0  0  0  0  0
    1.4691   -4.2884    1.9467 C   0  0  0  0  0  0  0  0  0  0  0  0
    1.2387   -2.9152    1.9645 C   0  0  0  0  0  0  0  0  0  0  0  0
    2.3664    2.0143   -1.1446 H   0  0  0  0  0  0  0  0  0  0  0  0
    7.4534    0.2808    1.4992 H   0  0  0  0  0  0  0  0  0  0  0  0
    6.5553   -1.0351    0.6879 H   0  0  0  0  0  0  0  0  0  0  0  0
    7.3022    1.7197   -0.4187 H   0  0  0  0  0  0  0  0  0  0  0  0
    7.1620    0.1911   -1.2861 H   0  0  0  0  0  0  0  0  0  0  0  0
    5.1529    2.2082   -1.2369 H   0  0  0  0  0  0  0  0  0  0  0  0
    4.8748    0.5445   -1.7229 H   0  0  0  0  0  0  0  0  0  0  0  0
    2.5266    3.6313    3.1091 H   0  0  0  0  0  0  0  0  0  0  0  0
    2.2762    3.5700    4.8641 H   0  0  0  0  0  0  0  0  0  0  0  0
    1.8724    2.1711    3.8470 H   0  0  0  0  0  0  0  0  0  0  0  0
    5.1181    1.0385    5.4304 H   0  0  0  0  0  0  0  0  0  0  0  0
    3.4556    0.5471    5.0922 H   0  0  0  0  0  0  0  0  0  0  0  0
    3.7760    1.8406    6.2578 H   0  0  0  0  0  0  0  0  0  0  0  0
    6.0523    3.1717    4.4618 H   0  0  0  0  0  0  0  0  0  0  0  0
    4.8181    4.1805    5.2302 H   0  0  0  0  0  0  0  0  0  0  0  0
    5.0419    4.2324    3.4732 H   0  0  0  0  0  0  0  0  0  0  0  0
    0.9898   -0.3134    2.7746 H   0  0  0  0  0  0  0  0  0  0  0  0
    2.7404   -0.0284    3.0401 H   0  0  0  0  0  0  0  0  0  0  0  0
    4.2706   -1.8710    3.1137 H   0  0  0  0  0  0  0  0  0  0  0  0
    4.6712   -4.3187    3.0945 H   0  0  0  0  0  0  0  0  0  0  0  0
    2.8803   -5.8668    2.3426 H   0  0  0  0  0  0  0  0  0  0  0  0
    0.6857   -4.9671    1.6156 H   0  0  0  0  0  0  0  0  0  0  0  0
    0.2758   -2.5168    1.6445 H   0  0  0  0  0  0  0  0  0  0  0  0
  2  1  2  0  0  0  0
  2  3  1  0  0  0  0
  3 22  1  0  0  0  0
  4  6  1  0  0  0  0
  4  5  1  1  0  0  0
  4  9  1  0  0  0  0
  4  3  1  0  0  0  0
  6  7  1  6  0  0  0
  6  2  1  0  0  0  0
  8 29  1  0  0  0  0
  8  6  1  0  0  0  0
  9 10  1  1  0  0  0
  9 11  1  0  0  0  0
 11 15  1  0  0  0  0
 12 11  1  0  0  0  0
 12 30  1  0  0  0  0
 13 32  1  0  0  0  0
 13 12  1  0  0  0  0
 14 13  1  0  0  0  0
 14  9  1  0  0  0  0
 15 17  1  0  0  0  0
 15 16  2  0  0  0  0
 17 18  1  0  0  0  0
 18 21  1  0  0  0  0
 18 20  1  0  0  0  0
 19 18  1  0  0  0  0
 19 37  1  0  0  0  0
 20 39  1  0  0  0  0
 20 41  1  0  0  0  0
 21 42  1  0  0  0  0
 21 43  1  0  0  0  0
 22 23  1  0  0  0  0
 22 45  1  0  0  0  0
 22 46  1  0  0  0  0
 23 24  2  0  0  0  0
 24 47  1  0  0  0  0
 25 24  1  0  0  0  0
 25 48  1  0  0  0  0
 26 25  2  0  0  0  0
 27 28  2  0  0  0  0
 27 26  1  0  0  0  0
 28 23  1  0  0  0  0
 31 12  1  0  0  0  0
 33 13  1  0  0  0  0
 34 14  1  0  0  0  0
 35 14  1  0  0  0  0
 36 19  1  0  0  0  0
 38 19  1  0  0  0  0
 40 20  1  0  0  0  0
 44 21  1  0  0  0  0
 49 26  1  0  0  0  0
 50 27  1  0  0  0  0
 51 28  1  0  0  0  0
M  END
$$$$
