51
rmsd17.gzmat
O          0.00000        0.00000        0.00000
C          1.19050        0.00000        0.00000
N          2.12480        0.00000        1.04710
C          3.32910       -0.13690        0.16740
H          3.79520       -1.14240        0.21120
C          2.34790        0.05360       -1.06220
H          2.34250       -0.73750       -1.82230
O          2.46430        1.24110       -1.75420
C          4.37200        0.96490        0.40620
H          3.86020        1.90900        0.72260
N          5.29790        0.49020        1.46020
C          6.57310        0.05130        0.85220
C          6.67020        0.76660       -0.50860
C          5.23660        1.19820       -0.86010
C          5.37590        1.14460        2.68710
O          6.30450        1.02690        3.45740
O          4.23320        1.82900        2.92580
C          4.01130        2.41980        4.22910
C          2.60280        2.99480        4.03870
C          4.04380        1.33320        5.29640
C          5.04830        3.51080        4.46390
C          2.00250       -0.53890        2.38560
C          2.30590       -2.01520        2.43220
C          3.58450       -2.45010        2.78040
C          3.87070       -3.81330        2.80710
C          2.88120       -4.74020        2.48270
C          1.60420       -4.30390        2.13190
C          1.31440       -2.94170        2.10760
H          2.36560        2.01680       -1.15380
H          7.43950        0.27040        1.51160
H          6.52370       -1.05320        0.73080
H          7.34170        1.63980       -0.44750
H          7.09460        0.10440       -1.27960
H          5.20080        2.25630       -1.16590
H          4.85100        0.62980       -1.72490
H          2.59750        3.79930        3.29410
H          2.21540        3.39790        4.97880
H          1.90380        2.22560        3.68340
H          5.05910        0.92610        5.42420
H          3.39060        0.49150        5.03900
H          3.72410        1.72020        6.26930
H          6.05630        3.08520        4.58540
H          4.82420        4.08760        5.36680
H          5.09430        4.20810        3.61970
H          0.96910       -0.33010        2.75730
H          2.70170        0.03260        3.05070
H          4.36170       -1.72480        3.02570
H          4.86710       -4.15280        3.08280
H          3.10460       -5.80460        2.50400
H          0.83100       -5.02760        1.88080
H          0.31710       -2.59930        1.83160
