
     RDKit          3D

 51 53  0  0  0  0  0  0  0  0999 V2000
    0.7556    1.0275    2.7665 O   0  0  0  0  0  0  0  0  0  0  0  0
    1.5169    0.6986    1.8879 C   0  0  0  0  0  0  0  0  0  0  0  0
    2.4353   -0.3172    1.8072 N   0  0  0  0  0  0  0  0  0  0  0  0
    2.9691    0.0427    0.4940 C   0  0  1  0  0  0  0  0  0  0  0  0
    2.7962   -0.7430   -0.2593 H   0  0  0  0  0  0  0  0  0  0  0  0
    1.8839    1.1844    0.4572 C   0  0  2  0  0  0  0  0  0  0  0  0
    1.0773    0.9626   -0.2595 H   0  0  0  0  0  0  0  0  0  0  0  0
    2.2969    2.4869    0.2498 O   0  0  0  0  0  0  0  0  0  0  0  0
    4.4470    0.4871    0.4235 C   0  0  1  0  0  0  0  0  0  0  0  0
    4.4688    1.4770   -0.0632 H   0  0  0  0  0  0  0  0  0  0  0  0
    5.1390    0.5583    1.7201 N   0  0  0  0  0  0  0  0  0  0  0  0
    6.3258   -0.3028    1.7654 C   0  0  0  0  0  0  0  0  0  0  0  0
    6.6872   -0.4600    0.2906 C   0  0  0  0  0  0  0  0  0  0  0  0
    5.3115   -0.5163   -0.3731 C   0  0  0  0  0  0  0  0  0  0  0  0
    4.9107    1.3952    2.7729 C   0  0  0  0  0  0  0  0  0  0  0  0
    5.5341    1.3145    3.8142 O   0  0  0  0  0  0  0  0  0  0  0  0
    3.9410    2.3173    2.5305 O   0  0  0  0  0  0  0  0  0  0  0  0
    3.5489    3.2740    3.6047 C   0  0  0  0  0  0  0  0  0  0  0  0
    2.4243    4.0958    2.9784 C   0  0  0  0  0  0  0  0  0  0  0  0
    3.0251    2.5082    4.8198 C   0  0  0  0  0  0  0  0  0  0  0  0
    4.7451    4.1665    3.9340 C   0  0  0  0  0  0  0  0  0  0  0  0
    2.7542   -1.3869    2.7256 C   0  0  0  0  0  0  0  0  0  0  0  0
    2.9488   -2.7042    2.0084 C   0  0  0  0  0  0  0  0  0  0  0  0
    4.0939   -3.4784    2.2307 C   0  0  0  0  0  0  0  0  0  0  0  0
    4.2837   -4.6856    1.5505 C   0  0  0  0  0  0  0  0  0  0  0  0
    3.3285   -5.1290    0.6335 C   0  0  0  0  0  0  0  0  0  0  0  0
    2.1795   -4.3633    0.4062 C   0  0  0  0  0  0  0  0  0  0  0  0
    1.9919   -3.1614    1.0898 C   0  0  0  0  0  0  0  0  0  0  0  0
    2.9321    2.6966    0.9562 H   0  0  0  0  0  0  0  0  0  0  0  0
    7.1028    0.1677    2.3803 H   0  0  0  0  0  0  0  0  0  0  0  0
    6.0873   -1.2795    2.2232 H   0  0  0  0  0  0  0  0  0  0  0  0
    7.2502    0.4236   -0.0522 H   0  0  0  0  0  0  0  0  0  0  0  0
    7.2989   -1.3522    0.0929 H   0  0  0  0  0  0  0  0  0  0  0  0
    5.3225   -0.2796   -1.4468 H   0  0  0  0  0  0  0  0  0  0  0  0
    4.8895   -1.5281   -0.2596 H   0  0  0  0  0  0  0  0  0  0  0  0
    2.7702    4.6313    2.0808 H   0  0  0  0  0  0  0  0  0  0  0  0
    2.0858    4.8472    3.7067 H   0  0  0  0  0  0  0  0  0  0  0  0
    1.5674    3.4623    2.7141 H   0  0  0  0  0  0  0  0  0  0  0  0
    3.8165    1.9097    5.2849 H   0  0  0  0  0  0  0  0  0  0  0  0
    2.1881    1.8593    4.5252 H   0  0  0  0  0  0  0  0  0  0  0  0
    2.6510    3.2331    5.5591 H   0  0  0  0  0  0  0  0  0  0  0  0
    5.5572    3.5906    4.3923 H   0  0  0  0  0  0  0  0  0  0  0  0
    4.4270    4.9544    4.6337 H   0  0  0  0  0  0  0  0  0  0  0  0
    5.1200    4.6539    3.0203 H   0  0  0  0  0  0  0  0  0  0  0  0
    1.9114   -1.4415    3.4351 H   0  0  0  0  0  0  0  0  0  0  0  0
    3.6550   -1.1451    3.3140 H   0  0  0  0  0  0  0  0  0  0  0  0
    4.8441   -3.1331    2.9469 H   0  0  0  0  0  0  0  0  0  0  0  0
    5.1826   -5.2783    1.7363 H   0  0  0  0  0  0  0  0  0  0  0  0
    3.4764   -6.0692    0.0970 H   0  0  0  0  0  0  0  0  0  0  0  0
    1.4259   -4.7066   -0.3067 H   0  0  0  0  0  0  0  0  0  0  0  0
    1.0951   -2.5628    0.9095 H   0  0  0  0  0  0  0  0  0  0  0  0
  1  2  2  0
  2  3  1  0
  2  6  1  0
  3  4  1  0
  3 22  1  0
  4  5  1  6
  4  6  1  0
  4  9  1  0
  6  7  1  6
  6  8  1  0
  8 29  1  0
  9 10  1  6
  9 11  1  0
  9 14  1  0
 11 12  1  0
 11 15  1  0
 12 13  1  0
 12 30  1  0
 12 31  1  0
 13 14  1  0
 13 32  1  0
 13 33  1  0
 14 34  1  0
 14 35  1  0
 15 16  2  0
 15 17  1  0
 18 17  1  0
 18 19  1  0
 18 20  1  0
 18 21  1  0
 19 36  1  0
 19 37  1  0
 19 38  1  0
 20 39  1  0
 20 40  1  0
 20 41  1  0
 21 42  1  0
 21 43  1  0
 21 44  1  0
 22 23  1  0
 22 45  1  0
 22 46  1  0
 23 24  2  0
 23 28  1  0
 24 25  1  0
 24 47  1  0
 25 26  2  0
 25 48  1  0
 26 27  1  0
 26 49  1  0
 27 28  2  0
 27 50  1  0
 28 51  1  0
M  END

