rmsd183.gzmat
 OpenBabel08211713403D

 51 53  0  0  1  0  0  0  0  0999 V2000
    0.0000    0.0000    0.0000 O   0  0  0  0  0  0  0  0  0  0  0  0
    1.1904    0.0000    0.0000 C   0  0  0  0  0  0  0  0  0  0  0  0
    2.1250    0.0000    1.0486 N   0  0  0  0  0  0  0  0  0  0  0  0
    3.3286   -0.1344    0.1668 C   0  0  1  0  0  0  0  0  0  0  0  0
    3.7964   -1.1392    0.2118 H   0  0  0  0  0  0  0  0  0  0  0  0
    2.3472    0.0549   -1.0623 C   0  0  2  0  0  0  0  0  0  0  0  0
    2.3416   -0.7367   -1.8222 H   0  0  0  0  0  0  0  0  0  0  0  0
    2.4626    1.2418   -1.7552 O   0  0  0  0  0  0  0  0  0  0  0  0
    4.3696    0.9698    0.3999 C   0  0  1  0  0  0  0  0  0  0  0  0
    3.8589    1.9115    0.7247 H   0  0  0  0  0  0  0  0  0  0  0  0
    5.3107    0.4957    1.4430 N   0  0  0  0  0  0  0  0  0  0  0  0
    6.6050    0.1316    0.8228 C   0  0  0  0  0  0  0  0  0  0  0  0
    6.6787    0.9222   -0.4966 C   0  0  0  0  0  0  0  0  0  0  0  0
    5.2175    1.2105   -0.8774 C   0  0  0  0  0  0  0  0  0  0  0  0
    5.3722    1.1331    2.6817 C   0  0  0  0  0  0  0  0  0  0  0  0
    6.3042    1.0258    3.4495 O   0  0  0  0  0  0  0  0  0  0  0  0
    4.2152    1.7875    2.9329 O   0  0  0  0  0  0  0  0  0  0  0  0
    4.0064    2.4004    4.2287 C   0  0  0  0  0  0  0  0  0  0  0  0
    2.5870    2.9518    4.0517 C   0  0  0  0  0  0  0  0  0  0  0  0
    4.0721    1.3384    5.3183 C   0  0  0  0  0  0  0  0  0  0  0  0
    5.0310    3.5113    4.4220 C   0  0  0  0  0  0  0  0  0  0  0  0
    2.0026   -0.5671    2.3762 C   0  0  0  0  0  0  0  0  0  0  0  0
    2.2739   -2.0507    2.3836 C   0  0  0  0  0  0  0  0  0  0  0  0
    3.5579   -2.5185    2.6626 C   0  0  0  0  0  0  0  0  0  0  0  0
    3.8163   -3.8873    2.6476 C   0  0  0  0  0  0  0  0  0  0  0  0
    2.7939   -4.7870    2.3500 C   0  0  0  0  0  0  0  0  0  0  0  0
    1.5117   -4.3180    2.0677 C   0  0  0  0  0  0  0  0  0  0  0  0
    1.2496   -2.9500    2.0869 C   0  0  0  0  0  0  0  0  0  0  0  0
    2.3656    2.0173   -1.1549 H   0  0  0  0  0  0  0  0  0  0  0  0
    7.4597    0.3421    1.4993 H   0  0  0  0  0  0  0  0  0  0  0  0
    6.5934   -0.9659    0.6423 H   0  0  0  0  0  0  0  0  0  0  0  0
    7.2446    1.8601   -0.3631 H   0  0  0  0  0  0  0  0  0  0  0  0
    7.2030    0.3554   -1.2813 H   0  0  0  0  0  0  0  0  0  0  0  0
    5.0905    2.2412   -1.2444 H   0  0  0  0  0  0  0  0  0  0  0  0
    4.8895    0.5601   -1.7076 H   0  0  0  0  0  0  0  0  0  0  0  0
    2.5423    3.6866    3.2393 H   0  0  0  0  0  0  0  0  0  0  0  0
    2.2393    3.4367    4.9688 H   0  0  0  0  0  0  0  0  0  0  0  0
    1.8784    2.1532    3.7958 H   0  0  0  0  0  0  0  0  0  0  0  0
    5.0904    0.9327    5.4251 H   0  0  0  0  0  0  0  0  0  0  0  0
    3.4118    0.4914    5.1006 H   0  0  0  0  0  0  0  0  0  0  0  0
    3.7828    1.7494    6.2909 H   0  0  0  0  0  0  0  0  0  0  0  0
    6.0477    3.1036    4.5333 H   0  0  0  0  0  0  0  0  0  0  0  0
    4.8168    4.1032    5.3173 H   0  0  0  0  0  0  0  0  0  0  0  0
    5.0482    4.1919    3.5633 H   0  0  0  0  0  0  0  0  0  0  0  0
    0.9781   -0.3418    2.7622 H   0  0  0  0  0  0  0  0  0  0  0  0
    2.7199   -0.0271    3.0484 H   0  0  0  0  0  0  0  0  0  0  0  0
    4.3604   -1.8142    2.8865 H   0  0  0  0  0  0  0  0  0  0  0  0
    4.8163   -4.2538    2.8703 H   0  0  0  0  0  0  0  0  0  0  0  0
    2.9955   -5.8559    2.3389 H   0  0  0  0  0  0  0  0  0  0  0  0
    0.7151   -5.0210    1.8323 H   0  0  0  0  0  0  0  0  0  0  0  0
    0.2477   -2.5827    1.8651 H   0  0  0  0  0  0  0  0  0  0  0  0
  2  1  2  0  0  0  0
  2  3  1  0  0  0  0
  3 22  1  0  0  0  0
  4  6  1  0  0  0  0
  4  5  1  1  0  0  0
  4  9  1  0  0  0  0
  4  3  1  0  0  0  0
  6  7  1  6  0  0  0
  6  2  1  0  0  0  0
  8 29  1  0  0  0  0
  8  6  1  0  0  0  0
  9 10  1  1  0  0  0
  9 11  1  0  0  0  0
 11 15  1  0  0  0  0
 12 11  1  0  0  0  0
 12 30  1  0  0  0  0
 13 32  1  0  0  0  0
 13 12  1  0  0  0  0
 14 13  1  0  0  0  0
 14  9  1  0  0  0  0
 15 17  1  0  0  0  0
 15 16  2  0  0  0  0
 17 18  1  0  0  0  0
 18 21  1  0  0  0  0
 18 20  1  0  0  0  0
 19 18  1  0  0  0  0
 19 37  1  0  0  0  0
 20 39  1  0  0  0  0
 20 41  1  0  0  0  0
 21 42  1  0  0  0  0
 21 43  1  0  0  0  0
 22 23  1  0  0  0  0
 22 45  1  0  0  0  0
 22 46  1  0  0  0  0
 23 24  2  0  0  0  0
 24 47  1  0  0  0  0
 25 24  1  0  0  0  0
 25 48  1  0  0  0  0
 26 25  2  0  0  0  0
 27 28  2  0  0  0  0
 27 26  1  0  0  0  0
 28 23  1  0  0  0  0
 31 12  1  0  0  0  0
 33 13  1  0  0  0  0
 34 14  1  0  0  0  0
 35 14  1  0  0  0  0
 36 19  1  0  0  0  0
 38 19  1  0  0  0  0
 40 20  1  0  0  0  0
 44 21  1  0  0  0  0
 49 26  1  0  0  0  0
 50 27  1  0  0  0  0
 51 28  1  0  0  0  0
M  END
$$$$
