45
rmsd149.gzmat
S          0.00000        0.00000        0.00000
C          1.81140        0.00000        0.00000
O          2.52880        0.00000        0.97520
N          2.28560        0.00410       -1.29730
C          1.32820       -0.18830       -2.33910
O          1.67370       -0.18100       -3.48390
C         -0.06830       -0.42380       -1.80050
H         -0.79250        0.26470       -2.30920
C         -0.47880       -1.88060       -2.02780
C          0.36070       -2.83240       -1.23040
C         -0.07950       -3.28870        0.01150
C          0.72890       -4.11350        0.79260
C          1.97590       -4.48590        0.29860
O          2.87040       -5.30450        0.92320
C          2.77810       -5.48130        2.32380
C          3.79420       -4.54150        3.00030
N          3.40870       -3.12250        2.92580
C          4.01530       -2.35090        1.83590
C          2.34660       -2.65790        3.62860
N          1.84160       -1.39780        3.33920
H          2.19360       -0.86500        2.51730
C          0.83570       -0.84360        4.10310
C          0.28190       -1.52440        5.15700
C          0.75650       -2.82010        5.46650
C          1.76070       -3.37990        4.71940
C          2.41710       -4.08010       -0.97050
C          1.59660       -3.26160       -1.73040
H          3.28000        0.08260       -1.51240
H         -1.55960       -2.01910       -1.79760
H         -0.40840       -2.11780       -3.11900
H         -1.06870       -3.01230        0.38150
H          0.36080       -4.48010        1.74490
H          3.08620       -6.54540        2.44730
H          1.75530       -5.36780        2.71380
H          4.79150       -4.66490        2.50190
H          3.95410       -4.83770        4.06500
H          5.00090       -2.77920        1.56010
H          4.21150       -1.30130        2.13410
H          3.38770       -2.35890        0.92310
H          0.51770        0.17020        3.80660
H         -0.51480       -1.07670        5.75620
H          0.31460       -3.36620        6.31010
H          2.13880       -4.37310        4.96400
H          3.37830       -4.43010       -1.34800
H          1.91800       -2.95480       -2.73040
