45
rmsd151.gzmat
S          0.00000        0.00000        0.00000
C          1.80480        0.00000        0.00000
O          2.53120        0.00000        0.96500
N          2.28570       -0.01570       -1.30200
C          1.32950       -0.13670       -2.35170
O          1.69030       -0.14990       -3.49310
C         -0.08350       -0.27480       -1.82950
H         -0.73010        0.52280       -2.28390
C         -0.63860       -1.65640       -2.18010
C         -0.02120       -2.74880       -1.36060
C         -0.74490       -3.32150       -0.30820
C         -0.17440       -4.30930        0.48170
C          1.13480       -4.72360        0.20120
O          1.55200       -5.74170        1.01160
C          2.93760       -5.88780        1.25990
C          3.21420       -5.33690        2.67180
N          3.15180       -3.86800        2.72640
C          1.84400       -3.28220        3.03990
C          4.16810       -3.11100        2.24100
N          4.01550       -1.73200        2.21810
H          3.10330       -1.29740        2.42940
C          5.03740       -0.90770        1.79350
C          6.24730       -1.42300        1.40050
C          6.43820       -2.82240        1.41210
C          5.42250       -3.65270        1.81800
C          1.86280       -4.18760       -0.85790
C          1.26640       -3.20440       -1.64460
H          3.27870        0.04040       -1.51420
H         -1.74790       -1.66010       -2.07090
H         -0.47790       -1.85500       -3.27030
H         -1.76790       -2.99630       -0.10450
H         -0.73270       -4.78120        1.28840
H          3.57570       -5.42930        0.48940
H          3.07930       -6.99170        1.23060
H          4.20120       -5.69380        3.05070
H          2.45500       -5.75140        3.38580
H          1.11370       -4.07450        3.31240
H          1.40050       -2.75150        2.17390
H          1.91630       -2.59890        3.90870
H          4.80350        0.17360        1.79470
H          7.05680       -0.76200        1.07920
H          7.40350       -3.23640        1.09120
H          5.56760       -4.73350        1.82450
H          2.85710       -4.54790       -1.10510
H          1.81420       -2.80320       -2.50080
