rmsd127.gzmat
 OpenBabel08211713363D

 45 47  0  0  1  0  0  0  0  0999 V2000
    0.0000    0.0000    0.0000 S   0  0  0  0  0  0  0  0  0  0  0  0
    1.8124    0.0000    0.0000 C   0  0  0  0  0  0  0  0  0  0  0  0
    2.5297    0.0000    0.9754 O   0  0  0  0  0  0  0  0  0  0  0  0
    2.2855    0.0032   -1.2977 N   0  0  0  0  0  0  0  0  0  0  0  0
    1.3274   -0.1962   -2.3378 C   0  0  0  0  0  0  0  0  0  0  0  0
    1.6708   -0.1940   -3.4836 O   0  0  0  0  0  0  0  0  0  0  0  0
   -0.0675   -0.4373   -1.7969 C   0  0  1  0  0  0  0  0  0  0  0  0
   -0.7984    0.2413   -2.3098 H   0  0  0  0  0  0  0  0  0  0  0  0
   -0.4643   -1.8997   -2.0144 C   0  0  0  0  0  0  0  0  0  0  0  0
    0.4087   -2.8397   -1.2396 C   0  0  0  0  0  0  0  0  0  0  0  0
    0.0157   -3.2899    0.0195 C   0  0  0  0  0  0  0  0  0  0  0  0
    0.8606   -4.0965    0.7815 C   0  0  0  0  0  0  0  0  0  0  0  0
    2.0924   -4.4641    0.2478 C   0  0  0  0  0  0  0  0  0  0  0  0
    3.0247   -5.2556    0.8499 O   0  0  0  0  0  0  0  0  0  0  0  0
    2.9224   -5.5087    2.2375 C   0  0  0  0  0  0  0  0  0  0  0  0
    3.8515   -4.5348    2.9868 C   0  0  0  0  0  0  0  0  0  0  0  0
    3.4107   -3.1326    2.9079 N   0  0  0  0  0  0  0  0  0  0  0  0
    4.0615   -2.3116    1.8809 C   0  0  0  0  0  0  0  0  0  0  0  0
    2.2865   -2.7244    3.5448 C   0  0  0  0  0  0  0  0  0  0  0  0
    1.7773   -1.4619    3.2724 N   0  0  0  0  0  0  0  0  0  0  0  0
    2.1774   -0.8877    2.5016 H   0  0  0  0  0  0  0  0  0  0  0  0
    0.6955   -0.9669    3.9699 C   0  0  0  0  0  0  0  0  0  0  0  0
    0.0693   -1.7097    4.9376 C   0  0  0  0  0  0  0  0  0  0  0  0
    0.5493   -3.0079    5.2286 C   0  0  0  0  0  0  0  0  0  0  0  0
    1.6308   -3.5082    4.5504 C   0  0  0  0  0  0  0  0  0  0  0  0
    2.4851   -4.0669   -1.0408 C   0  0  0  0  0  0  0  0  0  0  0  0
    1.6323   -3.2613   -1.7776 C   0  0  0  0  0  0  0  0  0  0  0  0
    3.2799    0.0797   -1.5142 H   0  0  0  0  0  0  0  0  0  0  0  0
   -1.5368   -2.0523   -1.7569 H   0  0  0  0  0  0  0  0  0  0  0  0
   -0.4178   -2.1349   -3.1073 H   0  0  0  0  0  0  0  0  0  0  0  0
   -0.9643   -3.0238    0.4196 H   0  0  0  0  0  0  0  0  0  0  0  0
    0.5307   -4.4505    1.7520 H   0  0  0  0  0  0  0  0  0  0  0  0
    3.3077   -6.5521    2.3144 H   0  0  0  0  0  0  0  0  0  0  0  0
    1.8859   -5.4952    2.6077 H   0  0  0  0  0  0  0  0  0  0  0  0
    4.8822   -4.6072    2.5508 H   0  0  0  0  0  0  0  0  0  0  0  0
    3.9571   -4.8390    4.0562 H   0  0  0  0  0  0  0  0  0  0  0  0
    5.0786   -2.6964    1.6627 H   0  0  0  0  0  0  0  0  0  0  0  0
    4.1971   -1.2633    2.2158 H   0  0  0  0  0  0  0  0  0  0  0  0
    3.4973   -2.3194    0.9270 H   0  0  0  0  0  0  0  0  0  0  0  0
    0.3801    0.0536    3.6946 H   0  0  0  0  0  0  0  0  0  0  0  0
   -0.7883   -1.3088    5.4832 H   0  0  0  0  0  0  0  0  0  0  0  0
    0.0487   -3.6038    6.0028 H   0  0  0  0  0  0  0  0  0  0  0  0
    2.0130   -4.5024    4.7847 H   0  0  0  0  0  0  0  0  0  0  0  0
    3.4356   -4.4124   -1.4487 H   0  0  0  0  0  0  0  0  0  0  0  0
    1.9178   -2.9564   -2.7894 H   0  0  0  0  0  0  0  0  0  0  0  0
  1  2  1  0  0  0  0
  2  3  2  0  0  0  0
  4  2  1  0  0  0  0
  5  7  1  0  0  0  0
  5  4  1  0  0  0  0
  6  5  2  0  0  0  0
  7  8  1  6  0  0  0
  7  1  1  0  0  0  0
  9  7  1  0  0  0  0
  9 29  1  0  0  0  0
  9 10  1  0  0  0  0
 10 11  1  0  0  0  0
 11 31  1  0  0  0  0
 11 12  2  0  0  0  0
 12 32  1  0  0  0  0
 13 12  1  0  0  0  0
 13 14  1  0  0  0  0
 14 15  1  0  0  0  0
 15 33  1  0  0  0  0
 15 34  1  0  0  0  0
 15 16  1  0  0  0  0
 16 36  1  0  0  0  0
 17 16  1  0  0  0  0
 17 19  1  0  0  0  0
 18 38  1  0  0  0  0
 18 17  1  0  0  0  0
 19 25  2  0  0  0  0
 20 19  1  0  0  0  0
 20 22  1  0  0  0  0
 21 20  1  0  0  0  0
 22 23  1  0  0  0  0
 23 24  2  0  0  0  0
 23 41  1  0  0  0  0
 24 42  1  0  0  0  0
 25 43  1  0  0  0  0
 25 24  1  0  0  0  0
 26 13  2  0  0  0  0
 27 10  2  0  0  0  0
 27 26  1  0  0  0  0
 28  4  1  0  0  0  0
 30  9  1  0  0  0  0
 35 16  1  0  0  0  0
 37 18  1  0  0  0  0
 39 18  1  0  0  0  0
 40 22  1  0  0  0  0
 44 26  1  0  0  0  0
 45 27  1  0  0  0  0
M  END
$$$$
