rmsd151.gzmat
 OpenBabel08211713363D

 45 46  0  0  0  0  0  0  0  0999 V2000
    0.0000    0.0000    0.0000 S   0  0  0  0  0  0  0  0  0  0  0  0
    1.8048    0.0000    0.0000 C   0  0  0  0  0  0  0  0  0  0  0  0
    2.5312    0.0000    0.9650 O   0  0  0  0  0  0  0  0  0  0  0  0
    2.2857   -0.0157   -1.3020 N   0  0  0  0  0  0  0  0  0  0  0  0
    1.3295   -0.1367   -2.3517 C   0  0  0  0  0  0  0  0  0  0  0  0
    1.6903   -0.1499   -3.4931 O   0  0  0  0  0  0  0  0  0  0  0  0
   -0.0835   -0.2748   -1.8295 C   0  0  0  0  0  0  0  0  0  0  0  0
   -0.7301    0.5228   -2.2839 H   0  0  0  0  0  0  0  0  0  0  0  0
   -0.6386   -1.6564   -2.1801 C   0  0  0  0  0  0  0  0  0  0  0  0
   -0.0212   -2.7488   -1.3606 C   0  0  0  0  0  0  0  0  0  0  0  0
   -0.7449   -3.3215   -0.3082 C   0  0  0  0  0  0  0  0  0  0  0  0
   -0.1744   -4.3093    0.4817 C   0  0  0  0  0  0  0  0  0  0  0  0
    1.1348   -4.7236    0.2012 C   0  0  0  0  0  0  0  0  0  0  0  0
    1.5520   -5.7417    1.0116 O   0  0  0  0  0  0  0  0  0  0  0  0
    2.9376   -5.8878    1.2599 C   0  0  0  0  0  0  0  0  0  0  0  0
    3.2142   -5.3369    2.6718 C   0  0  0  0  0  0  0  0  0  0  0  0
    3.1518   -3.8680    2.7264 N   0  0  0  0  0  0  0  0  0  0  0  0
    1.8440   -3.2822    3.0399 C   0  0  0  0  0  0  0  0  0  0  0  0
    4.1681   -3.1110    2.2410 C   0  0  0  0  0  0  0  0  0  0  0  0
    4.0155   -1.7320    2.2181 N   0  0  0  0  0  0  0  0  0  0  0  0
    3.1033   -1.2974    2.4294 H   0  0  0  0  0  0  0  0  0  0  0  0
    5.0374   -0.9077    1.7935 C   0  0  0  0  0  0  0  0  0  0  0  0
    6.2473   -1.4230    1.4005 C   0  0  0  0  0  0  0  0  0  0  0  0
    6.4382   -2.8224    1.4121 C   0  0  0  0  0  0  0  0  0  0  0  0
    5.4225   -3.6527    1.8180 C   0  0  0  0  0  0  0  0  0  0  0  0
    1.8628   -4.1876   -0.8579 C   0  0  0  0  0  0  0  0  0  0  0  0
    1.2664   -3.2044   -1.6446 C   0  0  0  0  0  0  0  0  0  0  0  0
    3.2787    0.0404   -1.5142 H   0  0  0  0  0  0  0  0  0  0  0  0
   -1.7479   -1.6601   -2.0709 H   0  0  0  0  0  0  0  0  0  0  0  0
   -0.4779   -1.8550   -3.2703 H   0  0  0  0  0  0  0  0  0  0  0  0
   -1.7679   -2.9963   -0.1045 H   0  0  0  0  0  0  0  0  0  0  0  0
   -0.7327   -4.7812    1.2884 H   0  0  0  0  0  0  0  0  0  0  0  0
    3.5757   -5.4293    0.4894 H   0  0  0  0  0  0  0  0  0  0  0  0
    3.0793   -6.9917    1.2306 H   0  0  0  0  0  0  0  0  0  0  0  0
    4.2012   -5.6938    3.0507 H   0  0  0  0  0  0  0  0  0  0  0  0
    2.4550   -5.7514    3.3858 H   0  0  0  0  0  0  0  0  0  0  0  0
    1.1137   -4.0745    3.3124 H   0  0  0  0  0  0  0  0  0  0  0  0
    1.4005   -2.7515    2.1739 H   0  0  0  0  0  0  0  0  0  0  0  0
    1.9163   -2.5989    3.9087 H   0  0  0  0  0  0  0  0  0  0  0  0
    4.8035    0.1736    1.7947 H   0  0  0  0  0  0  0  0  0  0  0  0
    7.0568   -0.7620    1.0792 H   0  0  0  0  0  0  0  0  0  0  0  0
    7.4035   -3.2364    1.0912 H   0  0  0  0  0  0  0  0  0  0  0  0
    5.5676   -4.7335    1.8245 H   0  0  0  0  0  0  0  0  0  0  0  0
    2.8571   -4.5479   -1.1051 H   0  0  0  0  0  0  0  0  0  0  0  0
    1.8142   -2.8032   -2.5008 H   0  0  0  0  0  0  0  0  0  0  0  0
  1  2  1  0  0  0  0
  2  3  2  0  0  0  0
  4  2  1  0  0  0  0
  5  7  1  0  0  0  0
  5  4  1  0  0  0  0
  6  5  2  0  0  0  0
  8  7  1  0  0  0  0
  9 29  1  0  0  0  0
  9  7  1  0  0  0  0
  9 10  1  0  0  0  0
 10 11  1  0  0  0  0
 11 31  1  0  0  0  0
 11 12  2  0  0  0  0
 12 32  1  0  0  0  0
 13 12  1  0  0  0  0
 13 14  1  0  0  0  0
 14 15  1  0  0  0  0
 15 16  1  0  0  0  0
 16 17  1  0  0  0  0
 16 35  1  0  0  0  0
 16 36  1  0  0  0  0
 17 18  1  0  0  0  0
 18 37  1  0  0  0  0
 18 39  1  0  0  0  0
 19 17  1  0  0  0  0
 20 19  1  0  0  0  0
 20 21  1  0  0  0  0
 22 40  1  0  0  0  0
 22 20  1  0  0  0  0
 23 24  1  0  0  0  0
 23 22  2  0  0  0  0
 24 25  1  0  0  0  0
 25 43  1  0  0  0  0
 25 19  2  0  0  0  0
 26 13  2  0  0  0  0
 27 10  2  0  0  0  0
 27 26  1  0  0  0  0
 28  4  1  0  0  0  0
 30  9  1  0  0  0  0
 33 15  1  0  0  0  0
 34 15  1  0  0  0  0
 38 18  1  0  0  0  0
 41 23  1  0  0  0  0
 42 24  1  0  0  0  0
 44 26  1  0  0  0  0
 45 27  1  0  0  0  0
M  RAD  2   1   2   7   2
M  END
$$$$
