45
rmsd249.gzmat
S          0.00000        0.00000        0.00000
C          1.81530        0.00000        0.00000
O          2.54150        0.00000        0.96090
N          2.27560       -0.00230       -1.31210
C          1.31300       -0.20370       -2.34130
O          1.64600       -0.19150       -3.49150
C         -0.07100       -0.47780       -1.78800
H         -0.82900        0.15970       -2.31020
C         -0.41020       -1.96360       -1.97060
C          0.52550       -2.81440       -1.16760
C          0.18000       -3.20130        0.13380
C          1.13480       -3.75990        0.97140
C          2.43170       -3.94180        0.47320
O          3.31700       -4.28340        1.46050
C          4.65710       -4.57400        1.11330
C          5.44700       -3.27060        0.90000
N          5.93580       -2.69560        2.15870
C          7.31300       -3.03160        2.53880
C          5.23590       -1.78050        2.88390
N          3.86070       -1.71410        2.71730
H          3.39670       -2.36690        2.07040
C          3.10880       -0.76840        3.37880
C          3.69140        0.09370        4.27880
C          5.08040        0.02090        4.50680
C          5.84390       -0.89930        3.82540
C          2.75500       -3.71030       -0.85910
C          1.78040       -3.14430       -1.68030
H          3.26210        0.09440       -1.53760
H         -1.47120       -2.15680       -1.69660
H         -0.35960       -2.22490       -3.05530
H         -0.83820       -3.05170        0.50140
H          0.89360       -4.05570        1.99090
H          4.70660       -5.23980        0.23120
H          5.00080       -5.14020        2.00610
H          4.82560       -2.52480        0.34730
H          6.32440       -3.46360        0.23040
H          7.59860       -4.01580        2.11860
H          7.41920       -3.11550        3.63760
H          8.02990       -2.27450        2.16550
H          2.03060       -0.75660        3.14160
H          3.08420        0.83490        4.80560
H          5.54710        0.71050        5.22260
H          6.92380       -0.93900        3.97600
H          3.72780       -3.95910       -1.27050
H          2.01760       -2.93610       -2.72760
