rmsd219.gzmat
 OpenBabel08211713363D

 45 47  0  0  1  0  0  0  0  0999 V2000
    0.0000    0.0000    0.0000 S   0  0  0  0  0  0  0  0  0  0  0  0
    1.8116    0.0000    0.0000 C   0  0  0  0  0  0  0  0  0  0  0  0
    2.5334    0.0000    0.9712 O   0  0  0  0  0  0  0  0  0  0  0  0
    2.2855   -0.0011   -1.2993 N   0  0  0  0  0  0  0  0  0  0  0  0
    1.3284   -0.1918   -2.3405 C   0  0  0  0  0  0  0  0  0  0  0  0
    1.6782   -0.2000   -3.4843 O   0  0  0  0  0  0  0  0  0  0  0  0
   -0.0712   -0.4119   -1.8039 C   0  0  1  0  0  0  0  0  0  0  0  0
   -0.7847    0.2905   -2.3100 H   0  0  0  0  0  0  0  0  0  0  0  0
   -0.5028   -1.8614   -2.0414 C   0  0  0  0  0  0  0  0  0  0  0  0
    0.2168   -2.8176   -1.1390 C   0  0  0  0  0  0  0  0  0  0  0  0
   -0.4219   -3.3263   -0.0013 C   0  0  0  0  0  0  0  0  0  0  0  0
    0.2642   -4.1470    0.8819 C   0  0  0  0  0  0  0  0  0  0  0  0
    1.6056   -4.4569    0.6124 C   0  0  0  0  0  0  0  0  0  0  0  0
    2.1592   -5.2504    1.5762 O   0  0  0  0  0  0  0  0  0  0  0  0
    3.5659   -5.4040    1.6157 C   0  0  0  0  0  0  0  0  0  0  0  0
    4.1148   -4.5432    2.7749 C   0  0  0  0  0  0  0  0  0  0  0  0
    3.5824   -3.1731    2.7718 N   0  0  0  0  0  0  0  0  0  0  0  0
    4.2223   -2.2463    1.8319 C   0  0  0  0  0  0  0  0  0  0  0  0
    2.3489   -2.9213    3.2906 C   0  0  0  0  0  0  0  0  0  0  0  0
    1.8107   -1.6522    3.1445 N   0  0  0  0  0  0  0  0  0  0  0  0
    2.2354   -0.9715    2.4854 H   0  0  0  0  0  0  0  0  0  0  0  0
    0.6387   -1.2991    3.7844 C   0  0  0  0  0  0  0  0  0  0  0  0
   -0.0410   -2.1901    4.5728 C   0  0  0  0  0  0  0  0  0  0  0  0
    0.4583   -3.5067    4.7121 C   0  0  0  0  0  0  0  0  0  0  0  0
    1.6199   -3.8686    4.0827 C   0  0  0  0  0  0  0  0  0  0  0  0
    2.2416   -4.0067   -0.5414 C   0  0  0  0  0  0  0  0  0  0  0  0
    1.5287   -3.1958   -1.4219 C   0  0  0  0  0  0  0  0  0  0  0  0
    3.2787    0.0844   -1.5151 H   0  0  0  0  0  0  0  0  0  0  0  0
   -1.6064   -1.9575   -1.9224 H   0  0  0  0  0  0  0  0  0  0  0  0
   -0.3278   -2.1313   -3.1136 H   0  0  0  0  0  0  0  0  0  0  0  0
   -1.4683   -3.0824    0.1962 H   0  0  0  0  0  0  0  0  0  0  0  0
   -0.2224   -4.5655    1.7603 H   0  0  0  0  0  0  0  0  0  0  0  0
    4.0613   -5.1801    0.6567 H   0  0  0  0  0  0  0  0  0  0  0  0
    3.6927   -6.4882    1.8316 H   0  0  0  0  0  0  0  0  0  0  0  0
    5.2314   -4.4939    2.7159 H   0  0  0  0  0  0  0  0  0  0  0  0
    3.8982   -5.0283    3.7571 H   0  0  0  0  0  0  0  0  0  0  0  0
    5.2540   -2.5761    1.6009 H   0  0  0  0  0  0  0  0  0  0  0  0
    4.3183   -1.2304    2.2672 H   0  0  0  0  0  0  0  0  0  0  0  0
    3.6701   -2.1733    0.8751 H   0  0  0  0  0  0  0  0  0  0  0  0
    0.3014   -0.2633    3.6175 H   0  0  0  0  0  0  0  0  0  0  0  0
   -0.9615   -1.8983    5.0838 H   0  0  0  0  0  0  0  0  0  0  0  0
   -0.0976   -4.2309    5.3214 H   0  0  0  0  0  0  0  0  0  0  0  0
    1.9877   -4.8962    4.1503 H   0  0  0  0  0  0  0  0  0  0  0  0
    3.2590   -4.3019   -0.7863 H   0  0  0  0  0  0  0  0  0  0  0  0
    2.0088   -2.8624   -2.3464 H   0  0  0  0  0  0  0  0  0  0  0  0
  1  2  1  0  0  0  0
  2  3  2  0  0  0  0
  4  2  1  0  0  0  0
  5  7  1  0  0  0  0
  5  4  1  0  0  0  0
  6  5  2  0  0  0  0
  7  8  1  6  0  0  0
  7  1  1  0  0  0  0
  9 29  1  0  0  0  0
  9  7  1  0  0  0  0
  9 10  1  0  0  0  0
 10 11  1  0  0  0  0
 11 31  1  0  0  0  0
 11 12  2  0  0  0  0
 12 32  1  0  0  0  0
 13 12  1  0  0  0  0
 13 14  1  0  0  0  0
 14 15  1  0  0  0  0
 15 34  1  0  0  0  0
 15 16  1  0  0  0  0
 16 36  1  0  0  0  0
 17 16  1  0  0  0  0
 17 19  1  0  0  0  0
 18 38  1  0  0  0  0
 18 17  1  0  0  0  0
 19 25  2  0  0  0  0
 20 19  1  0  0  0  0
 20 22  1  0  0  0  0
 21 20  1  0  0  0  0
 22 23  1  0  0  0  0
 23 24  2  0  0  0  0
 23 41  1  0  0  0  0
 24 42  1  0  0  0  0
 25 43  1  0  0  0  0
 25 24  1  0  0  0  0
 26 13  2  0  0  0  0
 27 10  2  0  0  0  0
 27 26  1  0  0  0  0
 28  4  1  0  0  0  0
 30  9  1  0  0  0  0
 33 15  1  0  0  0  0
 35 16  1  0  0  0  0
 37 18  1  0  0  0  0
 39 18  1  0  0  0  0
 40 22  1  0  0  0  0
 44 26  1  0  0  0  0
 45 27  1  0  0  0  0
M  END
$$$$
