45
rmsd49.gzmat
S          0.00000        0.00000        0.00000
C          1.81200        0.00000        0.00000
O          2.52980        0.00000        0.97470
N          2.28520        0.00180       -1.29800
C          1.32760       -0.19790       -2.33850
O          1.67270       -0.19920       -3.48370
C         -0.06810       -0.43480       -1.79820
H         -0.79610        0.24650       -2.31130
C         -0.46980       -1.89570       -2.01780
C          0.42920       -2.83850       -1.27680
C          0.07860       -3.29710       -0.00850
C          0.95360       -4.09950        0.72390
C          2.17190       -4.45330        0.15150
O          3.13490       -5.23080        0.72260
C          3.06020       -5.52050        2.10480
C          3.97250       -4.54050        2.86690
N          3.49490       -3.14870        2.82450
C          4.09930       -2.29730        1.79390
C          2.37560       -2.77890        3.49310
N          1.83750       -1.51940        3.26450
H          2.21190       -0.91750        2.50220
C          0.75870       -1.06500        3.99430
C          0.16680       -1.84420        4.95500
C          0.67570       -3.14080        5.20050
C          1.75310       -3.60200        4.48870
C          2.52030       -4.04900       -1.14770
C          1.63790       -3.24950       -1.85510
H          3.27970        0.07600       -1.51430
H         -1.53400       -2.05270       -1.73030
H         -0.45400       -2.12120       -3.11360
H         -0.89050       -3.03990        0.42290
H          0.65720       -4.45990        1.70270
H          3.47540       -6.55440        2.14890
H          2.02900       -5.54500        2.48870
H          5.00020       -4.57540        2.41920
H          4.10040       -4.86670        3.92700
H          5.10690       -2.67150        1.52080
H          4.24420       -1.25820        2.15130
H          3.49680       -2.28290        0.86420
H          0.41670       -0.04500        3.75000
H         -0.68740       -1.47430        5.52780
H          0.19810       -3.76850        5.96480
H          2.15630       -4.59600        4.68620
H          3.46160       -4.38360       -1.58490
H          1.88870       -2.93980       -2.87480
