45
rmsd127.gzmat
S          0.00000        0.00000        0.00000
C          1.81240        0.00000        0.00000
O          2.52970        0.00000        0.97540
N          2.28550        0.00320       -1.29770
C          1.32740       -0.19620       -2.33780
O          1.67080       -0.19400       -3.48360
C         -0.06750       -0.43730       -1.79690
H         -0.79840        0.24130       -2.30980
C         -0.46430       -1.89970       -2.01440
C          0.40870       -2.83970       -1.23960
C          0.01570       -3.28990        0.01950
C          0.86060       -4.09650        0.78150
C          2.09240       -4.46410        0.24780
O          3.02470       -5.25560        0.84990
C          2.92240       -5.50870        2.23750
C          3.85150       -4.53480        2.98680
N          3.41070       -3.13260        2.90790
C          4.06150       -2.31160        1.88090
C          2.28650       -2.72440        3.54480
N          1.77730       -1.46190        3.27240
H          2.17740       -0.88770        2.50160
C          0.69550       -0.96690        3.96990
C          0.06930       -1.70970        4.93760
C          0.54930       -3.00790        5.22860
C          1.63080       -3.50820        4.55040
C          2.48510       -4.06690       -1.04080
C          1.63230       -3.26130       -1.77760
H          3.27990        0.07970       -1.51420
H         -1.53680       -2.05230       -1.75690
H         -0.41780       -2.13490       -3.10730
H         -0.96430       -3.02380        0.41960
H          0.53070       -4.45050        1.75200
H          3.30770       -6.55210        2.31440
H          1.88590       -5.49520        2.60770
H          4.88220       -4.60720        2.55080
H          3.95710       -4.83900        4.05620
H          5.07860       -2.69640        1.66270
H          4.19710       -1.26330        2.21580
H          3.49730       -2.31940        0.92700
H          0.38010        0.05360        3.69460
H         -0.78830       -1.30880        5.48320
H          0.04870       -3.60380        6.00280
H          2.01300       -4.50240        4.78470
H          3.43560       -4.41240       -1.44870
H          1.91780       -2.95640       -2.78940
