rmsd49.gzmat
 OpenBabel08211713363D

 45 47  0  0  1  0  0  0  0  0999 V2000
    0.0000    0.0000    0.0000 S   0  0  0  0  0  0  0  0  0  0  0  0
    1.8120    0.0000    0.0000 C   0  0  0  0  0  0  0  0  0  0  0  0
    2.5298    0.0000    0.9747 O   0  0  0  0  0  0  0  0  0  0  0  0
    2.2852    0.0018   -1.2980 N   0  0  0  0  0  0  0  0  0  0  0  0
    1.3276   -0.1979   -2.3385 C   0  0  0  0  0  0  0  0  0  0  0  0
    1.6727   -0.1992   -3.4837 O   0  0  0  0  0  0  0  0  0  0  0  0
   -0.0681   -0.4348   -1.7982 C   0  0  1  0  0  0  0  0  0  0  0  0
   -0.7961    0.2465   -2.3113 H   0  0  0  0  0  0  0  0  0  0  0  0
   -0.4698   -1.8957   -2.0178 C   0  0  0  0  0  0  0  0  0  0  0  0
    0.4292   -2.8385   -1.2768 C   0  0  0  0  0  0  0  0  0  0  0  0
    0.0786   -3.2971   -0.0085 C   0  0  0  0  0  0  0  0  0  0  0  0
    0.9536   -4.0995    0.7239 C   0  0  0  0  0  0  0  0  0  0  0  0
    2.1719   -4.4533    0.1515 C   0  0  0  0  0  0  0  0  0  0  0  0
    3.1349   -5.2308    0.7226 O   0  0  0  0  0  0  0  0  0  0  0  0
    3.0602   -5.5205    2.1048 C   0  0  0  0  0  0  0  0  0  0  0  0
    3.9725   -4.5405    2.8669 C   0  0  0  0  0  0  0  0  0  0  0  0
    3.4949   -3.1487    2.8245 N   0  0  0  0  0  0  0  0  0  0  0  0
    4.0993   -2.2973    1.7939 C   0  0  0  0  0  0  0  0  0  0  0  0
    2.3756   -2.7789    3.4931 C   0  0  0  0  0  0  0  0  0  0  0  0
    1.8375   -1.5194    3.2645 N   0  0  0  0  0  0  0  0  0  0  0  0
    2.2119   -0.9175    2.5022 H   0  0  0  0  0  0  0  0  0  0  0  0
    0.7587   -1.0650    3.9943 C   0  0  0  0  0  0  0  0  0  0  0  0
    0.1668   -1.8442    4.9550 C   0  0  0  0  0  0  0  0  0  0  0  0
    0.6757   -3.1408    5.2005 C   0  0  0  0  0  0  0  0  0  0  0  0
    1.7531   -3.6020    4.4887 C   0  0  0  0  0  0  0  0  0  0  0  0
    2.5203   -4.0490   -1.1477 C   0  0  0  0  0  0  0  0  0  0  0  0
    1.6379   -3.2495   -1.8551 C   0  0  0  0  0  0  0  0  0  0  0  0
    3.2797    0.0760   -1.5143 H   0  0  0  0  0  0  0  0  0  0  0  0
   -1.5340   -2.0527   -1.7303 H   0  0  0  0  0  0  0  0  0  0  0  0
   -0.4540   -2.1212   -3.1136 H   0  0  0  0  0  0  0  0  0  0  0  0
   -0.8905   -3.0399    0.4229 H   0  0  0  0  0  0  0  0  0  0  0  0
    0.6572   -4.4599    1.7027 H   0  0  0  0  0  0  0  0  0  0  0  0
    3.4754   -6.5544    2.1489 H   0  0  0  0  0  0  0  0  0  0  0  0
    2.0290   -5.5450    2.4887 H   0  0  0  0  0  0  0  0  0  0  0  0
    5.0002   -4.5754    2.4192 H   0  0  0  0  0  0  0  0  0  0  0  0
    4.1004   -4.8667    3.9270 H   0  0  0  0  0  0  0  0  0  0  0  0
    5.1069   -2.6715    1.5208 H   0  0  0  0  0  0  0  0  0  0  0  0
    4.2442   -1.2582    2.1513 H   0  0  0  0  0  0  0  0  0  0  0  0
    3.4968   -2.2829    0.8642 H   0  0  0  0  0  0  0  0  0  0  0  0
    0.4167   -0.0450    3.7500 H   0  0  0  0  0  0  0  0  0  0  0  0
   -0.6874   -1.4743    5.5278 H   0  0  0  0  0  0  0  0  0  0  0  0
    0.1981   -3.7685    5.9648 H   0  0  0  0  0  0  0  0  0  0  0  0
    2.1563   -4.5960    4.6862 H   0  0  0  0  0  0  0  0  0  0  0  0
    3.4616   -4.3836   -1.5849 H   0  0  0  0  0  0  0  0  0  0  0  0
    1.8887   -2.9398   -2.8748 H   0  0  0  0  0  0  0  0  0  0  0  0
  1  2  1  0  0  0  0
  2  3  2  0  0  0  0
  4  2  1  0  0  0  0
  5  7  1  0  0  0  0
  5  4  1  0  0  0  0
  6  5  2  0  0  0  0
  7  8  1  6  0  0  0
  7  1  1  0  0  0  0
  9  7  1  0  0  0  0
  9 29  1  0  0  0  0
  9 10  1  0  0  0  0
 10 11  1  0  0  0  0
 11 31  1  0  0  0  0
 11 12  2  0  0  0  0
 12 32  1  0  0  0  0
 13 14  1  0  0  0  0
 13 12  1  0  0  0  0
 14 15  1  0  0  0  0
 15 33  1  0  0  0  0
 15 34  1  0  0  0  0
 15 16  1  0  0  0  0
 16 36  1  0  0  0  0
 17 16  1  0  0  0  0
 17 19  1  0  0  0  0
 18 38  1  0  0  0  0
 18 17  1  0  0  0  0
 19 25  2  0  0  0  0
 20 19  1  0  0  0  0
 20 22  1  0  0  0  0
 21 20  1  0  0  0  0
 22 23  1  0  0  0  0
 23 24  2  0  0  0  0
 23 41  1  0  0  0  0
 24 42  1  0  0  0  0
 25 43  1  0  0  0  0
 25 24  1  0  0  0  0
 26 13  2  0  0  0  0
 27 10  2  0  0  0  0
 27 26  1  0  0  0  0
 28  4  1  0  0  0  0
 30  9  1  0  0  0  0
 35 16  1  0  0  0  0
 37 18  1  0  0  0  0
 39 18  1  0  0  0  0
 40 22  1  0  0  0  0
 44 26  1  0  0  0  0
 45 27  1  0  0  0  0
M  END
$$$$
