rmsd229.gzmat
 OpenBabel08211713363D

 45 47  0  0  1  0  0  0  0  0999 V2000
    0.0000    0.0000    0.0000 S   0  0  0  0  0  0  0  0  0  0  0  0
    1.8120    0.0000    0.0000 C   0  0  0  0  0  0  0  0  0  0  0  0
    2.5324    0.0000    0.9722 O   0  0  0  0  0  0  0  0  0  0  0  0
    2.2851   -0.0034   -1.2990 N   0  0  0  0  0  0  0  0  0  0  0  0
    1.3275   -0.1965   -2.3397 C   0  0  0  0  0  0  0  0  0  0  0  0
    1.6760   -0.2025   -3.4841 O   0  0  0  0  0  0  0  0  0  0  0  0
   -0.0707   -0.4208   -1.8013 C   0  0  1  0  0  0  0  0  0  0  0  0
   -0.7874    0.2757   -2.3113 H   0  0  0  0  0  0  0  0  0  0  0  0
   -0.4975   -1.8733   -2.0285 C   0  0  0  0  0  0  0  0  0  0  0  0
    0.2323   -2.8241   -1.1285 C   0  0  0  0  0  0  0  0  0  0  0  0
   -0.4045   -3.3516    0.0014 C   0  0  0  0  0  0  0  0  0  0  0  0
    0.2882   -4.1707    0.8813 C   0  0  0  0  0  0  0  0  0  0  0  0
    1.6353   -4.4579    0.6176 C   0  0  0  0  0  0  0  0  0  0  0  0
    2.1969   -5.2578    1.5720 O   0  0  0  0  0  0  0  0  0  0  0  0
    3.6084   -5.3430    1.6473 C   0  0  0  0  0  0  0  0  0  0  0  0
    4.0764   -4.5054    2.8566 C   0  0  0  0  0  0  0  0  0  0  0  0
    3.5363   -3.1380    2.8422 N   0  0  0  0  0  0  0  0  0  0  0  0
    4.2121   -2.2020    1.9366 C   0  0  0  0  0  0  0  0  0  0  0  0
    2.2823   -2.8937    3.3128 C   0  0  0  0  0  0  0  0  0  0  0  0
    1.7368   -1.6316    3.1334 N   0  0  0  0  0  0  0  0  0  0  0  0
    2.1844   -0.9507    2.4897 H   0  0  0  0  0  0  0  0  0  0  0  0
    0.5323   -1.2886    3.7159 C   0  0  0  0  0  0  0  0  0  0  0  0
   -0.1724   -2.1827    4.4788 C   0  0  0  0  0  0  0  0  0  0  0  0
    0.3397   -3.4897    4.6574 C   0  0  0  0  0  0  0  0  0  0  0  0
    1.5332   -3.8415    4.0844 C   0  0  0  0  0  0  0  0  0  0  0  0
    2.2709   -3.9880   -0.5288 C   0  0  0  0  0  0  0  0  0  0  0  0
    1.5515   -3.1812   -1.4071 C   0  0  0  0  0  0  0  0  0  0  0  0
    3.2783    0.0821   -1.5153 H   0  0  0  0  0  0  0  0  0  0  0  0
   -1.5994   -1.9729   -1.8997 H   0  0  0  0  0  0  0  0  0  0  0  0
   -0.3305   -2.1471   -3.1006 H   0  0  0  0  0  0  0  0  0  0  0  0
   -1.4551   -3.1235    0.1960 H   0  0  0  0  0  0  0  0  0  0  0  0
   -0.1979   -4.6040    1.7529 H   0  0  0  0  0  0  0  0  0  0  0  0
    4.1193   -5.0510    0.7155 H   0  0  0  0  0  0  0  0  0  0  0  0
    3.7863   -6.4275    1.8207 H   0  0  0  0  0  0  0  0  0  0  0  0
    5.1941   -4.4482    2.8701 H   0  0  0  0  0  0  0  0  0  0  0  0
    3.8012   -5.0127    3.8124 H   0  0  0  0  0  0  0  0  0  0  0  0
    5.2519   -2.5304    1.7409 H   0  0  0  0  0  0  0  0  0  0  0  0
    4.2906   -1.1908    2.3865 H   0  0  0  0  0  0  0  0  0  0  0  0
    3.6976   -2.1185    0.9595 H   0  0  0  0  0  0  0  0  0  0  0  0
    0.1903   -0.2580    3.5259 H   0  0  0  0  0  0  0  0  0  0  0  0
   -1.1203   -1.8991    4.9428 H   0  0  0  0  0  0  0  0  0  0  0  0
   -0.2307   -4.2151    5.2521 H   0  0  0  0  0  0  0  0  0  0  0  0
    1.9145   -4.8616    4.1844 H   0  0  0  0  0  0  0  0  0  0  0  0
    3.2940   -4.2666   -0.7704 H   0  0  0  0  0  0  0  0  0  0  0  0
    2.0316   -2.8351   -2.3271 H   0  0  0  0  0  0  0  0  0  0  0  0
  1  2  1  0  0  0  0
  2  3  2  0  0  0  0
  4  2  1  0  0  0  0
  5  7  1  0  0  0  0
  5  4  1  0  0  0  0
  6  5  2  0  0  0  0
  7  8  1  6  0  0  0
  7  1  1  0  0  0  0
  9 29  1  0  0  0  0
  9  7  1  0  0  0  0
  9 10  1  0  0  0  0
 10 11  1  0  0  0  0
 11 31  1  0  0  0  0
 11 12  2  0  0  0  0
 12 32  1  0  0  0  0
 13 12  1  0  0  0  0
 13 14  1  0  0  0  0
 14 15  1  0  0  0  0
 15 34  1  0  0  0  0
 15 16  1  0  0  0  0
 16 35  1  0  0  0  0
 16 36  1  0  0  0  0
 17 16  1  0  0  0  0
 17 19  1  0  0  0  0
 18 38  1  0  0  0  0
 18 17  1  0  0  0  0
 19 25  2  0  0  0  0
 20 19  1  0  0  0  0
 20 22  1  0  0  0  0
 21 20  1  0  0  0  0
 22 23  1  0  0  0  0
 23 24  2  0  0  0  0
 23 41  1  0  0  0  0
 24 42  1  0  0  0  0
 25 43  1  0  0  0  0
 25 24  1  0  0  0  0
 26 13  2  0  0  0  0
 27 10  2  0  0  0  0
 27 26  1  0  0  0  0
 28  4  1  0  0  0  0
 30  9  1  0  0  0  0
 33 15  1  0  0  0  0
 37 18  1  0  0  0  0
 39 18  1  0  0  0  0
 40 22  1  0  0  0  0
 44 26  1  0  0  0  0
 45 27  1  0  0  0  0
M  END
$$$$
