
     RDKit          3D

 47 48  0  0  0  0  0  0  0  0999 V2000
   -0.4427    0.2345    0.0878 O   0  0  0  0  0  0  0  0  0  0  0  0
    1.1862    0.1737   -0.0852 S   0  0  0  0  0  0  0  0  0  0  0  0
    1.7261    0.2571    1.2614 O   0  0  0  0  0  0  0  0  0  0  0  0
    1.4589   -0.9943   -0.9240 O   0  0  0  0  0  0  0  0  0  0  0  0
    1.5617    1.4783   -0.9869 N   0  0  0  0  0  0  0  0  0  0  0  0
    1.2176    2.8044   -0.6073 C   0  0  0  0  0  0  0  0  0  0  0  0
    1.5647    3.2960    0.6559 C   0  0  0  0  0  0  0  0  0  0  0  0
    1.2318    4.6114    0.9862 C   0  0  0  0  0  0  0  0  0  0  0  0
    0.5880    5.4328    0.0629 C   0  0  0  0  0  0  0  0  0  0  0  0
    0.2403    4.9442   -1.2061 C   0  0  0  0  0  0  0  0  0  0  0  0
    0.5460    3.6195   -1.5312 C   0  0  0  0  0  0  0  0  0  0  0  0
   -0.4934    5.8689   -2.1584 C   0  0  0  0  0  0  0  0  0  0  0  0
   -0.6122    5.3875   -3.5142 N   0  0  0  0  0  0  0  0  0  0  0  0
   -1.8263    5.1845   -4.1065 C   0  0  0  0  0  0  0  0  0  0  0  0
   -2.8851    5.3857   -3.5325 O   0  0  0  0  0  0  0  0  0  0  0  0
   -1.7852    4.6613   -5.5354 C   0  0  0  0  0  0  0  0  0  0  0  0
   -2.6501    3.3941   -5.6640 C   0  0  0  0  0  0  0  0  0  0  0  0
   -2.1057    2.2631   -4.8242 C   0  0  0  0  0  0  0  0  0  0  0  0
   -1.1187    1.4162   -5.3433 C   0  0  0  0  0  0  0  0  0  0  0  0
   -0.5443    0.4126   -4.5556 C   0  0  0  0  0  0  0  0  0  0  0  0
    0.4549   -0.4291   -5.1025 N   0  0  0  0  0  0  0  0  0  0  0  0
    1.9764   -0.5160   -4.3968 S   0  0  0  0  0  0  0  0  0  0  0  0
    2.8822   -0.8666   -5.4693 O   0  0  0  0  0  0  0  0  0  0  0  0
    2.1961    0.6875   -3.5796 O   0  0  0  0  0  0  0  0  0  0  0  0
    1.8561   -1.7572   -3.4093 O   0  0  0  0  0  0  0  0  0  0  0  0
   -0.9532    0.2484   -3.2258 C   0  0  0  0  0  0  0  0  0  0  0  0
   -1.9148    1.1086   -2.6966 C   0  0  0  0  0  0  0  0  0  0  0  0
   -2.4934    2.1058   -3.4846 C   0  0  0  0  0  0  0  0  0  0  0  0
   -0.6262    0.3703    1.0332 H   0  0  0  0  0  0  0  0  0  0  0  0
    1.6880    1.2499   -1.9870 H   0  0  0  0  0  0  0  0  0  0  0  0
    2.0984    2.6565    1.3580 H   0  0  0  0  0  0  0  0  0  0  0  0
    1.5011    5.0027    1.9699 H   0  0  0  0  0  0  0  0  0  0  0  0
    0.3495    6.4669    0.3260 H   0  0  0  0  0  0  0  0  0  0  0  0
    0.2568    3.2059   -2.4983 H   0  0  0  0  0  0  0  0  0  0  0  0
   -0.0039    6.8591   -2.1422 H   0  0  0  0  0  0  0  0  0  0  0  0
   -1.5264    6.0199   -1.8081 H   0  0  0  0  0  0  0  0  0  0  0  0
    0.2294    5.1992   -4.0446 H   0  0  0  0  0  0  0  0  0  0  0  0
   -0.7523    4.4575   -5.8609 H   0  0  0  0  0  0  0  0  0  0  0  0
   -2.1915    5.4528   -6.1867 H   0  0  0  0  0  0  0  0  0  0  0  0
   -2.6968    3.0953   -6.7226 H   0  0  0  0  0  0  0  0  0  0  0  0
   -3.6700    3.6482   -5.3411 H   0  0  0  0  0  0  0  0  0  0  0  0
   -0.7811    1.5439   -6.3762 H   0  0  0  0  0  0  0  0  0  0  0  0
    0.5637   -0.4160   -6.1136 H   0  0  0  0  0  0  0  0  0  0  0  0
    1.7535   -1.4526   -2.4646 H   0  0  0  0  0  0  0  0  0  0  0  0
   -0.5255   -0.5453   -2.6145 H   0  0  0  0  0  0  0  0  0  0  0  0
   -2.2087    0.9914   -1.6528 H   0  0  0  0  0  0  0  0  0  0  0  0
   -3.2370    2.7831   -3.0614 H   0  0  0  0  0  0  0  0  0  0  0  0
  2  1  1  0
  1 29  1  0
  2  3  2  0
  2  4  2  0
  2  5  1  0
  5  6  1  0
  5 30  1  0
  6  7  2  0
  6 11  1  0
  7  8  1  0
  7 31  1  0
  8  9  2  0
  8 32  1  0
  9 10  1  0
  9 33  1  0
 10 11  2  0
 10 12  1  0
 11 34  1  0
 12 13  1  0
 12 35  1  0
 12 36  1  0
 13 14  1  0
 13 37  1  0
 14 15  2  0
 14 16  1  0
 16 17  1  0
 16 38  1  0
 16 39  1  0
 17 18  1  0
 17 40  1  0
 17 41  1  0
 18 19  2  0
 18 28  1  0
 19 20  1  0
 19 42  1  0
 20 21  1  0
 20 26  2  0
 21 22  1  0
 21 43  1  0
 22 23  2  0
 22 24  2  0
 22 25  1  0
 25 44  1  0
 26 27  1  0
 26 45  1  0
 27 28  2  0
 27 46  1  0
 28 47  1  0
M  END

