47
rmsd101.gzmat
O          0.00000        0.00000        0.00000
S          1.64200        0.00000        0.00000
O          2.09060        0.00000        1.35880
O          2.07580       -0.96510       -0.96510
N          1.83920        1.60850       -0.58580
C          1.69870        1.97560       -1.94530
C          2.28570        1.21710       -2.96850
C          2.21090        1.67150       -4.28160
C          1.55640        2.86310       -4.58690
C          0.95040        3.60140       -3.56960
C          1.01230        3.16370       -2.24980
C          0.20950        4.87080       -3.90660
N         -1.14940        4.55290       -4.36820
C         -1.54390        4.93900       -5.63770
O         -0.85360        5.67860       -6.30830
C         -2.90250        4.44970       -6.09830
C         -2.76320        3.07790       -6.77100
C         -2.36600        2.01810       -5.78670
C         -3.18570        1.74330       -4.69310
C         -2.78390        0.79350       -3.73980
N         -3.64570        0.54210       -2.64980
S         -3.08890        0.14800       -1.07000
O         -4.24950        0.17200       -0.23470
O         -2.18040       -0.98340       -1.11420
O         -2.13090        1.43730       -0.77600
C         -1.57650        0.09880       -3.90130
C         -0.78260        0.37150       -5.00960
C         -1.16510        1.32590       -5.95030
H         -0.52290       -0.76860       -0.36300
H          1.69820        2.36510        0.08430
H          2.80870        0.28130       -2.75200
H          2.67550        1.08850       -5.07920
H          1.50970        3.21550       -5.61700
H          0.52460        3.73260       -1.46180
H          0.75780        5.45190       -4.69510
H          0.13520        5.55090       -3.02460
H         -1.62040        3.81330       -3.86930
H         -3.31420        5.18650       -6.82470
H         -3.62600        4.41720       -5.26240
H         -2.02740        3.14780       -7.60370
H         -3.72370        2.80160       -7.25770
H         -4.13550        2.26010       -4.58460
H         -4.56510        0.98520       -2.71030
H         -1.20970        1.21360       -0.48740
H         -1.25650       -0.66980       -3.19440
H          0.15890       -0.16680       -5.13580
H         -0.52620        1.53550       -6.80490
