47

O          0.33030       -0.31950        0.27010
S          1.87870       -0.07180        0.40540
O          2.31640       -0.25350        1.80020
O          2.57340       -0.78340       -0.64140
N          1.88820        1.61900        0.14940
C          3.12870        2.29590       -0.05790
C          3.10900        3.49420       -0.78140
C          4.28080        4.24010       -0.91230
C          5.47290        3.79400       -0.34080
C          5.50150        2.58550        0.36590
C          4.32480        1.84500        0.51680
C          6.79970        2.06930        0.96690
N          7.65980        3.09280        1.52690
C          7.42530        3.87410        2.63330
O          8.20080        4.75570        2.95740
C          6.14810        3.61210        3.41540
C          5.18900        4.81710        3.32310
C          3.85480        4.50500        3.95330
C          2.90870        3.78230        3.21690
C          1.68940        3.39950        3.78260
N          0.76890        2.68940        2.96000
S         -0.09130        1.37810        3.50480
O         -0.91940        1.72970        4.63120
O         -0.71810        0.84060        2.27740
O          0.97980        0.31640        4.03700
C          1.39130        3.74640        5.10740
C          2.33760        4.45970        5.84460
C          3.55920        4.83900        5.28090
H         -0.15320        0.07120        1.08080
H          1.19140        1.83820       -0.56370
H          2.17480        3.85150       -1.22180
H          4.25850        5.18070       -1.46680
H          6.38370        4.38820       -0.43220
H          4.34090        0.92610        1.10340
H          7.37720        1.56190        0.17730
H          6.57100        1.29100        1.71320
H          8.52000        3.32640        1.04200
H          6.43690        3.46000        4.46690
H          5.62580        2.70480        3.08730
H          5.04090        5.07360        2.26190
H          5.66650        5.68370        3.80260
H          3.13310        3.50650        2.18640
H          1.08910        2.51160        2.00280
H          1.54200        0.01460        3.27120
H          0.43720        3.45990        5.54730
H          2.11030        4.72960        6.87860
H          4.28760        5.39780        5.87370
