
     RDKit          3D

 47 48  0  0  0  0  0  0  0  0999 V2000
    0.4827   -0.4318    0.0805 O   0  0  0  0  0  0  0  0  0  0  0  0
    1.9553    0.0398    0.4088 S   0  0  0  0  0  0  0  0  0  0  0  0
    2.2599   -0.1790    1.8377 O   0  0  0  0  0  0  0  0  0  0  0  0
    2.8595   -0.5282   -0.5637 O   0  0  0  0  0  0  0  0  0  0  0  0
    1.7345    1.6935    0.2182 N   0  0  0  0  0  0  0  0  0  0  0  0
    2.7888    2.6334    0.3315 C   0  0  0  0  0  0  0  0  0  0  0  0
    4.0031    2.3415    0.9717 C   0  0  0  0  0  0  0  0  0  0  0  0
    4.9587    3.3494    1.1017 C   0  0  0  0  0  0  0  0  0  0  0  0
    4.7106    4.6450    0.6393 C   0  0  0  0  0  0  0  0  0  0  0  0
    3.4952    4.9411    0.0107 C   0  0  0  0  0  0  0  0  0  0  0  0
    2.5531    3.9190   -0.1678 C   0  0  0  0  0  0  0  0  0  0  0  0
    3.0989    6.3679   -0.3160 C   0  0  0  0  0  0  0  0  0  0  0  0
    2.1688    6.8584    0.7042 N   0  0  0  0  0  0  0  0  0  0  0  0
    0.8418    6.5050    0.6333 C   0  0  0  0  0  0  0  0  0  0  0  0
    0.3047    6.1978   -0.4180 O   0  0  0  0  0  0  0  0  0  0  0  0
    0.1294    6.3855    1.9732 C   0  0  0  0  0  0  0  0  0  0  0  0
    0.7717    5.2218    2.7694 C   0  0  0  0  0  0  0  0  0  0  0  0
   -0.1382    4.5498    3.7675 C   0  0  0  0  0  0  0  0  0  0  0  0
   -0.4194    3.1869    3.6175 C   0  0  0  0  0  0  0  0  0  0  0  0
   -1.2269    2.5218    4.5493 C   0  0  0  0  0  0  0  0  0  0  0  0
   -1.5228    1.1444    4.4421 N   0  0  0  0  0  0  0  0  0  0  0  0
   -0.7395    0.0267    3.5196 S   0  0  0  0  0  0  0  0  0  0  0  0
   -1.2411   -1.2641    3.9403 O   0  0  0  0  0  0  0  0  0  0  0  0
   -0.8653    0.4240    2.0988 O   0  0  0  0  0  0  0  0  0  0  0  0
    0.7792    0.2423    3.9320 O   0  0  0  0  0  0  0  0  0  0  0  0
   -1.7781    3.2309    5.6251 C   0  0  0  0  0  0  0  0  0  0  0  0
   -1.5149    4.5942    5.7603 C   0  0  0  0  0  0  0  0  0  0  0  0
   -0.6966    5.2546    4.8434 C   0  0  0  0  0  0  0  0  0  0  0  0
   -0.1278   -0.1756    0.8465 H   0  0  0  0  0  0  0  0  0  0  0  0
    1.0528    1.8864   -0.5131 H   0  0  0  0  0  0  0  0  0  0  0  0
    4.2019    1.3456    1.3657 H   0  0  0  0  0  0  0  0  0  0  0  0
    5.9086    3.1179    1.5889 H   0  0  0  0  0  0  0  0  0  0  0  0
    5.4579    5.4302    0.7791 H   0  0  0  0  0  0  0  0  0  0  0  0
    1.6015    4.1497   -0.6510 H   0  0  0  0  0  0  0  0  0  0  0  0
    2.5781    6.4302   -1.2801 H   0  0  0  0  0  0  0  0  0  0  0  0
    3.9794    7.0254   -0.3513 H   0  0  0  0  0  0  0  0  0  0  0  0
    2.5597    6.9358    1.6371 H   0  0  0  0  0  0  0  0  0  0  0  0
   -0.9228    6.1665    1.7512 H   0  0  0  0  0  0  0  0  0  0  0  0
    0.1723    7.3279    2.5432 H   0  0  0  0  0  0  0  0  0  0  0  0
    1.6744    5.5838    3.2921 H   0  0  0  0  0  0  0  0  0  0  0  0
    1.1252    4.4597    2.0600 H   0  0  0  0  0  0  0  0  0  0  0  0
    0.0025    2.6466    2.7710 H   0  0  0  0  0  0  0  0  0  0  0  0
   -2.0313    0.7005    5.2010 H   0  0  0  0  0  0  0  0  0  0  0  0
    1.3835    0.0963    3.1344 H   0  0  0  0  0  0  0  0  0  0  0  0
   -2.4094    2.7147    6.3527 H   0  0  0  0  0  0  0  0  0  0  0  0
   -1.9487    5.1415    6.6003 H   0  0  0  0  0  0  0  0  0  0  0  0
   -0.4859    6.3194    4.9681 H   0  0  0  0  0  0  0  0  0  0  0  0
  2  1  1  0
  1 29  1  0
  2  3  2  0
  2  4  2  0
  2  5  1  0
  5  6  1  0
  5 30  1  0
  6  7  2  0
  6 11  1  0
  7  8  1  0
  7 31  1  0
  8  9  2  0
  8 32  1  0
  9 10  1  0
  9 33  1  0
 10 11  2  0
 10 12  1  0
 11 34  1  0
 12 13  1  0
 12 35  1  0
 12 36  1  0
 13 14  1  0
 13 37  1  0
 14 15  2  0
 14 16  1  0
 16 17  1  0
 16 38  1  0
 16 39  1  0
 17 18  1  0
 17 40  1  0
 17 41  1  0
 18 19  2  0
 18 28  1  0
 19 20  1  0
 19 42  1  0
 20 21  1  0
 20 26  2  0
 21 22  1  0
 21 43  1  0
 22 23  2  0
 22 24  2  0
 22 25  1  0
 25 44  1  0
 26 27  1  0
 26 45  1  0
 27 28  2  0
 27 46  1  0
 28 47  1  0
M  END

