rmsd2.gzmat
 OpenBabel08211713433D

 47 48  0  0  0  0  0  0  0  0999 V2000
    0.0000    0.0000    0.0000 O   0  0  0  0  0  0  0  0  0  0  0  0
    1.6374    0.0000    0.0000 S   0  0  0  0  0  0  0  0  0  0  0  0
    2.0455    0.0000    1.3938 O   0  0  0  0  0  0  0  0  0  0  0  0
    2.0602   -1.0371   -0.8877 O   0  0  0  0  0  0  0  0  0  0  0  0
    1.9156    1.5664   -0.6329 N   0  0  0  0  0  0  0  0  0  0  0  0
    3.0615    1.9367   -1.3830 C   0  0  0  0  0  0  0  0  0  0  0  0
    3.3918    3.3067   -1.3819 C   0  0  0  0  0  0  0  0  0  0  0  0
    4.4566    3.7629   -2.1443 C   0  0  0  0  0  0  0  0  0  0  0  0
    5.2209    2.8668   -2.8899 C   0  0  0  0  0  0  0  0  0  0  0  0
    4.9112    1.5079   -2.8610 C   0  0  0  0  0  0  0  0  0  0  0  0
    3.8238    1.0327   -2.1299 C   0  0  0  0  0  0  0  0  0  0  0  0
    5.8202    0.5420   -3.5770 C   0  0  0  0  0  0  0  0  0  0  0  0
    7.0794    0.4353   -2.8238 N   0  0  0  0  0  0  0  0  0  0  0  0
    7.5311   -0.8079   -2.4135 C   0  0  0  0  0  0  0  0  0  0  0  0
    7.0347   -1.8323   -2.8321 O   0  0  0  0  0  0  0  0  0  0  0  0
    8.7231   -0.7872   -1.4774 C   0  0  0  0  0  0  0  0  0  0  0  0
    8.2397   -0.7688   -0.0243 C   0  0  0  0  0  0  0  0  0  0  0  0
    7.5250    0.4932    0.3621 C   0  0  0  0  0  0  0  0  0  0  0  0
    6.2847    0.4026    0.9836 C   0  0  0  0  0  0  0  0  0  0  0  0
    5.6316    1.5680    1.4350 C   0  0  0  0  0  0  0  0  0  0  0  0
    4.4043    1.3995    2.0823 N   0  0  0  0  0  0  0  0  0  0  0  0
    3.3349    2.6232    2.6759 S   0  0  0  0  0  0  0  0  0  0  0  0
    4.0163    3.5348    3.5375 O   0  0  0  0  0  0  0  0  0  0  0  0
    2.5573    3.1187    1.5601 O   0  0  0  0  0  0  0  0  0  0  0  0
    2.3647    1.6182    3.5183 O   0  0  0  0  0  0  0  0  0  0  0  0
    6.2253    2.8235    1.2353 C   0  0  0  0  0  0  0  0  0  0  0  0
    7.4527    2.8949    0.5848 C   0  0  0  0  0  0  0  0  0  0  0  0
    8.1087    1.7457    0.1507 C   0  0  0  0  0  0  0  0  0  0  0  0
   -0.4491   -0.5718   -0.6436 H   0  0  0  0  0  0  0  0  0  0  0  0
    1.6028    2.3398   -0.0034 H   0  0  0  0  0  0  0  0  0  0  0  0
    2.8193    4.0040   -0.7655 H   0  0  0  0  0  0  0  0  0  0  0  0
    4.7037    4.8237   -2.1517 H   0  0  0  0  0  0  0  0  0  0  0  0
    6.0582    3.2263   -3.4823 H   0  0  0  0  0  0  0  0  0  0  0  0
    3.5991   -0.0362   -2.1542 H   0  0  0  0  0  0  0  0  0  0  0  0
    6.0509    0.8945   -4.6106 H   0  0  0  0  0  0  0  0  0  0  0  0
    5.3529   -0.4684   -3.6924 H   0  0  0  0  0  0  0  0  0  0  0  0
    7.3672    1.2696   -2.3266 H   0  0  0  0  0  0  0  0  0  0  0  0
    9.3972    0.0632   -1.6893 H   0  0  0  0  0  0  0  0  0  0  0  0
    9.3270   -1.7034   -1.6608 H   0  0  0  0  0  0  0  0  0  0  0  0
    9.1093   -0.9070    0.6574 H   0  0  0  0  0  0  0  0  0  0  0  0
    7.5924   -1.6580    0.1507 H   0  0  0  0  0  0  0  0  0  0  0  0
    5.8192   -0.5695    1.1291 H   0  0  0  0  0  0  0  0  0  0  0  0
    4.0294    0.4410    2.0854 H   0  0  0  0  0  0  0  0  0  0  0  0
    1.9203    0.9293    2.9570 H   0  0  0  0  0  0  0  0  0  0  0  0
    5.7585    3.7393    1.5909 H   0  0  0  0  0  0  0  0  0  0  0  0
    7.9125    3.8708    0.4233 H   0  0  0  0  0  0  0  0  0  0  0  0
    9.0810    1.8240   -0.3249 H   0  0  0  0  0  0  0  0  0  0  0  0
  1  2  1  0  0  0  0
  2  3  1  0  0  0  0
  4  2  1  0  0  0  0
  5 30  1  0  0  0  0
  5  2  1  0  0  0  0
  6  7  1  0  0  0  0
  6  5  1  0  0  0  0
  7 31  1  0  0  0  0
  8  7  2  0  0  0  0
  9 10  2  0  0  0  0
  9  8  1  0  0  0  0
 10 11  1  0  0  0  0
 11  6  2  0  0  0  0
 12 10  1  0  0  0  0
 12 13  1  0  0  0  0
 13 14  1  0  0  0  0
 13 37  1  0  0  0  0
 14 16  1  0  0  0  0
 15 14  2  0  0  0  0
 16 17  1  0  0  0  0
 17 41  1  0  0  0  0
 17 18  1  0  0  0  0
 17 40  1  0  0  0  0
 18 19  1  0  0  0  0
 19 42  1  0  0  0  0
 19 20  2  0  0  0  0
 20 21  1  0  0  0  0
 21 43  1  0  0  0  0
 21 22  1  0  0  0  0
 22 25  1  0  0  0  0
 22 23  1  0  0  0  0
 24 22  1  0  0  0  0
 26 20  1  0  0  0  0
 26 45  1  0  0  0  0
 27 26  2  0  0  0  0
 28 18  2  0  0  0  0
 28 27  1  0  0  0  0
 29  1  1  0  0  0  0
 32  8  1  0  0  0  0
 33  9  1  0  0  0  0
 34 11  1  0  0  0  0
 35 12  1  0  0  0  0
 36 12  1  0  0  0  0
 38 16  1  0  0  0  0
 39 16  1  0  0  0  0
 44 25  1  0  0  0  0
 46 27  1  0  0  0  0
 47 28  1  0  0  0  0
M  RAD  4   3   2   4   2  23   2  24   2
M  END
$$$$
