47
rmsd2.gzmat
O          0.00000        0.00000        0.00000
S          1.63740        0.00000        0.00000
O          2.04550        0.00000        1.39380
O          2.06020       -1.03710       -0.88770
N          1.91560        1.56640       -0.63290
C          3.06150        1.93670       -1.38300
C          3.39180        3.30670       -1.38190
C          4.45660        3.76290       -2.14430
C          5.22090        2.86680       -2.88990
C          4.91120        1.50790       -2.86100
C          3.82380        1.03270       -2.12990
C          5.82020        0.54200       -3.57700
N          7.07940        0.43530       -2.82380
C          7.53110       -0.80790       -2.41350
O          7.03470       -1.83230       -2.83210
C          8.72310       -0.78720       -1.47740
C          8.23970       -0.76880       -0.02430
C          7.52500        0.49320        0.36210
C          6.28470        0.40260        0.98360
C          5.63160        1.56800        1.43500
N          4.40430        1.39950        2.08230
S          3.33490        2.62320        2.67590
O          4.01630        3.53480        3.53750
O          2.55730        3.11870        1.56010
O          2.36470        1.61820        3.51830
C          6.22530        2.82350        1.23530
C          7.45270        2.89490        0.58480
C          8.10870        1.74570        0.15070
H         -0.44910       -0.57180       -0.64360
H          1.60280        2.33980       -0.00340
H          2.81930        4.00400       -0.76550
H          4.70370        4.82370       -2.15170
H          6.05820        3.22630       -3.48230
H          3.59910       -0.03620       -2.15420
H          6.05090        0.89450       -4.61060
H          5.35290       -0.46840       -3.69240
H          7.36720        1.26960       -2.32660
H          9.39720        0.06320       -1.68930
H          9.32700       -1.70340       -1.66080
H          9.10930       -0.90700        0.65740
H          7.59240       -1.65800        0.15070
H          5.81920       -0.56950        1.12910
H          4.02940        0.44100        2.08540
H          1.92030        0.92930        2.95700
H          5.75850        3.73930        1.59090
H          7.91250        3.87080        0.42330
H          9.08100        1.82400       -0.32490
