47
rmsd51.gzmat
O          0.00000        0.00000        0.00000
S          1.63880        0.00000        0.00000
O          2.05800        0.00000        1.38590
O          2.03390       -1.05330       -0.88860
N          1.95530        1.55030       -0.63490
C          2.88100        1.86830       -1.64730
C          3.39100        0.93580       -2.55850
C          4.27020        1.36230       -3.55130
C          4.63720        2.69930       -3.65830
C          4.12050        3.62860       -2.75140
C          3.25600        3.22430       -1.74560
C          4.53090        5.07620       -2.85230
N          5.83000        5.28110       -2.20010
C          5.88010        5.88310       -0.95280
O          4.90700        6.42780       -0.47470
C          7.23940        5.91270       -0.28010
C          7.78310        4.50750       -0.00250
C          6.75180        3.56920        0.55410
C          5.82290        4.00920        1.49180
C          4.85900        3.12020        1.99690
N          3.94500        3.59870        2.95860
S          2.26610        3.18970        2.98480
O          1.68640        4.04710        3.97460
O          1.77460        3.17300        1.62250
O          2.27520        1.65620        3.48310
C          4.85820        1.77970        1.58580
C          5.79340        1.35650        0.64680
C          6.73550        2.23900        0.12540
H         -0.44250       -0.61460       -0.60520
H          1.77200        2.33720        0.03470
H          3.11720       -0.12020       -2.52060
H          4.67150        0.63430       -4.25620
H          5.31410        3.01860       -4.44470
H          2.87270        3.95170       -1.02530
H          3.76460        5.74790       -2.38770
H          4.61780        5.39560       -3.91860
H          6.57220        4.66970       -2.50250
H          7.14120        6.48480        0.66890
H          7.95380        6.49270       -0.89860
H          8.62960        4.57570        0.71900
H          8.23160        4.08750       -0.92680
H          5.82110        5.05000        1.81120
H          4.19840        4.48930        3.39090
H          2.13450        0.95810        2.77460
H          4.16350        1.05390        2.00990
H          5.79010        0.31660        0.31730
H          7.45210        1.88970       -0.61170
