47

O          0.48270       -0.43180        0.08050
S          1.95530        0.03980        0.40880
O          2.25990       -0.17900        1.83770
O          2.85950       -0.52820       -0.56370
N          1.73450        1.69350        0.21820
C          2.78880        2.63340        0.33150
C          4.00310        2.34150        0.97170
C          4.95870        3.34940        1.10170
C          4.71060        4.64500        0.63930
C          3.49520        4.94110        0.01070
C          2.55310        3.91900       -0.16780
C          3.09890        6.36790       -0.31600
N          2.16880        6.85840        0.70420
C          0.84180        6.50500        0.63330
O          0.30470        6.19780       -0.41800
C          0.12940        6.38550        1.97320
C          0.77170        5.22180        2.76940
C         -0.13820        4.54980        3.76750
C         -0.41940        3.18690        3.61750
C         -1.22690        2.52180        4.54930
N         -1.52280        1.14440        4.44210
S         -0.73950        0.02670        3.51960
O         -1.24110       -1.26410        3.94030
O         -0.86530        0.42400        2.09880
O          0.77920        0.24230        3.93200
C         -1.77810        3.23090        5.62510
C         -1.51490        4.59420        5.76030
C         -0.69660        5.25460        4.84340
H         -0.12780       -0.17560        0.84650
H          1.05280        1.88640       -0.51310
H          4.20190        1.34560        1.36570
H          5.90860        3.11790        1.58890
H          5.45790        5.43020        0.77910
H          1.60150        4.14970       -0.65100
H          2.57810        6.43020       -1.28010
H          3.97940        7.02540       -0.35130
H          2.55970        6.93580        1.63710
H         -0.92280        6.16650        1.75120
H          0.17230        7.32790        2.54320
H          1.67440        5.58380        3.29210
H          1.12520        4.45970        2.06000
H          0.00250        2.64660        2.77100
H         -2.03130        0.70050        5.20100
H          1.38350        0.09630        3.13440
H         -2.40940        2.71470        6.35270
H         -1.94870        5.14150        6.60030
H         -0.48590        6.31940        4.96810
