
     RDKit          3D

 47 48  0  0  0  0  0  0  0  0999 V2000
   -0.0946   -0.3573   -0.2033 O   0  0  0  0  0  0  0  0  0  0  0  0
    1.4878   -0.2230   -0.1549 S   0  0  0  0  0  0  0  0  0  0  0  0
    1.9205   -0.2075    1.2577 O   0  0  0  0  0  0  0  0  0  0  0  0
    2.0910   -1.1674   -1.0779 O   0  0  0  0  0  0  0  0  0  0  0  0
    1.6999    1.3449   -0.6805 N   0  0  0  0  0  0  0  0  0  0  0  0
    1.9540    1.6082   -2.0479 C   0  0  0  0  0  0  0  0  0  0  0  0
    3.0470    2.3847   -2.4450 C   0  0  0  0  0  0  0  0  0  0  0  0
    3.2897    2.5693   -3.8084 C   0  0  0  0  0  0  0  0  0  0  0  0
    2.4886    1.9408   -4.7635 C   0  0  0  0  0  0  0  0  0  0  0  0
    1.3972    1.1557   -4.3647 C   0  0  0  0  0  0  0  0  0  0  0  0
    1.1061    1.0423   -3.0064 C   0  0  0  0  0  0  0  0  0  0  0  0
    0.5987    0.3725   -5.3968 C   0  0  0  0  0  0  0  0  0  0  0  0
   -0.7262   -0.0412   -4.9970 N   0  0  0  0  0  0  0  0  0  0  0  0
   -1.1003   -1.1490   -4.2754 C   0  0  0  0  0  0  0  0  0  0  0  0
   -2.2672   -1.3156   -3.9659 O   0  0  0  0  0  0  0  0  0  0  0  0
    0.0088   -2.1205   -3.8692 C   0  0  0  0  0  0  0  0  0  0  0  0
   -0.5380   -3.3242   -3.0830 C   0  0  0  0  0  0  0  0  0  0  0  0
    0.3768   -3.7859   -1.9733 C   0  0  0  0  0  0  0  0  0  0  0  0
   -0.0817   -3.8133   -0.6522 C   0  0  0  0  0  0  0  0  0  0  0  0
    0.7618   -4.2149    0.3898 C   0  0  0  0  0  0  0  0  0  0  0  0
    0.2397   -4.2698    1.7210 N   0  0  0  0  0  0  0  0  0  0  0  0
    0.0766   -2.8708    2.6111 S   0  0  0  0  0  0  0  0  0  0  0  0
   -0.6750   -1.9173    1.7736 O   0  0  0  0  0  0  0  0  0  0  0  0
   -0.4187   -3.2596    3.9103 O   0  0  0  0  0  0  0  0  0  0  0  0
    1.5610   -2.3040    2.7873 O   0  0  0  0  0  0  0  0  0  0  0  0
    2.0861   -4.5779    0.1281 C   0  0  0  0  0  0  0  0  0  0  0  0
    2.5446   -4.5716   -1.1908 C   0  0  0  0  0  0  0  0  0  0  0  0
    1.6989   -4.1816   -2.2286 C   0  0  0  0  0  0  0  0  0  0  0  0
   -0.3871   -0.9860    0.5333 H   0  0  0  0  0  0  0  0  0  0  0  0
    2.1777    1.8983    0.0257 H   0  0  0  0  0  0  0  0  0  0  0  0
    3.7081    2.8273   -1.6962 H   0  0  0  0  0  0  0  0  0  0  0  0
    4.1330    3.1872   -4.1254 H   0  0  0  0  0  0  0  0  0  0  0  0
    2.7160    2.0572   -5.8266 H   0  0  0  0  0  0  0  0  0  0  0  0
    0.2279    0.4914   -2.6742 H   0  0  0  0  0  0  0  0  0  0  0  0
    1.1867   -0.5185   -5.6727 H   0  0  0  0  0  0  0  0  0  0  0  0
    0.5133    0.9657   -6.3209 H   0  0  0  0  0  0  0  0  0  0  0  0
   -1.4941    0.6037   -5.1575 H   0  0  0  0  0  0  0  0  0  0  0  0
    0.7403   -1.5769   -3.2520 H   0  0  0  0  0  0  0  0  0  0  0  0
    0.5597   -2.4387   -4.7698 H   0  0  0  0  0  0  0  0  0  0  0  0
   -0.7377   -4.1594   -3.7754 H   0  0  0  0  0  0  0  0  0  0  0  0
   -1.5127   -3.0390   -2.6655 H   0  0  0  0  0  0  0  0  0  0  0  0
   -1.1094   -3.5322   -0.4185 H   0  0  0  0  0  0  0  0  0  0  0  0
    0.6227   -5.0017    2.3174 H   0  0  0  0  0  0  0  0  0  0  0  0
    1.7231   -1.4969    2.2134 H   0  0  0  0  0  0  0  0  0  0  0  0
    2.7458   -4.8604    0.9515 H   0  0  0  0  0  0  0  0  0  0  0  0
    3.5752   -4.8624   -1.4062 H   0  0  0  0  0  0  0  0  0  0  0  0
    2.0755   -4.1725   -3.2545 H   0  0  0  0  0  0  0  0  0  0  0  0
  2  1  1  0
  1 29  1  0
  2  3  2  0
  2  4  2  0
  2  5  1  0
  5  6  1  0
  5 30  1  0
  6  7  2  0
  6 11  1  0
  7  8  1  0
  7 31  1  0
  8  9  2  0
  8 32  1  0
  9 10  1  0
  9 33  1  0
 10 11  2  0
 10 12  1  0
 11 34  1  0
 12 13  1  0
 12 35  1  0
 12 36  1  0
 13 14  1  0
 13 37  1  0
 14 15  2  0
 14 16  1  0
 16 17  1  0
 16 38  1  0
 16 39  1  0
 17 18  1  0
 17 40  1  0
 17 41  1  0
 18 19  2  0
 18 28  1  0
 19 20  1  0
 19 42  1  0
 20 21  1  0
 20 26  2  0
 21 22  1  0
 21 43  1  0
 22 23  2  0
 22 24  2  0
 22 25  1  0
 25 44  1  0
 26 27  1  0
 26 45  1  0
 27 28  2  0
 27 46  1  0
 28 47  1  0
M  END

