47

O          0.73610       -0.71560       -0.51620
S          2.20460       -0.13300       -0.16960
O          2.49270       -0.24320        1.24620
O          3.07360       -0.81360       -1.13710
N          1.93050        1.46580       -0.57270
C          2.91840        2.45350       -0.27740
C          3.47400        2.58180        1.00470
C          4.43310        3.56710        1.23330
C          4.83290        4.42940        0.20930
C          4.26420        4.31820       -1.06340
C          3.30560        3.32720       -1.30000
C          4.70020        5.24470       -2.18320
N          4.85780        4.61110       -3.47870
C          5.89030        3.81130       -3.91500
O          5.98150        3.50960       -5.09110
C          6.87480        3.27460       -2.88320
C          6.44820        1.91900       -2.26060
C          6.02760        0.88620       -3.27730
C          4.71950        0.90530       -3.77130
C          4.31210        0.00060       -4.75390
N          2.98790        0.05940       -5.27390
S          1.65630       -0.10720       -4.27600
O          1.65660        1.02750       -3.34070
O          0.53010       -0.35300       -5.14870
O          1.91940       -1.44310       -3.43710
C          5.21690       -0.94500       -5.25190
C          6.52730       -0.95900       -4.77310
C          6.93130       -0.05320       -3.79000
H          0.08640       -0.32870        0.09720
H          1.64590        1.46560       -1.56570
H          3.16660        1.90750        1.80140
H          4.87730        3.65870        2.22710
H          5.59800        5.18690        0.39800
H          2.87640        3.21320       -2.29740
H          5.62600        5.76220       -1.87920
H          3.94260        6.03520       -2.30870
H          4.25850        4.91860       -4.23760
H          7.05500        3.99350       -2.06900
H          7.81610        3.13610       -3.43300
H          5.62580        2.08560       -1.55240
H          7.29910        1.54010       -1.67380
H          4.01060        1.64360       -3.40740
H          2.82840       -0.49330       -6.11410
H          2.42170       -1.24680       -2.59610
H          4.89370       -1.66340       -6.00940
H          7.23610       -1.69150       -5.16590
H          7.95930       -0.07310       -3.41930
