
     RDKit          3D

 47 48  0  0  0  0  0  0  0  0999 V2000
    0.8557   -0.4345   -0.8298 O   0  0  0  0  0  0  0  0  0  0  0  0
    2.0675    0.0968    0.1218 S   0  0  0  0  0  0  0  0  0  0  0  0
    1.5261    0.2635    1.4755 O   0  0  0  0  0  0  0  0  0  0  0  0
    3.1838   -0.8127   -0.0979 O   0  0  0  0  0  0  0  0  0  0  0  0
    2.2889    1.5927   -0.4616 N   0  0  0  0  0  0  0  0  0  0  0  0
    3.0207    1.9455   -1.6163 C   0  0  0  0  0  0  0  0  0  0  0  0
    3.2819    1.0337   -2.6489 C   0  0  0  0  0  0  0  0  0  0  0  0
    3.9771    1.4641   -3.7779 C   0  0  0  0  0  0  0  0  0  0  0  0
    4.3965    2.7909   -3.8947 C   0  0  0  0  0  0  0  0  0  0  0  0
    4.1335    3.7040   -2.8655 C   0  0  0  0  0  0  0  0  0  0  0  0
    3.4559    3.2730   -1.7188 C   0  0  0  0  0  0  0  0  0  0  0  0
    4.6204    5.1348   -2.9612 C   0  0  0  0  0  0  0  0  0  0  0  0
    5.8476    5.3574   -2.2119 N   0  0  0  0  0  0  0  0  0  0  0  0
    5.8402    5.8748   -0.9469 C   0  0  0  0  0  0  0  0  0  0  0  0
    4.8368    6.3326   -0.4241 O   0  0  0  0  0  0  0  0  0  0  0  0
    7.1817    5.8064   -0.2257 C   0  0  0  0  0  0  0  0  0  0  0  0
    7.6511    4.3589    0.0105 C   0  0  0  0  0  0  0  0  0  0  0  0
    6.6070    3.4398    0.6106 C   0  0  0  0  0  0  0  0  0  0  0  0
    5.7058    3.9028    1.5771 C   0  0  0  0  0  0  0  0  0  0  0  0
    4.7668    3.0407    2.1536 C   0  0  0  0  0  0  0  0  0  0  0  0
    3.8778    3.5368    3.1404 N   0  0  0  0  0  0  0  0  0  0  0  0
    2.2154    3.4078    2.9559 S   0  0  0  0  0  0  0  0  0  0  0  0
    1.6490    4.3693    3.8747 O   0  0  0  0  0  0  0  0  0  0  0  0
    1.8561    3.4375    1.5275 O   0  0  0  0  0  0  0  0  0  0  0  0
    1.9205    1.9336    3.4874 O   0  0  0  0  0  0  0  0  0  0  0  0
    4.7149    1.6969    1.7625 C   0  0  0  0  0  0  0  0  0  0  0  0
    5.5761    1.2435    0.7642 C   0  0  0  0  0  0  0  0  0  0  0  0
    6.5155    2.1042    0.1947 C   0  0  0  0  0  0  0  0  0  0  0  0
    0.9221   -1.4053   -0.8695 H   0  0  0  0  0  0  0  0  0  0  0  0
    2.0751    2.3248    0.2392 H   0  0  0  0  0  0  0  0  0  0  0  0
    2.9451    0.0014   -2.5745 H   0  0  0  0  0  0  0  0  0  0  0  0
    4.1803    0.7534   -4.5823 H   0  0  0  0  0  0  0  0  0  0  0  0
    4.9233    3.1221   -4.7935 H   0  0  0  0  0  0  0  0  0  0  0  0
    3.2620    3.9726   -0.9026 H   0  0  0  0  0  0  0  0  0  0  0  0
    3.8766    5.8248   -2.5418 H   0  0  0  0  0  0  0  0  0  0  0  0
    4.7865    5.4060   -4.0154 H   0  0  0  0  0  0  0  0  0  0  0  0
    6.6814    4.8776   -2.5290 H   0  0  0  0  0  0  0  0  0  0  0  0
    7.0530    6.3447    0.7222 H   0  0  0  0  0  0  0  0  0  0  0  0
    7.9488    6.3473   -0.8044 H   0  0  0  0  0  0  0  0  0  0  0  0
    8.5385    4.3865    0.6676 H   0  0  0  0  0  0  0  0  0  0  0  0
    8.0049    3.9150   -0.9346 H   0  0  0  0  0  0  0  0  0  0  0  0
    5.6982    4.9538    1.8692 H   0  0  0  0  0  0  0  0  0  0  0  0
    4.0868    4.4609    3.5120 H   0  0  0  0  0  0  0  0  0  0  0  0
    1.7120    1.3208    2.7278 H   0  0  0  0  0  0  0  0  0  0  0  0
    4.0086    1.0157    2.2341 H   0  0  0  0  0  0  0  0  0  0  0  0
    5.4986    0.2086    0.4282 H   0  0  0  0  0  0  0  0  0  0  0  0
    7.1843    1.7355   -0.5870 H   0  0  0  0  0  0  0  0  0  0  0  0
  2  1  1  0
  1 29  1  0
  2  3  2  0
  2  4  2  0
  2  5  1  0
  5  6  1  0
  5 30  1  0
  6  7  2  0
  6 11  1  0
  7  8  1  0
  7 31  1  0
  8  9  2  0
  8 32  1  0
  9 10  1  0
  9 33  1  0
 10 11  2  0
 10 12  1  0
 11 34  1  0
 12 13  1  0
 12 35  1  0
 12 36  1  0
 13 14  1  0
 13 37  1  0
 14 15  2  0
 14 16  1  0
 16 17  1  0
 16 38  1  0
 16 39  1  0
 17 18  1  0
 17 40  1  0
 17 41  1  0
 18 19  2  0
 18 28  1  0
 19 20  1  0
 19 42  1  0
 20 21  1  0
 20 26  2  0
 21 22  1  0
 21 43  1  0
 22 23  2  0
 22 24  2  0
 22 25  1  0
 25 44  1  0
 26 27  1  0
 26 45  1  0
 27 28  2  0
 27 46  1  0
 28 47  1  0
M  END

