47

O          0.08410        0.47010        1.49690
S          1.47910        0.20970        0.70300
O          2.47290        0.39740        1.76040
O          1.38830       -1.03260       -0.03470
N          1.67860        1.48420       -0.32720
C          0.86460        1.71840       -1.46470
C          0.39790        0.68260       -2.28560
C         -0.39100        0.99620       -3.39550
C         -0.70770        2.31790       -3.70070
C         -0.23030        3.35860       -2.89090
C          0.55050        3.05230       -1.77500
C         -0.63330        4.79210       -3.19090
N         -2.06880        4.96900       -3.34720
C         -3.03720        4.70290       -2.40940
O         -4.21560        4.64760       -2.71230
C         -2.57560        4.48910       -0.97470
C         -2.71360        3.01920       -0.55340
C         -2.30160        2.73950        0.87650
C         -1.26440        3.44860        1.49510
C         -0.90230        3.18850        2.82090
N          0.14670        3.95820        3.40290
S          1.74790        3.64690        3.01840
O          1.83030        3.55960        1.55340
O          2.52760        4.61020        3.76150
O          2.02700        2.19650        3.63070
C         -1.57330        2.20740        3.55690
C         -2.61160        1.49670        2.95340
C         -2.96950        1.75530        1.62710
H         -0.69150        0.48440        0.90540
H          1.90830        2.31890        0.23390
H          0.65560       -0.35040       -2.06150
H         -0.75640        0.18730       -4.03240
H         -1.34210        2.54550       -4.56000
H          0.90960        3.84810       -1.11760
H         -0.16780        5.11830       -4.13390
H         -0.23760        5.46120       -2.41010
H         -2.44090        5.06780       -4.28650
H         -3.22960        5.10840       -0.34190
H         -1.54770        4.84020       -0.82680
H         -2.11130        2.39130       -1.23140
H         -3.75990        2.71320       -0.70280
H         -0.72230        4.23120        0.96850
H          0.07400        4.11620        4.40680
H          2.20490        1.50870        2.92430
H         -1.27060        1.99450        4.58420
H         -3.14560        0.73160        3.52130
H         -3.79670        1.20470        1.17130
