47

O         -0.44270        0.23450        0.08780
S          1.18620        0.17370       -0.08520
O          1.72610        0.25710        1.26140
O          1.45890       -0.99430       -0.92400
N          1.56170        1.47830       -0.98690
C          1.21760        2.80440       -0.60730
C          1.56470        3.29600        0.65590
C          1.23180        4.61140        0.98620
C          0.58800        5.43280        0.06290
C          0.24030        4.94420       -1.20610
C          0.54600        3.61950       -1.53120
C         -0.49340        5.86890       -2.15840
N         -0.61220        5.38750       -3.51420
C         -1.82630        5.18450       -4.10650
O         -2.88510        5.38570       -3.53250
C         -1.78520        4.66130       -5.53540
C         -2.65010        3.39410       -5.66400
C         -2.10570        2.26310       -4.82420
C         -1.11870        1.41620       -5.34330
C         -0.54430        0.41260       -4.55560
N          0.45490       -0.42910       -5.10250
S          1.97640       -0.51600       -4.39680
O          2.88220       -0.86660       -5.46930
O          2.19610        0.68750       -3.57960
O          1.85610       -1.75720       -3.40930
C         -0.95320        0.24840       -3.22580
C         -1.91480        1.10860       -2.69660
C         -2.49340        2.10580       -3.48460
H         -0.62620        0.37030        1.03320
H          1.68800        1.24990       -1.98700
H          2.09840        2.65650        1.35800
H          1.50110        5.00270        1.96990
H          0.34950        6.46690        0.32600
H          0.25680        3.20590       -2.49830
H         -0.00390        6.85910       -2.14220
H         -1.52640        6.01990       -1.80810
H          0.22940        5.19920       -4.04460
H         -0.75230        4.45750       -5.86090
H         -2.19150        5.45280       -6.18670
H         -2.69680        3.09530       -6.72260
H         -3.67000        3.64820       -5.34110
H         -0.78110        1.54390       -6.37620
H          0.56370       -0.41600       -6.11360
H          1.75350       -1.45260       -2.46460
H         -0.52550       -0.54530       -2.61450
H         -2.20870        0.99140       -1.65280
H         -3.23700        2.78310       -3.06140
