rmsd197.gzmat
 OpenBabel08211713363D

 34 35  0  0  1  0  0  0  0  0999 V2000
    0.0000    0.0000    0.0000 S   0  0  0  0  0  0  0  0  0  0  0  0
    1.7004    0.0000    0.0000 C   0  0  0  0  0  0  0  0  0  0  0  0
    2.2100    0.0000    1.2482 N   0  0  0  0  0  0  0  0  0  0  0  0
    1.2331   -0.0332    2.2579 C   0  0  0  0  0  0  0  0  0  0  0  0
   -0.0427   -0.0321    1.7379 C   0  0  0  0  0  0  0  0  0  0  0  0
   -1.3116   -0.0677    2.4896 C   0  0  0  0  0  0  0  0  0  0  0  0
   -2.3101    0.9818    1.9675 C   0  0  0  0  0  0  0  0  0  0  0  0
   -2.5382    0.7369    0.5976 O   0  0  0  0  0  0  0  0  0  0  0  0
    1.6330   -0.0613    3.6778 C   0  0  0  0  0  0  0  0  0  0  0  0
    3.6613   -0.0977    1.5101 C   0  0  0  0  0  0  0  0  0  0  0  0
    4.0607   -1.5221    1.6791 C   0  0  1  0  0  0  0  0  0  0  0  0
    3.7442   -2.4236    0.5940 C   0  0  0  0  0  0  0  0  0  0  0  0
    3.1378   -2.1535   -0.4226 O   0  0  0  0  0  0  0  0  0  0  0  0
    4.1764   -3.7702    0.7628 N   0  0  0  0  0  0  0  0  0  0  0  0
    3.9776   -4.4285    0.0045 H   0  0  0  0  0  0  0  0  0  0  0  0
    4.8499   -4.1644    1.9050 C   0  0  0  0  0  0  0  0  0  0  0  0
    5.1123   -3.3078    2.8898 N   0  0  0  0  0  0  0  0  0  0  0  0
    4.7326   -2.0030    2.7796 C   0  0  0  0  0  0  0  0  0  0  0  0
    5.2857   -5.5803    2.0162 C   0  0  0  0  0  0  0  0  0  0  0  0
    2.3336   -0.0248   -0.8979 H   0  0  0  0  0  0  0  0  0  0  0  0
   -1.1462    0.1023    3.5782 H   0  0  0  0  0  0  0  0  0  0  0  0
   -1.7697   -1.0849    2.4348 H   0  0  0  0  0  0  0  0  0  0  0  0
   -1.8885    2.0065    1.9878 H   0  0  0  0  0  0  0  0  0  0  0  0
   -3.2547    0.9686    2.5386 H   0  0  0  0  0  0  0  0  0  0  0  0
   -3.3206    0.1620    0.4577 H   0  0  0  0  0  0  0  0  0  0  0  0
    2.1786    0.8498    3.9814 H   0  0  0  0  0  0  0  0  0  0  0  0
    2.2744   -0.9288    3.9160 H   0  0  0  0  0  0  0  0  0  0  0  0
    0.7642   -0.1348    4.3568 H   0  0  0  0  0  0  0  0  0  0  0  0
    3.9186    0.5216    2.4052 H   0  0  0  0  0  0  0  0  0  0  0  0
    4.2155    0.3609    0.6454 H   0  0  0  0  0  0  0  0  0  0  0  0
    5.0177   -1.3741    3.6392 H   0  0  0  0  0  0  0  0  0  0  0  0
    4.4685   -6.2981    1.8374 H   0  0  0  0  0  0  0  0  0  0  0  0
    5.6833   -5.7996    3.0308 H   0  0  0  0  0  0  0  0  0  0  0  0
    6.1041   -5.8166    1.3115 H   0  0  0  0  0  0  0  0  0  0  0  0
  1  5  1  0  0  0  0
  2  1  1  0  0  0  0
  2  3  1  0  0  0  0
  3 10  1  0  0  0  0
  3  4  1  0  0  0  0
  4  9  1  0  0  0  0
  5  4  2  0  0  0  0
  5  6  1  0  0  0  0
  6 21  1  0  0  0  0
  7 23  1  0  0  0  0
  7  6  1  0  0  0  0
  7 24  1  0  0  0  0
  8  7  1  0  0  0  0
  9 27  1  0  0  0  0
  9 26  1  0  0  0  0
  9 28  1  0  0  0  0
 10 29  1  0  0  0  0
 11 10  1  6  0  0  0
 11 18  1  0  0  0  0
 12 14  1  0  0  0  0
 12 11  1  0  0  0  0
 13 12  2  0  0  0  0
 14 16  1  0  0  0  0
 15 14  1  0  0  0  0
 16 19  1  0  0  0  0
 16 17  2  0  0  0  0
 18 17  2  0  0  0  0
 18 31  1  0  0  0  0
 19 33  1  0  0  0  0
 20  2  1  0  0  0  0
 22  6  1  0  0  0  0
 25  8  1  0  0  0  0
 30 10  1  0  0  0  0
 32 19  1  0  0  0  0
 34 19  1  0  0  0  0
M  RAD  1  11   2
M  END
$$$$
