34
rmsd187.gzmat
S          0.00000        0.00000        0.00000
C          1.70120        0.00000        0.00000
N          2.21200        0.00000        1.24740
C          1.23540       -0.02700        2.25780
C         -0.04100       -0.02550        1.73900
C         -1.30450       -0.07420        2.49920
C         -2.40160        0.79780        1.86420
O         -2.56330        0.40980        0.51810
C          1.63450       -0.05050        3.67830
C          3.66300       -0.10550        1.50880
C          4.05460       -1.53330        1.66510
C          3.76730       -2.41500        0.55560
O          3.19250       -2.12500       -0.47360
N          4.18880       -3.76610        0.71470
H          4.01060       -4.41110       -0.06030
C          4.82470       -4.18220        1.87060
N          5.06310       -3.34300        2.87620
C          4.69230       -2.03480        2.77650
C          5.23760       -5.60560        1.97570
H          2.33270       -0.02670       -0.89940
H         -1.15530        0.24910        3.55530
H         -1.66250       -1.12930        2.57880
H         -2.10540        1.86410        1.79730
H         -3.35570        0.72360        2.41550
H         -3.23170       -0.30270        0.42510
H          0.76440       -0.10680        4.35730
H          2.19210        0.85560        3.97660
H          2.26360       -0.92520        3.92350
H          3.92360        0.50390        2.40950
H          4.21870        0.35840        0.64770
H          4.95510       -1.42140        3.65430
H          4.37180       -6.29090        2.00060
H          5.80780       -5.79060        2.91180
H          5.89380       -5.92030        1.14560
