rmsd140.gzmat
 OpenBabel08211713363D

 34 35  0  0  1  0  0  0  0  0999 V2000
    0.0000    0.0000    0.0000 S   0  0  0  0  0  0  0  0  0  0  0  0
    1.6989    0.0000    0.0000 C   0  0  0  0  0  0  0  0  0  0  0  0
    2.2067    0.0000    1.2493 N   0  0  0  0  0  0  0  0  0  0  0  0
    1.2297   -0.0404    2.2578 C   0  0  0  0  0  0  0  0  0  0  0  0
   -0.0458   -0.0340    1.7357 C   0  0  0  0  0  0  0  0  0  0  0  0
   -1.3197   -0.0299    2.4789 C   0  0  0  0  0  0  0  0  0  0  0  0
   -2.1312    1.2416    2.1593 C   0  0  0  0  0  0  0  0  0  0  0  0
   -2.3957    1.2596    0.7748 O   0  0  0  0  0  0  0  0  0  0  0  0
    1.6253   -0.0788    3.6788 C   0  0  0  0  0  0  0  0  0  0  0  0
    3.6599   -0.0392    1.5130 C   0  0  0  0  0  0  0  0  0  0  0  0
    4.1432   -1.4418    1.6291 C   0  0  1  0  0  0  0  0  0  0  0  0
    3.9252   -2.3125    0.4960 C   0  0  0  0  0  0  0  0  0  0  0  0
    3.3116   -2.0488   -0.5177 O   0  0  0  0  0  0  0  0  0  0  0  0
    4.4823   -3.6202    0.6038 N   0  0  0  0  0  0  0  0  0  0  0  0
    4.3640   -4.2502   -0.1947 H   0  0  0  0  0  0  0  0  0  0  0  0
    5.1664   -4.0117    1.7401 C   0  0  0  0  0  0  0  0  0  0  0  0
    5.3160   -3.1919    2.7796 N   0  0  0  0  0  0  0  0  0  0  0  0
    4.8199   -1.9241    2.7264 C   0  0  0  0  0  0  0  0  0  0  0  0
    5.7510   -5.3769    1.7884 C   0  0  0  0  0  0  0  0  0  0  0  0
    2.3343   -0.0211   -0.8974 H   0  0  0  0  0  0  0  0  0  0  0  0
   -1.1565   -0.0901    3.5788 H   0  0  0  0  0  0  0  0  0  0  0  0
   -1.9268   -0.9361    2.2440 H   0  0  0  0  0  0  0  0  0  0  0  0
   -1.5425    2.1644    2.3319 H   0  0  0  0  0  0  0  0  0  0  0  0
   -3.0637    1.2901    2.7474 H   0  0  0  0  0  0  0  0  0  0  0  0
   -3.2840    0.8986    0.5720 H   0  0  0  0  0  0  0  0  0  0  0  0
    0.7632   -0.2599    4.3469 H   0  0  0  0  0  0  0  0  0  0  0  0
    2.0762    0.8721    4.0166 H   0  0  0  0  0  0  0  0  0  0  0  0
    2.3468   -0.8868    3.8961 H   0  0  0  0  0  0  0  0  0  0  0  0
    3.8836    0.5575    2.4327 H   0  0  0  0  0  0  0  0  0  0  0  0
    4.1893    0.4841    0.6692 H   0  0  0  0  0  0  0  0  0  0  0  0
    5.0195   -1.3231    3.6289 H   0  0  0  0  0  0  0  0  0  0  0  0
    5.0977   -6.1530    1.3600 H   0  0  0  0  0  0  0  0  0  0  0  0
    5.9691   -5.6820    2.8352 H   0  0  0  0  0  0  0  0  0  0  0  0
    6.7224   -5.4215    1.2580 H   0  0  0  0  0  0  0  0  0  0  0  0
  1  5  1  0  0  0  0
  2  1  1  0  0  0  0
  2  3  1  0  0  0  0
  3 10  1  0  0  0  0
  3  4  1  0  0  0  0
  4  9  1  0  0  0  0
  5  4  2  0  0  0  0
  5  6  1  0  0  0  0
  6 21  1  0  0  0  0
  7 23  1  0  0  0  0
  7  6  1  0  0  0  0
  7 24  1  0  0  0  0
  8  7  1  0  0  0  0
  9 28  1  0  0  0  0
  9 27  1  0  0  0  0
  9 26  1  0  0  0  0
 10 29  1  0  0  0  0
 11 10  1  6  0  0  0
 11 18  1  0  0  0  0
 12 14  1  0  0  0  0
 12 11  1  0  0  0  0
 13 12  2  0  0  0  0
 14 16  1  0  0  0  0
 15 14  1  0  0  0  0
 16 19  1  0  0  0  0
 16 17  2  0  0  0  0
 18 17  2  0  0  0  0
 18 31  1  0  0  0  0
 19 33  1  0  0  0  0
 20  2  1  0  0  0  0
 22  6  1  0  0  0  0
 25  8  1  0  0  0  0
 30 10  1  0  0  0  0
 32 19  1  0  0  0  0
 34 19  1  0  0  0  0
M  RAD  1  11   2
M  END
$$$$
