34
rmsd139.gzmat
S          0.00000        0.00000        0.00000
C          1.70080        0.00000        0.00000
N          2.21110        0.00000        1.24730
C          1.23480       -0.03320        2.25720
C         -0.04150       -0.02880        1.73810
C         -1.30560       -0.06820        2.49760
C         -2.36010        0.88850        1.91280
O         -2.56110        0.55890        0.55660
C          1.63050       -0.06030        3.67840
C          3.66370       -0.09300        1.50740
C          4.06960       -1.51910        1.63510
C          3.82760       -2.36960        0.49140
O          3.28540       -2.05470       -0.54790
N          4.25820       -3.72130        0.62310
H          4.11630       -4.34170       -0.17910
C          4.85720       -4.16680        1.78680
N          5.05420       -3.35510        2.82500
C          4.67820       -2.04750        2.75030
C          5.29460       -5.58420        1.86740
H          2.33480       -0.02460       -0.89880
H         -1.14500        0.19020        3.57000
H         -1.71070       -1.10920        2.51800
H         -2.00270        1.93740        1.88070
H         -3.30770        0.84830        2.47780
H         -3.28890       -0.08890        0.44570
H          0.77690       -0.27620        4.34620
H          2.04520        0.90750        4.01520
H          2.38110       -0.83970        3.89740
H          3.91790        0.50330        2.41850
H          4.21290        0.39410        0.65510
H          4.91190       -1.45720        3.65190
H          4.65390       -6.28200        1.30740
H          5.31520       -5.93570        2.92170
H          6.33200       -5.70620        1.49660
