rmsd61.gzmat
 OpenBabel08211713363D

 34 35  0  0  1  0  0  0  0  0999 V2000
    0.0000    0.0000    0.0000 S   0  0  0  0  0  0  0  0  0  0  0  0
    1.7011    0.0000    0.0000 C   0  0  0  0  0  0  0  0  0  0  0  0
    2.2119    0.0000    1.2473 N   0  0  0  0  0  0  0  0  0  0  0  0
    1.2353   -0.0153    2.2575 C   0  0  0  0  0  0  0  0  0  0  0  0
   -0.0411   -0.0062    1.7384 C   0  0  0  0  0  0  0  0  0  0  0  0
   -1.3052    0.0128    2.4988 C   0  0  0  0  0  0  0  0  0  0  0  0
   -2.3839   -0.8720    1.8499 C   0  0  0  0  0  0  0  0  0  0  0  0
   -2.5922   -0.4349    0.5258 O   0  0  0  0  0  0  0  0  0  0  0  0
    1.6334   -0.0331    3.6782 C   0  0  0  0  0  0  0  0  0  0  0  0
    3.6642   -0.0827    1.5085 C   0  0  0  0  0  0  0  0  0  0  0  0
    4.0947   -1.5005    1.6496 C   0  0  1  0  0  0  0  0  0  0  0  0
    3.8341   -2.3794    0.5317 C   0  0  0  0  0  0  0  0  0  0  0  0
    3.2323   -2.1026   -0.4856 O   0  0  0  0  0  0  0  0  0  0  0  0
    4.3248   -3.7104    0.6631 N   0  0  0  0  0  0  0  0  0  0  0  0
    4.1668   -4.3511   -0.1200 H   0  0  0  0  0  0  0  0  0  0  0  0
    5.0001   -4.1112    1.8018 C   0  0  0  0  0  0  0  0  0  0  0  0
    5.1976   -3.2800    2.8234 N   0  0  0  0  0  0  0  0  0  0  0  0
    4.7579   -1.9917    2.7511 C   0  0  0  0  0  0  0  0  0  0  0  0
    5.5077   -5.5059    1.8717 C   0  0  0  0  0  0  0  0  0  0  0  0
    2.3332   -0.0333   -0.8991 H   0  0  0  0  0  0  0  0  0  0  0  0
   -1.6847    1.0590    2.5938 H   0  0  0  0  0  0  0  0  0  0  0  0
   -1.1514   -0.3246    3.5505 H   0  0  0  0  0  0  0  0  0  0  0  0
   -3.3258   -0.8561    2.4256 H   0  0  0  0  0  0  0  0  0  0  0  0
   -2.0514   -1.9228    1.7295 H   0  0  0  0  0  0  0  0  0  0  0  0
   -3.2641    0.2793    0.4831 H   0  0  0  0  0  0  0  0  0  0  0  0
    0.7624   -0.0811    4.3571 H   0  0  0  0  0  0  0  0  0  0  0  0
    2.1937    0.8716    3.9741 H   0  0  0  0  0  0  0  0  0  0  0  0
    2.2588   -0.9095    3.9263 H   0  0  0  0  0  0  0  0  0  0  0  0
    3.9123    0.5242    2.4150 H   0  0  0  0  0  0  0  0  0  0  0  0
    4.2090    0.4030    0.6521 H   0  0  0  0  0  0  0  0  0  0  0  0
    4.9920   -1.3827    3.6399 H   0  0  0  0  0  0  0  0  0  0  0  0
    4.6897   -6.2419    1.9716 H   0  0  0  0  0  0  0  0  0  0  0  0
    6.1627   -5.6509    2.7587 H   0  0  0  0  0  0  0  0  0  0  0  0
    6.1095   -5.7873    0.9905 H   0  0  0  0  0  0  0  0  0  0  0  0
  1  5  1  0  0  0  0
  2  1  1  0  0  0  0
  2  3  1  0  0  0  0
  3 10  1  0  0  0  0
  3  4  1  0  0  0  0
  4  9  1  0  0  0  0
  5  4  2  0  0  0  0
  5  6  1  0  0  0  0
  6 21  1  0  0  0  0
  6 22  1  0  0  0  0
  7 23  1  0  0  0  0
  7  6  1  0  0  0  0
  8  7  1  0  0  0  0
  9 28  1  0  0  0  0
  9 27  1  0  0  0  0
  9 26  1  0  0  0  0
 10 29  1  0  0  0  0
 11 10  1  6  0  0  0
 11 18  1  0  0  0  0
 12 14  1  0  0  0  0
 12 11  1  0  0  0  0
 13 12  2  0  0  0  0
 14 16  1  0  0  0  0
 15 14  1  0  0  0  0
 16 19  1  0  0  0  0
 16 17  2  0  0  0  0
 18 17  2  0  0  0  0
 18 31  1  0  0  0  0
 19 32  1  0  0  0  0
 19 33  1  0  0  0  0
 20  2  1  0  0  0  0
 24  7  1  0  0  0  0
 25  8  1  0  0  0  0
 30 10  1  0  0  0  0
 34 19  1  0  0  0  0
M  RAD  1  11   2
M  END
$$$$
