34
rmsd18.gzmat
S          0.00000        0.00000        0.00000
C          1.69990        0.00000        0.00000
N          2.20960        0.00000        1.24840
C          1.23240       -0.00430        2.25820
C         -0.04350        0.00680        1.73750
C         -1.31450        0.01690        2.48600
C         -2.25240       -1.10870        2.01000
O         -2.53350       -0.90420        0.64400
C          1.63070       -0.00910        3.67890
C          3.66020       -0.11300        1.51060
C          4.05250       -1.54250        1.64390
C          3.78920       -2.40120        0.51110
O          3.22580       -2.09370       -0.51930
N          4.22230       -3.75190        0.64380
H          4.05900       -4.38000       -0.14830
C          4.85140       -4.18770        1.79540
N          5.06160       -3.37090        2.82660
C          4.67450       -2.06600        2.75420
C          5.28700       -5.60610        1.87240
H          2.33400       -0.03750       -0.89820
H         -1.82860        1.00250        2.38230
H         -1.14600       -0.08980        3.58220
H         -3.17950       -1.14880        2.60770
H         -1.75990       -2.10100        2.03510
H         -3.35690       -0.38660        0.51740
H          0.76090       -0.08760        4.35660
H          2.15930        0.91610        3.97290
H          2.28530       -0.86290        3.93030
H          3.92020        0.48260        2.42070
H          4.21690        0.36510        0.65790
H          4.91360       -1.47240        3.65220
H          4.45380       -6.27240        2.16650
H          6.06910       -5.74360        2.65100
H          5.70720       -5.98770        0.92790
