rmsd80.gzmat
 OpenBabel08211713393D

 30 31  0  0  0  0  0  0  0  0999 V2000
    0.0000    0.0000    0.0000 C   0  0  0  0  0  0  0  0  0  0  0  0
    1.4201    0.0000    0.0000 C   0  0  0  0  0  0  0  0  0  0  0  0
    2.1104    0.0000    1.2220 C   0  0  0  0  0  0  0  0  0  0  0  0
    1.4273   -0.0132    2.4251 C   0  0  0  0  0  0  0  0  0  0  0  0
    0.0260   -0.0424    2.4250 C   0  0  0  0  0  0  0  0  0  0  0  0
   -0.6826   -0.0438    1.2388 C   0  0  0  0  0  0  0  0  0  0  0  0
    2.1696   -0.0155   -1.2478 C   0  0  0  0  0  0  0  0  0  0  0  0
    1.7376   -0.1252   -2.3790 O   0  0  0  0  0  0  0  0  0  0  0  0
    3.5098    0.0967   -1.0659 O   0  0  0  0  0  0  0  0  0  0  0  0
   -0.6759   -0.0126   -1.2059 N   0  0  0  0  0  0  0  0  0  0  0  0
   -2.0496    0.2540   -1.3698 C   0  0  0  0  0  0  0  0  0  0  0  0
   -2.7345   -0.4534   -2.3756 C   0  0  0  0  0  0  0  0  0  0  0  0
   -4.0842   -0.2106   -2.5878 C   0  0  0  0  0  0  0  0  0  0  0  0
   -4.7691    0.7289   -1.8133 C   0  0  0  0  0  0  0  0  0  0  0  0
   -4.0778    1.4396   -0.8374 C   0  0  0  0  0  0  0  0  0  0  0  0
   -4.7781    2.4587    0.0189 C   0  0  0  0  0  0  0  0  0  0  0  0
   -4.9232    2.0666    1.2861 F   0  0  0  0  0  0  0  0  0  0  0  0
   -4.1417    3.6276    0.1007 F   0  0  0  0  0  0  0  0  0  0  0  0
   -6.0100    2.7882   -0.3657 F   0  0  0  0  0  0  0  0  0  0  0  0
   -2.7201    1.2226   -0.6110 C   0  0  0  0  0  0  0  0  0  0  0  0
    3.2059    0.0089    1.2163 H   0  0  0  0  0  0  0  0  0  0  0  0
    1.9684   -0.0109    3.3666 H   0  0  0  0  0  0  0  0  0  0  0  0
   -0.5096   -0.0701    3.3768 H   0  0  0  0  0  0  0  0  0  0  0  0
   -1.7684   -0.1123    1.2599 H   0  0  0  0  0  0  0  0  0  0  0  0
    4.0129    0.0756   -1.9217 H   0  0  0  0  0  0  0  0  0  0  0  0
   -0.1214   -0.1520   -2.0635 H   0  0  0  0  0  0  0  0  0  0  0  0
   -2.2071   -1.1943   -2.9768 H   0  0  0  0  0  0  0  0  0  0  0  0
   -4.6186   -0.7623   -3.3625 H   0  0  0  0  0  0  0  0  0  0  0  0
   -5.8332    0.8867   -1.9906 H   0  0  0  0  0  0  0  0  0  0  0  0
   -2.1732    1.8069    0.1329 H   0  0  0  0  0  0  0  0  0  0  0  0
  1  2  2  0  0  0  0
  1  6  1  0  0  0  0
  2  3  1  0  0  0  0
  3  4  2  0  0  0  0
  4 22  1  0  0  0  0
  5  4  1  0  0  0  0
  5 23  1  0  0  0  0
  6 24  1  0  0  0  0
  6  5  2  0  0  0  0
  7  9  1  0  0  0  0
  7  2  1  0  0  0  0
  8  7  2  0  0  0  0
 10  1  1  0  0  0  0
 11 10  1  0  0  0  0
 11 20  2  0  0  0  0
 12 11  1  0  0  0  0
 13 12  2  0  0  0  0
 13 14  1  0  0  0  0
 14 15  2  0  0  0  0
 15 20  1  0  0  0  0
 15 16  1  0  0  0  0
 16 18  1  0  0  0  0
 16 17  1  0  0  0  0
 19 16  1  0  0  0  0
 20 30  1  0  0  0  0
 21  3  1  0  0  0  0
 25  9  1  0  0  0  0
 26 10  1  0  0  0  0
 27 12  1  0  0  0  0
 28 13  1  0  0  0  0
 29 14  1  0  0  0  0
M  END
$$$$
