30
rmsd78.gzmat
C          0.00000        0.00000        0.00000
C          1.41990        0.00000        0.00000
C          2.11060        0.00000        1.22180
C          1.42860        0.00930        2.42530
C          0.02720        0.03850        2.42530
C         -0.68180        0.04060        1.23950
C          2.17150        0.01000       -1.24650
O          1.74310        0.11250       -2.37910
O          3.51130       -0.10220       -1.05860
N         -0.67640        0.01470       -1.20530
C         -2.05260       -0.24530       -1.36440
C         -2.74460        0.47910       -2.35220
C         -4.09820        0.24500       -2.55160
C         -4.77620       -0.70320       -1.78300
C         -4.07530       -1.43670       -0.82950
C         -4.79600       -2.45840        0.00680
F         -4.05310       -3.49870        0.38380
F         -5.27020       -1.95660        1.14850
F         -5.85580       -3.01760       -0.57650
C         -2.71630       -1.22570       -0.61400
H          3.20620       -0.00570        1.21490
H          1.97110        0.00350        3.36630
H         -0.50890        0.06690        3.37650
H         -1.76760        0.10720        1.26110
H          4.01860       -0.09080       -1.91160
H         -0.12290        0.14840       -2.06380
H         -2.21990        1.22610       -2.94810
H         -4.64030        0.81000       -3.31100
H         -5.84410       -0.85370       -1.94220
H         -2.15780       -1.81750        0.11480
