30
rmsd72.gzmat
C          0.00000        0.00000        0.00000
C          1.41890        0.00000        0.00000
C          2.10880        0.00000        1.22240
C          1.42530        0.00580        2.42560
C          0.02380        0.02990        2.42540
C         -0.68380        0.03170        1.23860
C          2.16900       -0.00020       -1.24830
O          1.73990        0.11690       -2.37910
O          3.50600       -0.14850       -1.06480
N         -0.68370        0.03300       -1.20370
C         -2.03460       -0.33590       -1.36390
C         -2.78250        0.32710       -2.35450
C         -4.11290       -0.01560       -2.55240
C         -4.71620       -1.01250       -1.78140
C         -3.96400       -1.67190       -0.81510
C         -4.56760       -2.74730        0.04600
F         -3.93260       -3.91720       -0.03260
F         -4.55720       -2.44760        1.34640
F         -5.83990       -3.04830       -0.20860
C         -2.62290       -1.35770       -0.60620
H          3.20430       -0.00500        1.21750
H          1.96750       -0.00090        3.36710
H         -0.51290        0.05360        3.37650
H         -1.77080        0.09020        1.25660
H          4.01100       -0.14670       -1.91970
H         -0.13360        0.18100       -2.06150
H         -2.31840        1.10850       -2.95610
H         -4.69840        0.50090       -3.31420
H         -5.76380       -1.25710       -1.95750
H         -2.02460       -1.90850        0.12330
