30
rmsd101.gzmat
C          0.00000        0.00000        0.00000
C          1.41850        0.00000        0.00000
C          2.10820        0.00000        1.22250
C          1.42470        0.02400        2.42540
C          0.02440        0.08020        2.42440
C         -0.68230        0.07560        1.23690
C          2.17090        0.00740       -1.24670
O          1.74130        0.08370       -2.38040
O          3.51270       -0.06940       -1.05520
N         -0.68600       -0.01180       -1.20410
C         -2.02690       -0.41720       -1.35260
C         -2.77290        0.15860       -2.39880
C         -4.09750       -0.21300       -2.58010
C         -4.69690       -1.15440       -1.73940
C         -3.94320       -1.73830       -0.72690
C         -4.54700       -2.75770        0.20010
F         -3.81910       -3.86680        0.33460
F         -4.70090       -2.30530        1.44600
F         -5.75530       -3.20400       -0.13930
C         -2.60870       -1.39120       -0.52980
H          3.20350       -0.02070        1.21820
H          1.96700        0.00930        3.36610
H         -0.51210        0.13320        3.37440
H         -1.76730        0.16360        1.25260
H          4.02180       -0.05290       -1.90710
H         -0.13740        0.12030       -2.06550
H         -2.31230        0.89710       -3.05520
H         -4.68170        0.23660       -3.38440
H         -5.74300       -1.41630       -1.89740
H         -2.01070       -1.88090        0.24210
