30
rmsd80.gzmat
C          0.00000        0.00000        0.00000
C          1.42010        0.00000        0.00000
C          2.11040        0.00000        1.22200
C          1.42730       -0.01320        2.42510
C          0.02600       -0.04240        2.42500
C         -0.68260       -0.04380        1.23880
C          2.16960       -0.01550       -1.24780
O          1.73760       -0.12520       -2.37900
O          3.50980        0.09670       -1.06590
N         -0.67590       -0.01260       -1.20590
C         -2.04960        0.25400       -1.36980
C         -2.73450       -0.45340       -2.37560
C         -4.08420       -0.21060       -2.58780
C         -4.76910        0.72890       -1.81330
C         -4.07780        1.43960       -0.83740
C         -4.77810        2.45870        0.01890
F         -4.92320        2.06660        1.28610
F         -4.14170        3.62760        0.10070
F         -6.01000        2.78820       -0.36570
C         -2.72010        1.22260       -0.61100
H          3.20590        0.00890        1.21630
H          1.96840       -0.01090        3.36660
H         -0.50960       -0.07010        3.37680
H         -1.76840       -0.11230        1.25990
H          4.01290        0.07560       -1.92170
H         -0.12140       -0.15200       -2.06350
H         -2.20710       -1.19430       -2.97680
H         -4.61860       -0.76230       -3.36250
H         -5.83320        0.88670       -1.99060
H         -2.17320        1.80690        0.13290
