30

C          0.02940       -0.06870        0.07150
C          1.45590        0.03230        0.01700
C          2.20090        0.04740        1.21260
C          1.58380       -0.02050        2.45300
C          0.18380       -0.08500        2.50660
C         -0.57970       -0.10640        1.34750
C          2.15260        0.14270       -1.27680
O          1.61390        0.24030       -2.37100
O          3.49500        0.13890       -1.17890
N         -0.69870       -0.08050       -1.09510
C         -2.03330       -0.42530       -1.30730
C         -2.70200        0.15620       -2.40330
C         -4.01930       -0.18470       -2.69650
C         -4.71270       -1.10020       -1.90020
C         -4.05040       -1.68580       -0.81830
C         -4.77680       -2.64890        0.08540
F         -3.96920       -3.63330        0.52150
F         -5.25520       -2.02690        1.18220
F         -5.82400       -3.22630       -0.52660
C         -2.72130       -1.36940       -0.52670
H          3.28590        0.11940        1.13990
H          2.17670       -0.00960        3.36900
H         -0.32480       -0.10840        3.47380
H         -1.66530       -0.12260        1.42260
H          3.83270        0.22900       -2.08560
H         -0.13900        0.13920       -1.92280
H         -2.17050        0.88460       -3.02020
H         -4.51640        0.27640       -3.55290
H         -5.74740       -1.36390       -2.11930
H         -2.21590       -1.88550        0.28740
