30
rmsd102.gzmat
C          0.00000        0.00000        0.00000
C          1.41890        0.00000        0.00000
C          2.10990        0.00000        1.22190
C          1.42760        0.01860        2.42530
C          0.02650        0.05990        2.42490
C         -0.68230        0.05640        1.23860
C          2.16960        0.00630       -1.24730
O          1.73810        0.08280       -2.38080
O          3.51150       -0.07360       -1.05800
N         -0.68340        0.01030       -1.20400
C         -2.03280       -0.36520       -1.36210
C         -2.77350        0.27270       -2.37450
C         -4.10200       -0.07560       -2.57370
C         -4.70890       -1.05480       -1.78380
C         -3.96160       -1.69710       -0.80190
C         -4.57680       -2.76000        0.06740
F         -3.87340       -3.89160        0.12140
F         -4.70620       -2.38600        1.34190
F         -5.79920       -3.15620       -0.28400
C         -2.62420       -1.37150       -0.58640
H          3.20530       -0.01470        1.21530
H          1.96980        0.01120        3.36660
H         -0.50830        0.10230        3.37640
H         -1.76790        0.13130        1.25610
H          4.01930       -0.05970       -1.91050
H         -0.13200        0.14420       -2.06410
H         -2.30560        1.04030       -2.99130
H         -4.68230        0.42230       -3.35160
H         -5.75740       -1.29790       -1.95540
H         -2.03010       -1.90020        0.16200
