30
rmsd77.gzmat
C          0.00000        0.00000        0.00000
C          1.41870        0.00000        0.00000
C          2.10990        0.00000        1.22170
C          1.42710        0.00120        2.42520
C          0.02550        0.02870        2.42510
C         -0.68280        0.03710        1.23880
C          2.16870       -0.00130       -1.24760
O          1.73870        0.09720       -2.37980
O          3.50740       -0.12570       -1.06040
N         -0.68290        0.02520       -1.20340
C         -2.03880       -0.32530       -1.36110
C         -2.77390        0.34280       -2.35780
C         -4.10730        0.01580       -2.56220
C         -4.72700       -0.96490       -1.78390
C         -3.98550       -1.63370       -0.81540
C         -4.60960       -2.70150        0.04030
F         -3.92530       -3.84580        0.05910
F         -4.71340       -2.35140        1.32390
F         -5.84390       -3.06780       -0.30110
C         -2.64230       -1.33420       -0.59970
H          3.20540       -0.00150        1.21410
H          1.96840       -0.01090        3.36700
H         -0.51070        0.05090        3.37630
H         -1.76890        0.10610        1.25780
H          4.01430       -0.12210       -1.91360
H         -0.13310        0.16670       -2.06300
H         -2.29740        1.11840       -2.95740
H         -4.68030        0.53130       -3.33420
H         -5.78050       -1.18780       -1.95050
H         -2.05580       -1.88540        0.13950
