rmsd83.gzmat
 OpenBabel08211713393D

 30 31  0  0  0  0  0  0  0  0999 V2000
    0.0000    0.0000    0.0000 C   0  0  0  0  0  0  0  0  0  0  0  0
    1.4195    0.0000    0.0000 C   0  0  0  0  0  0  0  0  0  0  0  0
    2.1103    0.0000    1.2220 C   0  0  0  0  0  0  0  0  0  0  0  0
    1.4275   -0.0149    2.4250 C   0  0  0  0  0  0  0  0  0  0  0  0
    0.0258   -0.0464    2.4249 C   0  0  0  0  0  0  0  0  0  0  0  0
   -0.6827   -0.0439    1.2391 C   0  0  0  0  0  0  0  0  0  0  0  0
    2.1709   -0.0111   -1.2460 C   0  0  0  0  0  0  0  0  0  0  0  0
    1.7430   -0.1198   -2.3781 O   0  0  0  0  0  0  0  0  0  0  0  0
    3.5101    0.1082   -1.0580 O   0  0  0  0  0  0  0  0  0  0  0  0
   -0.6800   -0.0109   -1.2028 N   0  0  0  0  0  0  0  0  0  0  0  0
   -2.0593    0.2447   -1.3489 C   0  0  0  0  0  0  0  0  0  0  0  0
   -2.7669   -0.5051   -2.3058 C   0  0  0  0  0  0  0  0  0  0  0  0
   -4.1212   -0.2679   -2.4973 C   0  0  0  0  0  0  0  0  0  0  0  0
   -4.7859    0.7096   -1.7534 C   0  0  0  0  0  0  0  0  0  0  0  0
   -4.0716    1.4626   -0.8268 C   0  0  0  0  0  0  0  0  0  0  0  0
   -4.7423    2.5418   -0.0216 C   0  0  0  0  0  0  0  0  0  0  0  0
   -4.7323    2.3064    1.2916 F   0  0  0  0  0  0  0  0  0  0  0  0
   -4.1712    3.7399   -0.1512 F   0  0  0  0  0  0  0  0  0  0  0  0
   -6.0254    2.7610   -0.3045 F   0  0  0  0  0  0  0  0  0  0  0  0
   -2.7111    1.2470   -0.6181 C   0  0  0  0  0  0  0  0  0  0  0  0
    3.2059    0.0095    1.2149 H   0  0  0  0  0  0  0  0  0  0  0  0
    1.9699   -0.0123    3.3657 H   0  0  0  0  0  0  0  0  0  0  0  0
   -0.5110   -0.0817    3.3753 H   0  0  0  0  0  0  0  0  0  0  0  0
   -1.7686   -0.1097    1.2574 H   0  0  0  0  0  0  0  0  0  0  0  0
    4.0177    0.0922   -1.9105 H   0  0  0  0  0  0  0  0  0  0  0  0
   -0.1331   -0.1466   -2.0648 H   0  0  0  0  0  0  0  0  0  0  0  0
   -2.2530   -1.2719   -2.8863 H   0  0  0  0  0  0  0  0  0  0  0  0
   -4.6738   -0.8517   -3.2346 H   0  0  0  0  0  0  0  0  0  0  0  0
   -5.8522    0.8670   -1.9157 H   0  0  0  0  0  0  0  0  0  0  0  0
   -2.1474    1.8591    0.0895 H   0  0  0  0  0  0  0  0  0  0  0  0
  1  2  2  0  0  0  0
  1  6  1  0  0  0  0
  2  3  1  0  0  0  0
  3  4  2  0  0  0  0
  4 22  1  0  0  0  0
  5  4  1  0  0  0  0
  5 23  1  0  0  0  0
  6 24  1  0  0  0  0
  6  5  2  0  0  0  0
  7  9  1  0  0  0  0
  7  2  1  0  0  0  0
  8  7  2  0  0  0  0
 10  1  1  0  0  0  0
 11 10  1  0  0  0  0
 11 20  2  0  0  0  0
 12 11  1  0  0  0  0
 13 12  2  0  0  0  0
 13 14  1  0  0  0  0
 14 15  2  0  0  0  0
 15 20  1  0  0  0  0
 15 16  1  0  0  0  0
 16 17  1  0  0  0  0
 18 16  1  0  0  0  0
 19 16  1  0  0  0  0
 20 30  1  0  0  0  0
 21  3  1  0  0  0  0
 25  9  1  0  0  0  0
 26 10  1  0  0  0  0
 27 12  1  0  0  0  0
 28 13  1  0  0  0  0
 29 14  1  0  0  0  0
M  END
$$$$
