rmsd72.gzmat
 OpenBabel08211713393D

 30 31  0  0  0  0  0  0  0  0999 V2000
    0.0000    0.0000    0.0000 C   0  0  0  0  0  0  0  0  0  0  0  0
    1.4189    0.0000    0.0000 C   0  0  0  0  0  0  0  0  0  0  0  0
    2.1088    0.0000    1.2224 C   0  0  0  0  0  0  0  0  0  0  0  0
    1.4253    0.0058    2.4256 C   0  0  0  0  0  0  0  0  0  0  0  0
    0.0238    0.0299    2.4254 C   0  0  0  0  0  0  0  0  0  0  0  0
   -0.6838    0.0317    1.2386 C   0  0  0  0  0  0  0  0  0  0  0  0
    2.1690   -0.0002   -1.2483 C   0  0  0  0  0  0  0  0  0  0  0  0
    1.7399    0.1169   -2.3791 O   0  0  0  0  0  0  0  0  0  0  0  0
    3.5060   -0.1485   -1.0648 O   0  0  0  0  0  0  0  0  0  0  0  0
   -0.6837    0.0330   -1.2037 N   0  0  0  0  0  0  0  0  0  0  0  0
   -2.0346   -0.3359   -1.3639 C   0  0  0  0  0  0  0  0  0  0  0  0
   -2.7825    0.3271   -2.3545 C   0  0  0  0  0  0  0  0  0  0  0  0
   -4.1129   -0.0156   -2.5524 C   0  0  0  0  0  0  0  0  0  0  0  0
   -4.7162   -1.0125   -1.7814 C   0  0  0  0  0  0  0  0  0  0  0  0
   -3.9640   -1.6719   -0.8151 C   0  0  0  0  0  0  0  0  0  0  0  0
   -4.5676   -2.7473    0.0460 C   0  0  0  0  0  0  0  0  0  0  0  0
   -3.9326   -3.9172   -0.0326 F   0  0  0  0  0  0  0  0  0  0  0  0
   -4.5572   -2.4476    1.3464 F   0  0  0  0  0  0  0  0  0  0  0  0
   -5.8399   -3.0483   -0.2086 F   0  0  0  0  0  0  0  0  0  0  0  0
   -2.6229   -1.3577   -0.6062 C   0  0  0  0  0  0  0  0  0  0  0  0
    3.2043   -0.0050    1.2175 H   0  0  0  0  0  0  0  0  0  0  0  0
    1.9675   -0.0009    3.3671 H   0  0  0  0  0  0  0  0  0  0  0  0
   -0.5129    0.0536    3.3765 H   0  0  0  0  0  0  0  0  0  0  0  0
   -1.7708    0.0902    1.2566 H   0  0  0  0  0  0  0  0  0  0  0  0
    4.0110   -0.1467   -1.9197 H   0  0  0  0  0  0  0  0  0  0  0  0
   -0.1336    0.1810   -2.0615 H   0  0  0  0  0  0  0  0  0  0  0  0
   -2.3184    1.1085   -2.9561 H   0  0  0  0  0  0  0  0  0  0  0  0
   -4.6984    0.5009   -3.3142 H   0  0  0  0  0  0  0  0  0  0  0  0
   -5.7638   -1.2571   -1.9575 H   0  0  0  0  0  0  0  0  0  0  0  0
   -2.0246   -1.9085    0.1233 H   0  0  0  0  0  0  0  0  0  0  0  0
  1  2  2  0  0  0  0
  1  6  1  0  0  0  0
  2  3  1  0  0  0  0
  3  4  2  0  0  0  0
  4 22  1  0  0  0  0
  5  4  1  0  0  0  0
  5 23  1  0  0  0  0
  6 24  1  0  0  0  0
  6  5  2  0  0  0  0
  7  9  1  0  0  0  0
  7  2  1  0  0  0  0
  8  7  2  0  0  0  0
 10  1  1  0  0  0  0
 11 10  1  0  0  0  0
 11 20  2  0  0  0  0
 12 11  1  0  0  0  0
 13 12  2  0  0  0  0
 13 14  1  0  0  0  0
 14 15  2  0  0  0  0
 15 20  1  0  0  0  0
 15 16  1  0  0  0  0
 16 18  1  0  0  0  0
 17 16  1  0  0  0  0
 19 16  1  0  0  0  0
 20 30  1  0  0  0  0
 21  3  1  0  0  0  0
 25  9  1  0  0  0  0
 26 10  1  0  0  0  0
 27 12  1  0  0  0  0
 28 13  1  0  0  0  0
 29 14  1  0  0  0  0
M  END
$$$$
