rmsd101.gzmat
 OpenBabel08211713393D

 30 31  0  0  0  0  0  0  0  0999 V2000
    0.0000    0.0000    0.0000 C   0  0  0  0  0  0  0  0  0  0  0  0
    1.4185    0.0000    0.0000 C   0  0  0  0  0  0  0  0  0  0  0  0
    2.1082    0.0000    1.2225 C   0  0  0  0  0  0  0  0  0  0  0  0
    1.4247    0.0240    2.4254 C   0  0  0  0  0  0  0  0  0  0  0  0
    0.0244    0.0802    2.4244 C   0  0  0  0  0  0  0  0  0  0  0  0
   -0.6823    0.0756    1.2369 C   0  0  0  0  0  0  0  0  0  0  0  0
    2.1709    0.0074   -1.2467 C   0  0  0  0  0  0  0  0  0  0  0  0
    1.7413    0.0837   -2.3804 O   0  0  0  0  0  0  0  0  0  0  0  0
    3.5127   -0.0694   -1.0552 O   0  0  0  0  0  0  0  0  0  0  0  0
   -0.6860   -0.0118   -1.2041 N   0  0  0  0  0  0  0  0  0  0  0  0
   -2.0269   -0.4172   -1.3526 C   0  0  0  0  0  0  0  0  0  0  0  0
   -2.7729    0.1586   -2.3988 C   0  0  0  0  0  0  0  0  0  0  0  0
   -4.0975   -0.2130   -2.5801 C   0  0  0  0  0  0  0  0  0  0  0  0
   -4.6969   -1.1544   -1.7394 C   0  0  0  0  0  0  0  0  0  0  0  0
   -3.9432   -1.7383   -0.7269 C   0  0  0  0  0  0  0  0  0  0  0  0
   -4.5470   -2.7577    0.2001 C   0  0  0  0  0  0  0  0  0  0  0  0
   -3.8191   -3.8668    0.3346 F   0  0  0  0  0  0  0  0  0  0  0  0
   -4.7009   -2.3053    1.4460 F   0  0  0  0  0  0  0  0  0  0  0  0
   -5.7553   -3.2040   -0.1393 F   0  0  0  0  0  0  0  0  0  0  0  0
   -2.6087   -1.3912   -0.5298 C   0  0  0  0  0  0  0  0  0  0  0  0
    3.2035   -0.0207    1.2182 H   0  0  0  0  0  0  0  0  0  0  0  0
    1.9670    0.0093    3.3661 H   0  0  0  0  0  0  0  0  0  0  0  0
   -0.5121    0.1332    3.3744 H   0  0  0  0  0  0  0  0  0  0  0  0
   -1.7673    0.1636    1.2526 H   0  0  0  0  0  0  0  0  0  0  0  0
    4.0218   -0.0529   -1.9071 H   0  0  0  0  0  0  0  0  0  0  0  0
   -0.1374    0.1203   -2.0655 H   0  0  0  0  0  0  0  0  0  0  0  0
   -2.3123    0.8971   -3.0552 H   0  0  0  0  0  0  0  0  0  0  0  0
   -4.6817    0.2366   -3.3844 H   0  0  0  0  0  0  0  0  0  0  0  0
   -5.7430   -1.4163   -1.8974 H   0  0  0  0  0  0  0  0  0  0  0  0
   -2.0107   -1.8809    0.2421 H   0  0  0  0  0  0  0  0  0  0  0  0
  1  2  2  0  0  0  0
  1  6  1  0  0  0  0
  2  3  1  0  0  0  0
  3  4  2  0  0  0  0
  4 22  1  0  0  0  0
  5  4  1  0  0  0  0
  5 23  1  0  0  0  0
  6 24  1  0  0  0  0
  6  5  2  0  0  0  0
  7  9  1  0  0  0  0
  7  2  1  0  0  0  0
  8  7  2  0  0  0  0
 10  1  1  0  0  0  0
 11 10  1  0  0  0  0
 11 20  2  0  0  0  0
 12 11  1  0  0  0  0
 13 12  2  0  0  0  0
 13 14  1  0  0  0  0
 14 15  2  0  0  0  0
 15 20  1  0  0  0  0
 15 16  1  0  0  0  0
 16 17  1  0  0  0  0
 16 18  1  0  0  0  0
 19 16  1  0  0  0  0
 20 30  1  0  0  0  0
 21  3  1  0  0  0  0
 25  9  1  0  0  0  0
 26 10  1  0  0  0  0
 27 12  1  0  0  0  0
 28 13  1  0  0  0  0
 29 14  1  0  0  0  0
M  END
$$$$
