51
rmsd180.gzmat
C          0.00000        0.00000        0.00000
C          1.39610        0.00000        0.00000
C          2.09190        0.00000        1.20570
C          1.39750       -0.00060        2.41440
C          0.00400        0.00290        2.41470
C         -0.69610        0.00650        1.21040
C         -0.75790        0.01630       -1.29270
C         -0.21480       -0.98320       -2.27810
N         -0.54930       -2.32280       -2.06350
C         -0.19750       -3.32860       -2.99350
O         -0.56510       -4.47840       -2.84740
N          0.60900       -2.94870       -4.05860
H          0.88550       -3.67380       -4.72600
C          1.01530       -1.60710       -4.30900
O          1.67250       -1.43990       -5.31070
C          0.57550       -0.62290       -3.33030
C          1.01590        0.79290       -3.58490
C          2.54560        0.88140       -3.67090
C          0.36690        1.31620       -4.87320
C         -1.47350       -2.73260       -0.98850
O         -2.75870       -2.22080       -1.20190
C         -3.50940       -2.81740       -2.25400
C         -3.26000       -2.07100       -3.53040
C         -2.84600       -2.74630       -4.67800
C         -2.57000       -2.03080       -5.84100
C         -2.71120       -0.64450       -5.85850
C         -3.14240        0.02770       -4.71560
C         -3.41990       -0.68510       -3.55190
H          1.94210       -0.00230       -0.94460
H          3.18040        0.00130        1.20360
H          1.94200       -0.00310        3.35560
H         -0.53930        0.00340        3.35750
H         -1.78440        0.01710        1.21780
H         -0.72320        1.04800       -1.72360
H         -1.85080       -0.15470       -1.13620
H          0.68940        1.45380       -2.73930
H          2.92530        0.37310       -4.56890
H          3.02700        0.41480       -2.80650
H          2.87690        1.92260       -3.72270
H          0.72660        0.75970       -5.75040
H          0.60370        2.37150       -5.03590
H         -0.72270        1.20800       -4.84360
H         -1.17880       -2.26150       -0.02060
H         -1.48760       -3.84440       -0.90160
H         -4.55210       -2.68770       -1.89740
H         -3.28910       -3.89880       -2.33080
H         -2.72370       -3.82990       -4.66360
H         -2.23570       -2.55540       -6.73500
H         -2.48260       -0.08650       -6.76480
H         -3.26310        1.10880       -4.73290
H         -3.75600       -0.16610       -2.65620
