rmsd206.gzmat
 OpenBabel08211713363D

 51 53  0  0  0  0  0  0  0  0999 V2000
    0.0000    0.0000    0.0000 C   0  0  0  0  0  0  0  0  0  0  0  0
    1.3963    0.0000    0.0000 C   0  0  0  0  0  0  0  0  0  0  0  0
    2.0914    0.0000    1.2074 C   0  0  0  0  0  0  0  0  0  0  0  0
    1.3965   -0.0013    2.4155 C   0  0  0  0  0  0  0  0  0  0  0  0
    0.0024    0.0013    2.4150 C   0  0  0  0  0  0  0  0  0  0  0  0
   -0.6956    0.0050    1.2105 C   0  0  0  0  0  0  0  0  0  0  0  0
   -0.7419    0.0155   -1.3022 C   0  0  0  0  0  0  0  0  0  0  0  0
   -1.9333   -0.9038   -1.2866 C   0  0  0  0  0  0  0  0  0  0  0  0
   -1.6703   -2.2713   -1.4039 N   0  0  0  0  0  0  0  0  0  0  0  0
   -2.7168   -3.2160   -1.5197 C   0  0  0  0  0  0  0  0  0  0  0  0
   -2.4839   -4.3942   -1.7087 O   0  0  0  0  0  0  0  0  0  0  0  0
   -4.0141   -2.7410   -1.3779 N   0  0  0  0  0  0  0  0  0  0  0  0
   -4.7775   -3.4198   -1.4407 H   0  0  0  0  0  0  0  0  0  0  0  0
   -4.3433   -1.3651   -1.2167 C   0  0  0  0  0  0  0  0  0  0  0  0
   -5.5258   -1.1162   -1.1610 O   0  0  0  0  0  0  0  0  0  0  0  0
   -3.2127   -0.4506   -1.1494 C   0  0  0  0  0  0  0  0  0  0  0  0
   -3.5615    1.0000   -0.9553 C   0  0  0  0  0  0  0  0  0  0  0  0
   -4.3468    1.5155   -2.1688 C   0  0  0  0  0  0  0  0  0  0  0  0
   -4.3673    1.1958    0.3363 C   0  0  0  0  0  0  0  0  0  0  0  0
   -0.3111   -2.7858   -1.6591 C   0  0  0  0  0  0  0  0  0  0  0  0
    0.1474   -2.4016   -2.9247 O   0  0  0  0  0  0  0  0  0  0  0  0
   -0.4919   -3.0182   -4.0376 C   0  0  0  0  0  0  0  0  0  0  0  0
   -1.6244   -2.1500   -4.4984 C   0  0  0  0  0  0  0  0  0  0  0  0
   -1.4017   -0.7863   -4.6958 C   0  0  0  0  0  0  0  0  0  0  0  0
   -2.4548    0.0415   -5.0763 C   0  0  0  0  0  0  0  0  0  0  0  0
   -3.7286   -0.4931   -5.2653 C   0  0  0  0  0  0  0  0  0  0  0  0
   -3.9459   -1.8578   -5.0842 C   0  0  0  0  0  0  0  0  0  0  0  0
   -2.8945   -2.6883   -4.7019 C   0  0  0  0  0  0  0  0  0  0  0  0
    1.9456    0.0021   -0.9397 H   0  0  0  0  0  0  0  0  0  0  0  0
    3.1796   -0.0003    1.2066 H   0  0  0  0  0  0  0  0  0  0  0  0
    1.9405   -0.0040    3.3571 H   0  0  0  0  0  0  0  0  0  0  0  0
   -0.5426   -0.0002    3.3575 H   0  0  0  0  0  0  0  0  0  0  0  0
   -1.7866    0.0090    1.2139 H   0  0  0  0  0  0  0  0  0  0  0  0
   -0.0752   -0.2375   -2.1625 H   0  0  0  0  0  0  0  0  0  0  0  0
   -1.0605    1.0640   -1.5268 H   0  0  0  0  0  0  0  0  0  0  0  0
   -2.6254    1.6107   -0.8635 H   0  0  0  0  0  0  0  0  0  0  0  0
   -5.3267    1.0226   -2.2447 H   0  0  0  0  0  0  0  0  0  0  0  0
   -3.8109    1.3185   -3.1036 H   0  0  0  0  0  0  0  0  0  0  0  0
   -4.5279    2.5915   -2.0966 H   0  0  0  0  0  0  0  0  0  0  0  0
   -5.3549    0.7169    0.2673 H   0  0  0  0  0  0  0  0  0  0  0  0
   -4.5363    2.2581    0.5371 H   0  0  0  0  0  0  0  0  0  0  0  0
   -3.8561    0.7642    1.2017 H   0  0  0  0  0  0  0  0  0  0  0  0
   -0.2971   -3.8950   -1.5435 H   0  0  0  0  0  0  0  0  0  0  0  0
    0.4261   -2.3057   -0.9733 H   0  0  0  0  0  0  0  0  0  0  0  0
   -0.8068   -4.0502   -3.7921 H   0  0  0  0  0  0  0  0  0  0  0  0
    0.3261   -3.0602   -4.7861 H   0  0  0  0  0  0  0  0  0  0  0  0
   -0.4053   -0.3746   -4.5453 H   0  0  0  0  0  0  0  0  0  0  0  0
   -2.2819    1.1050   -5.2262 H   0  0  0  0  0  0  0  0  0  0  0  0
   -4.5546    0.1547   -5.5532 H   0  0  0  0  0  0  0  0  0  0  0  0
   -4.9409   -2.2753   -5.2335 H   0  0  0  0  0  0  0  0  0  0  0  0
   -3.0694   -3.7537   -4.5521 H   0  0  0  0  0  0  0  0  0  0  0  0
  1  6  1  0  0  0  0
  2  1  2  0  0  0  0
  2  3  1  0  0  0  0
  3  4  2  0  0  0  0
  4 31  1  0  0  0  0
  5  4  1  0  0  0  0
  5 32  1  0  0  0  0
  6 33  1  0  0  0  0
  6  5  2  0  0  0  0
  7  8  1  0  0  0  0
  7  1  1  0  0  0  0
  8 16  2  0  0  0  0
  9  8  1  0  0  0  0
 10  9  1  0  0  0  0
 10 12  1  0  0  0  0
 11 10  2  0  0  0  0
 12 14  1  0  0  0  0
 13 12  1  0  0  0  0
 14 15  2  0  0  0  0
 14 16  1  0  0  0  0
 16 17  1  0  0  0  0
 17 36  1  0  0  0  0
 17 19  1  0  0  0  0
 18 39  1  0  0  0  0
 18 17  1  0  0  0  0
 19 41  1  0  0  0  0
 19 42  1  0  0  0  0
 20 43  1  0  0  0  0
 20  9  1  0  0  0  0
 20 44  1  0  0  0  0
 21 20  1  0  0  0  0
 22 45  1  0  0  0  0
 22 21  1  0  0  0  0
 23 22  1  0  0  0  0
 24 47  1  0  0  0  0
 24 23  1  0  0  0  0
 25 24  2  0  0  0  0
 26 27  2  0  0  0  0
 26 25  1  0  0  0  0
 27 28  1  0  0  0  0
 28 51  1  0  0  0  0
 28 23  2  0  0  0  0
 29  2  1  0  0  0  0
 30  3  1  0  0  0  0
 34  7  1  0  0  0  0
 35  7  1  0  0  0  0
 37 18  1  0  0  0  0
 38 18  1  0  0  0  0
 40 19  1  0  0  0  0
 46 22  1  0  0  0  0
 48 25  1  0  0  0  0
 49 26  1  0  0  0  0
 50 27  1  0  0  0  0
M  END
$$$$
