51
rmsd44.gzmat
C          0.00000        0.00000        0.00000
C          1.39610        0.00000        0.00000
C          2.09200        0.00000        1.20590
C          1.39750       -0.00820        2.41470
C          0.00370       -0.01810        2.41510
C         -0.69620       -0.01310        1.21080
C         -0.76280       -0.00700       -1.28980
C         -0.13900        0.88620       -2.32770
N         -0.31810        2.26180       -2.15810
C          0.11350        3.18720       -3.13660
O         -0.12920        4.37390       -3.03220
N          0.85140        2.68250       -4.19950
H          1.18950        3.34720       -4.90020
C          1.10790        1.29650       -4.40190
O          1.72960        1.02300       -5.40280
C          0.57890        0.40250       -3.38200
C          0.84670       -1.06210       -3.59750
C          0.15320       -1.53570       -4.88220
C          2.35590       -1.33390       -3.65960
C         -1.17060        2.81020       -1.08570
O         -2.51150        2.45430       -1.27120
C         -3.18200        3.07650       -2.36220
C         -3.08140        2.19510       -3.57130
C         -2.64110        2.70960       -4.79040
C         -2.51590        1.86700       -5.89310
C         -2.83210        0.51430       -5.77960
C         -3.28500        0.00330       -4.56400
C         -3.41210        0.84320       -3.46030
H          1.94280        0.00200       -0.94390
H          3.18080        0.00660        1.20360
H          1.94190       -0.00700        3.35610
H         -0.53980       -0.02730        3.35800
H         -1.78450       -0.02070        1.21820
H         -1.83330        0.27730       -1.13850
H         -0.82850       -1.05860       -1.66630
H          0.43290       -1.65830       -2.74210
H          0.60150       -1.06730       -5.77030
H         -0.91080       -1.27520       -4.88000
H          0.24100       -2.61870       -5.00480
H          2.81150       -0.85920       -4.54060
H          2.55890       -2.40680       -3.72890
H          2.87170       -0.94760       -2.77560
H         -1.04920        3.91750       -1.03260
H         -0.92300        2.33530       -0.10680
H         -2.79530        4.09840       -2.53490
H         -4.22470        3.14530       -1.98880
H         -2.38500        3.76520       -4.88050
H         -2.16170        2.26510       -6.84310
H         -2.72410       -0.14280       -6.64070
H         -3.53980       -1.05070       -4.47730
H         -3.76600        0.45070       -2.50840
