51
rmsd90.gzmat
C          0.00000        0.00000        0.00000
C          1.39630        0.00000        0.00000
C          2.09170        0.00000        1.20690
C          1.39680       -0.00100        2.41480
C          0.00290        0.00170        2.41460
C         -0.69580        0.00490        1.21030
C         -0.73960        0.01660       -1.30350
C         -1.94940       -0.87770       -1.28130
N         -1.71320       -2.25180       -1.37480
C         -2.77750       -3.17740       -1.47900
O         -2.56730       -4.36300       -1.64620
N         -4.06540       -2.67440       -1.35010
H         -4.84170       -3.33920       -1.40220
C         -4.36820       -1.28950       -1.21360
O         -5.54560       -1.01680       -1.16540
C         -3.21990       -0.39620       -1.15940
C         -3.53860        1.06520       -0.99880
C         -4.31490        1.56740       -2.22350
C         -4.33560        1.30770        0.29040
C         -0.36250       -2.79620       -1.61320
O          0.11530       -2.43120       -2.87730
C         -0.52380       -3.04440       -3.99220
C         -1.62870       -2.15420       -4.47800
C         -1.36890       -0.79980       -4.69310
C         -2.39590        0.04820       -5.09890
C         -3.67990       -0.45780       -5.29700
C         -3.93420       -1.81340       -5.09770
C         -2.90890       -2.66410       -4.68960
H          1.94520        0.00130       -0.93960
H          3.18000       -0.00020        1.20590
H          1.94200       -0.00300        3.35560
H         -0.54150        0.00150        3.35740
H         -1.78680        0.00880        1.21410
H         -0.07660       -0.25960       -2.15960
H         -1.03580        1.06940       -1.53960
H         -2.59010        1.65930       -0.92330
H         -5.30680        1.09700       -2.28350
H         -3.78710        1.33190       -3.15380
H         -4.46880        2.64900       -2.18030
H         -5.32820        0.83690        0.24240
H         -4.49310        2.37730        0.45980
H         -3.82110        0.89820        1.16480
H         -0.37270       -3.90430       -1.48810
H          0.37800       -2.32520       -0.92440
H         -0.86730       -4.06570       -3.74020
H          0.30290       -3.11440       -4.72870
H         -0.36400       -0.41200       -4.53680
H         -2.19650        1.10510       -5.26220
H         -4.48500        0.20650       -5.60570
H         -4.93740       -2.20810       -5.25140
H         -3.11270       -3.72210       -4.52590
