51
rmsd206.gzmat
C          0.00000        0.00000        0.00000
C          1.39630        0.00000        0.00000
C          2.09140        0.00000        1.20740
C          1.39650       -0.00130        2.41550
C          0.00240        0.00130        2.41500
C         -0.69560        0.00500        1.21050
C         -0.74190        0.01550       -1.30220
C         -1.93330       -0.90380       -1.28660
N         -1.67030       -2.27130       -1.40390
C         -2.71680       -3.21600       -1.51970
O         -2.48390       -4.39420       -1.70870
N         -4.01410       -2.74100       -1.37790
H         -4.77750       -3.41980       -1.44070
C         -4.34330       -1.36510       -1.21670
O         -5.52580       -1.11620       -1.16100
C         -3.21270       -0.45060       -1.14940
C         -3.56150        1.00000       -0.95530
C         -4.34680        1.51550       -2.16880
C         -4.36730        1.19580        0.33630
C         -0.31110       -2.78580       -1.65910
O          0.14740       -2.40160       -2.92470
C         -0.49190       -3.01820       -4.03760
C         -1.62440       -2.15000       -4.49840
C         -1.40170       -0.78630       -4.69580
C         -2.45480        0.04150       -5.07630
C         -3.72860       -0.49310       -5.26530
C         -3.94590       -1.85780       -5.08420
C         -2.89450       -2.68830       -4.70190
H          1.94560        0.00210       -0.93970
H          3.17960       -0.00030        1.20660
H          1.94050       -0.00400        3.35710
H         -0.54260       -0.00020        3.35750
H         -1.78660        0.00900        1.21390
H         -0.07520       -0.23750       -2.16250
H         -1.06050        1.06400       -1.52680
H         -2.62540        1.61070       -0.86350
H         -5.32670        1.02260       -2.24470
H         -3.81090        1.31850       -3.10360
H         -4.52790        2.59150       -2.09660
H         -5.35490        0.71690        0.26730
H         -4.53630        2.25810        0.53710
H         -3.85610        0.76420        1.20170
H         -0.29710       -3.89500       -1.54350
H          0.42610       -2.30570       -0.97330
H         -0.80680       -4.05020       -3.79210
H          0.32610       -3.06020       -4.78610
H         -0.40530       -0.37460       -4.54530
H         -2.28190        1.10500       -5.22620
H         -4.55460        0.15470       -5.55320
H         -4.94090       -2.27530       -5.23350
H         -3.06940       -3.75370       -4.55210
