rmsd238.gzmat
 OpenBabel08211713363D

 51 53  0  0  0  0  0  0  0  0999 V2000
    0.0000    0.0000    0.0000 C   0  0  0  0  0  0  0  0  0  0  0  0
    1.3965    0.0000    0.0000 C   0  0  0  0  0  0  0  0  0  0  0  0
    2.0913    0.0000    1.2073 C   0  0  0  0  0  0  0  0  0  0  0  0
    1.3961   -0.0002    2.4152 C   0  0  0  0  0  0  0  0  0  0  0  0
    0.0021    0.0038    2.4150 C   0  0  0  0  0  0  0  0  0  0  0  0
   -0.6961    0.0076    1.2105 C   0  0  0  0  0  0  0  0  0  0  0  0
   -0.7403    0.0137   -1.3030 C   0  0  0  0  0  0  0  0  0  0  0  0
   -1.9359   -0.9000   -1.2884 C   0  0  0  0  0  0  0  0  0  0  0  0
   -1.6792   -2.2691   -1.4008 N   0  0  0  0  0  0  0  0  0  0  0  0
   -2.7295   -3.2085   -1.5213 C   0  0  0  0  0  0  0  0  0  0  0  0
   -2.5012   -4.3881   -1.7065 O   0  0  0  0  0  0  0  0  0  0  0  0
   -4.0251   -2.7265   -1.3880 N   0  0  0  0  0  0  0  0  0  0  0  0
   -4.7914   -3.4016   -1.4536 H   0  0  0  0  0  0  0  0  0  0  0  0
   -4.3486   -1.3487   -1.2301 C   0  0  0  0  0  0  0  0  0  0  0  0
   -5.5300   -1.0940   -1.1795 O   0  0  0  0  0  0  0  0  0  0  0  0
   -3.2135   -0.4397   -1.1605 C   0  0  0  0  0  0  0  0  0  0  0  0
   -3.5535    1.0145   -0.9798 C   0  0  0  0  0  0  0  0  0  0  0  0
   -4.3145    1.5276   -2.2094 C   0  0  0  0  0  0  0  0  0  0  0  0
   -4.3756    1.2245    0.2991 C   0  0  0  0  0  0  0  0  0  0  0  0
   -0.3200   -2.7893   -1.6433 C   0  0  0  0  0  0  0  0  0  0  0  0
    0.1570   -2.3940   -2.8986 O   0  0  0  0  0  0  0  0  0  0  0  0
   -0.4687   -2.9958   -4.0270 C   0  0  0  0  0  0  0  0  0  0  0  0
   -1.5878   -2.1165   -4.4997 C   0  0  0  0  0  0  0  0  0  0  0  0
   -2.8586   -2.6448   -4.7245 C   0  0  0  0  0  0  0  0  0  0  0  0
   -3.8959   -1.8067   -5.1279 C   0  0  0  0  0  0  0  0  0  0  0  0
   -3.6646   -0.4441   -5.3076 C   0  0  0  0  0  0  0  0  0  0  0  0
   -2.3904    0.0807   -5.0957 C   0  0  0  0  0  0  0  0  0  0  0  0
   -1.3511   -0.7548   -4.6945 C   0  0  0  0  0  0  0  0  0  0  0  0
    1.9460    0.0015   -0.9393 H   0  0  0  0  0  0  0  0  0  0  0  0
    3.1794   -0.0011    1.2071 H   0  0  0  0  0  0  0  0  0  0  0  0
    1.9413   -0.0040    3.3564 H   0  0  0  0  0  0  0  0  0  0  0  0
   -0.5422    0.0028    3.3577 H   0  0  0  0  0  0  0  0  0  0  0  0
   -1.7871    0.0130    1.2138 H   0  0  0  0  0  0  0  0  0  0  0  0
   -0.0726   -0.2459   -2.1607 H   0  0  0  0  0  0  0  0  0  0  0  0
   -1.0529    1.0629   -1.5329 H   0  0  0  0  0  0  0  0  0  0  0  0
   -2.6140    1.6183   -0.8764 H   0  0  0  0  0  0  0  0  0  0  0  0
   -5.2976    1.0437   -2.2967 H   0  0  0  0  0  0  0  0  0  0  0  0
   -3.7660    1.3173   -3.1337 H   0  0  0  0  0  0  0  0  0  0  0  0
   -4.4850    2.6058   -2.1493 H   0  0  0  0  0  0  0  0  0  0  0  0
   -5.3714    0.7653    0.2141 H   0  0  0  0  0  0  0  0  0  0  0  0
   -4.5259    2.2895    0.5003 H   0  0  0  0  0  0  0  0  0  0  0  0
   -3.8862    0.7801    1.1710 H   0  0  0  0  0  0  0  0  0  0  0  0
   -0.3135   -3.8994   -1.5384 H   0  0  0  0  0  0  0  0  0  0  0  0
    0.4105   -2.3194   -0.9431 H   0  0  0  0  0  0  0  0  0  0  0  0
   -0.7942   -4.0276   -3.7967 H   0  0  0  0  0  0  0  0  0  0  0  0
    0.3615   -3.0364   -4.7623 H   0  0  0  0  0  0  0  0  0  0  0  0
   -3.0442   -3.7084   -4.5766 H   0  0  0  0  0  0  0  0  0  0  0  0
   -4.8911   -2.2164   -5.2943 H   0  0  0  0  0  0  0  0  0  0  0  0
   -4.4792    0.2101   -5.6130 H   0  0  0  0  0  0  0  0  0  0  0  0
   -2.2075    1.1429   -5.2440 H   0  0  0  0  0  0  0  0  0  0  0  0
   -0.3543   -0.3507   -4.5280 H   0  0  0  0  0  0  0  0  0  0  0  0
  1  6  1  0  0  0  0
  2  1  2  0  0  0  0
  2  3  1  0  0  0  0
  3  4  2  0  0  0  0
  4 31  1  0  0  0  0
  5  4  1  0  0  0  0
  5 32  1  0  0  0  0
  6 33  1  0  0  0  0
  6  5  2  0  0  0  0
  7  8  1  0  0  0  0
  7  1  1  0  0  0  0
  8 16  2  0  0  0  0
  9  8  1  0  0  0  0
 10  9  1  0  0  0  0
 10 12  1  0  0  0  0
 11 10  2  0  0  0  0
 12 14  1  0  0  0  0
 13 12  1  0  0  0  0
 14 15  2  0  0  0  0
 14 16  1  0  0  0  0
 16 17  1  0  0  0  0
 17 36  1  0  0  0  0
 17 19  1  0  0  0  0
 18 39  1  0  0  0  0
 18 17  1  0  0  0  0
 19 41  1  0  0  0  0
 19 42  1  0  0  0  0
 20 43  1  0  0  0  0
 20  9  1  0  0  0  0
 20 44  1  0  0  0  0
 21 20  1  0  0  0  0
 22 45  1  0  0  0  0
 22 21  1  0  0  0  0
 23 22  1  0  0  0  0
 24 47  1  0  0  0  0
 24 23  2  0  0  0  0
 25 24  1  0  0  0  0
 26 25  2  0  0  0  0
 26 27  1  0  0  0  0
 27 28  2  0  0  0  0
 28 51  1  0  0  0  0
 28 23  1  0  0  0  0
 29  2  1  0  0  0  0
 30  3  1  0  0  0  0
 34  7  1  0  0  0  0
 35  7  1  0  0  0  0
 37 18  1  0  0  0  0
 38 18  1  0  0  0  0
 40 19  1  0  0  0  0
 46 22  1  0  0  0  0
 48 25  1  0  0  0  0
 49 26  1  0  0  0  0
 50 27  1  0  0  0  0
M  END
$$$$
