51
rmsd103.gzmat
C          0.00000        0.00000        0.00000
C          1.39610        0.00000        0.00000
C          2.09320        0.00000        1.20540
C          1.39970        0.00320        2.41450
C          0.00570        0.00910        2.41540
C         -0.69480        0.00760        1.21150
C         -0.76710        0.01510       -1.28820
C         -0.11960       -0.83190       -2.34990
N         -0.30480       -2.21230       -2.24960
C          0.16810       -3.09650       -3.24370
O         -0.05130       -4.29050       -3.18700
N          0.90470       -2.54020       -4.28270
H          1.26900       -3.17490       -4.99840
C          1.17920       -1.14870       -4.40930
O          1.83460       -0.83260       -5.37530
C          0.62130       -0.30080       -3.36550
C          0.90700        1.17010       -3.49980
C          2.42000        1.42840       -3.51630
C          0.24710        1.71920       -4.77190
C         -1.10850       -2.81170       -1.16060
O         -2.45010       -2.45750       -1.32940
C         -3.18750       -3.24800       -2.25670
C         -3.43540       -4.61280       -1.69040
C         -4.35230       -4.77190       -0.65060
C         -4.57210       -6.03480       -0.10520
C         -3.87510       -7.13770       -0.59680
C         -2.95680       -6.97750       -1.63330
C         -2.73500       -5.71580       -2.18060
H          1.94410       -0.00030       -0.94340
H          3.18210       -0.00230        1.20150
H          1.94480        0.00140        3.35560
H         -0.53740        0.01350        3.35840
H         -1.78310        0.01310        1.22020
H         -0.86600        1.07290       -1.63780
H         -1.82870       -0.30060       -1.13710
H          0.48290        1.72600       -2.62280
H          2.88670        1.01490       -4.42220
H          2.91690        0.97240       -2.65480
H          2.63560        2.50130       -3.50250
H          0.68690        1.26860       -5.67360
H          0.38250        2.80170       -4.85320
H         -0.82620        1.50810       -4.79040
H         -0.83950       -2.35450       -0.18030
H         -0.96040       -3.91670       -1.13680
H         -2.66590       -3.27230       -3.23120
H         -4.11780       -2.65460       -2.36280
H         -4.88900       -3.90810       -0.26260
H         -5.28680       -6.16000        0.70480
H         -4.04700       -8.12370       -0.16990
H         -2.40790       -7.83690       -2.01380
H         -2.00450       -5.59260       -2.98450
