rmsd180.gzmat
 OpenBabel08211713363D

 51 53  0  0  0  0  0  0  0  0999 V2000
    0.0000    0.0000    0.0000 C   0  0  0  0  0  0  0  0  0  0  0  0
    1.3961    0.0000    0.0000 C   0  0  0  0  0  0  0  0  0  0  0  0
    2.0919    0.0000    1.2057 C   0  0  0  0  0  0  0  0  0  0  0  0
    1.3975   -0.0006    2.4144 C   0  0  0  0  0  0  0  0  0  0  0  0
    0.0040    0.0029    2.4147 C   0  0  0  0  0  0  0  0  0  0  0  0
   -0.6961    0.0065    1.2104 C   0  0  0  0  0  0  0  0  0  0  0  0
   -0.7579    0.0163   -1.2927 C   0  0  0  0  0  0  0  0  0  0  0  0
   -0.2148   -0.9832   -2.2781 C   0  0  0  0  0  0  0  0  0  0  0  0
   -0.5493   -2.3228   -2.0635 N   0  0  0  0  0  0  0  0  0  0  0  0
   -0.1975   -3.3286   -2.9935 C   0  0  0  0  0  0  0  0  0  0  0  0
   -0.5651   -4.4784   -2.8474 O   0  0  0  0  0  0  0  0  0  0  0  0
    0.6090   -2.9487   -4.0586 N   0  0  0  0  0  0  0  0  0  0  0  0
    0.8855   -3.6738   -4.7260 H   0  0  0  0  0  0  0  0  0  0  0  0
    1.0153   -1.6071   -4.3090 C   0  0  0  0  0  0  0  0  0  0  0  0
    1.6725   -1.4399   -5.3107 O   0  0  0  0  0  0  0  0  0  0  0  0
    0.5755   -0.6229   -3.3303 C   0  0  0  0  0  0  0  0  0  0  0  0
    1.0159    0.7929   -3.5849 C   0  0  0  0  0  0  0  0  0  0  0  0
    2.5456    0.8814   -3.6709 C   0  0  0  0  0  0  0  0  0  0  0  0
    0.3669    1.3162   -4.8732 C   0  0  0  0  0  0  0  0  0  0  0  0
   -1.4735   -2.7326   -0.9885 C   0  0  0  0  0  0  0  0  0  0  0  0
   -2.7587   -2.2208   -1.2019 O   0  0  0  0  0  0  0  0  0  0  0  0
   -3.5094   -2.8174   -2.2540 C   0  0  0  0  0  0  0  0  0  0  0  0
   -3.2600   -2.0710   -3.5304 C   0  0  0  0  0  0  0  0  0  0  0  0
   -2.8460   -2.7463   -4.6780 C   0  0  0  0  0  0  0  0  0  0  0  0
   -2.5700   -2.0308   -5.8410 C   0  0  0  0  0  0  0  0  0  0  0  0
   -2.7112   -0.6445   -5.8585 C   0  0  0  0  0  0  0  0  0  0  0  0
   -3.1424    0.0277   -4.7156 C   0  0  0  0  0  0  0  0  0  0  0  0
   -3.4199   -0.6851   -3.5519 C   0  0  0  0  0  0  0  0  0  0  0  0
    1.9421   -0.0023   -0.9446 H   0  0  0  0  0  0  0  0  0  0  0  0
    3.1804    0.0013    1.2036 H   0  0  0  0  0  0  0  0  0  0  0  0
    1.9420   -0.0031    3.3556 H   0  0  0  0  0  0  0  0  0  0  0  0
   -0.5393    0.0034    3.3575 H   0  0  0  0  0  0  0  0  0  0  0  0
   -1.7844    0.0171    1.2178 H   0  0  0  0  0  0  0  0  0  0  0  0
   -0.7232    1.0480   -1.7236 H   0  0  0  0  0  0  0  0  0  0  0  0
   -1.8508   -0.1547   -1.1362 H   0  0  0  0  0  0  0  0  0  0  0  0
    0.6894    1.4538   -2.7393 H   0  0  0  0  0  0  0  0  0  0  0  0
    2.9253    0.3731   -4.5689 H   0  0  0  0  0  0  0  0  0  0  0  0
    3.0270    0.4148   -2.8065 H   0  0  0  0  0  0  0  0  0  0  0  0
    2.8769    1.9226   -3.7227 H   0  0  0  0  0  0  0  0  0  0  0  0
    0.7266    0.7597   -5.7504 H   0  0  0  0  0  0  0  0  0  0  0  0
    0.6037    2.3715   -5.0359 H   0  0  0  0  0  0  0  0  0  0  0  0
   -0.7227    1.2080   -4.8436 H   0  0  0  0  0  0  0  0  0  0  0  0
   -1.1788   -2.2615   -0.0206 H   0  0  0  0  0  0  0  0  0  0  0  0
   -1.4876   -3.8444   -0.9016 H   0  0  0  0  0  0  0  0  0  0  0  0
   -4.5521   -2.6877   -1.8974 H   0  0  0  0  0  0  0  0  0  0  0  0
   -3.2891   -3.8988   -2.3308 H   0  0  0  0  0  0  0  0  0  0  0  0
   -2.7237   -3.8299   -4.6636 H   0  0  0  0  0  0  0  0  0  0  0  0
   -2.2357   -2.5554   -6.7350 H   0  0  0  0  0  0  0  0  0  0  0  0
   -2.4826   -0.0865   -6.7648 H   0  0  0  0  0  0  0  0  0  0  0  0
   -3.2631    1.1088   -4.7329 H   0  0  0  0  0  0  0  0  0  0  0  0
   -3.7560   -0.1661   -2.6562 H   0  0  0  0  0  0  0  0  0  0  0  0
  1  6  1  0  0  0  0
  2  1  2  0  0  0  0
  2  3  1  0  0  0  0
  3  4  2  0  0  0  0
  4  5  1  0  0  0  0
  4 31  1  0  0  0  0
  5 32  1  0  0  0  0
  6 33  1  0  0  0  0
  6  5  2  0  0  0  0
  7 35  1  0  0  0  0
  7  1  1  0  0  0  0
  8  9  1  0  0  0  0
  8  7  1  0  0  0  0
  9 20  1  0  0  0  0
 10 11  2  0  0  0  0
 10  9  1  0  0  0  0
 12 10  1  0  0  0  0
 13 12  1  0  0  0  0
 14 12  1  0  0  0  0
 14 16  1  0  0  0  0
 15 14  2  0  0  0  0
 16  8  2  0  0  0  0
 17 16  1  0  0  0  0
 17 36  1  0  0  0  0
 18 17  1  0  0  0  0
 18 38  1  0  0  0  0
 19 42  1  0  0  0  0
 19 17  1  0  0  0  0
 20 44  1  0  0  0  0
 20 43  1  0  0  0  0
 21 20  1  0  0  0  0
 22 45  1  0  0  0  0
 22 21  1  0  0  0  0
 23 22  1  0  0  0  0
 24 47  1  0  0  0  0
 24 23  2  0  0  0  0
 25 24  1  0  0  0  0
 26 25  2  0  0  0  0
 26 27  1  0  0  0  0
 27 28  2  0  0  0  0
 28 23  1  0  0  0  0
 28 51  1  0  0  0  0
 29  2  1  0  0  0  0
 30  3  1  0  0  0  0
 34  7  1  0  0  0  0
 37 18  1  0  0  0  0
 39 18  1  0  0  0  0
 40 19  1  0  0  0  0
 41 19  1  0  0  0  0
 46 22  1  0  0  0  0
 48 25  1  0  0  0  0
 49 26  1  0  0  0  0
 50 27  1  0  0  0  0
M  END
$$$$
