rmsd151.gzmat
 OpenBabel08211713363D

 51 53  0  0  0  0  0  0  0  0999 V2000
    0.0000    0.0000    0.0000 C   0  0  0  0  0  0  0  0  0  0  0  0
    1.3968    0.0000    0.0000 C   0  0  0  0  0  0  0  0  0  0  0  0
    2.0926    0.0000    1.2066 C   0  0  0  0  0  0  0  0  0  0  0  0
    1.3974   -0.0046    2.4145 C   0  0  0  0  0  0  0  0  0  0  0  0
    0.0033   -0.0004    2.4141 C   0  0  0  0  0  0  0  0  0  0  0  0
   -0.6959    0.0076    1.2099 C   0  0  0  0  0  0  0  0  0  0  0  0
   -0.7346    0.0157   -1.3058 C   0  0  0  0  0  0  0  0  0  0  0  0
   -1.9732   -0.8378   -1.2817 C   0  0  0  0  0  0  0  0  0  0  0  0
   -1.7823   -2.2208   -1.3460 N   0  0  0  0  0  0  0  0  0  0  0  0
   -2.8754   -3.1111   -1.4592 C   0  0  0  0  0  0  0  0  0  0  0  0
   -2.7025   -4.3054   -1.6059 O   0  0  0  0  0  0  0  0  0  0  0  0
   -4.1478   -2.5625   -1.3642 N   0  0  0  0  0  0  0  0  0  0  0  0
   -4.9455   -3.2014   -1.4208 H   0  0  0  0  0  0  0  0  0  0  0  0
   -4.4056   -1.1665   -1.2519 C   0  0  0  0  0  0  0  0  0  0  0  0
   -5.5739   -0.8538   -1.2257 O   0  0  0  0  0  0  0  0  0  0  0  0
   -3.2288   -0.3121   -1.1934 C   0  0  0  0  0  0  0  0  0  0  0  0
   -3.4991    1.1628   -1.0718 C   0  0  0  0  0  0  0  0  0  0  0  0
   -4.2073    1.6658   -2.3371 C   0  0  0  0  0  0  0  0  0  0  0  0
   -4.3359    1.4620    0.1792 C   0  0  0  0  0  0  0  0  0  0  0  0
   -0.4451   -2.8149   -1.5360 C   0  0  0  0  0  0  0  0  0  0  0  0
    0.0853   -2.4846   -2.7886 O   0  0  0  0  0  0  0  0  0  0  0  0
   -0.5540   -3.0724   -3.9165 C   0  0  0  0  0  0  0  0  0  0  0  0
   -1.5861   -2.1225   -4.4473 C   0  0  0  0  0  0  0  0  0  0  0  0
   -2.8831   -2.5602   -4.7128 C   0  0  0  0  0  0  0  0  0  0  0  0
   -3.8386   -1.6563   -5.1719 C   0  0  0  0  0  0  0  0  0  0  0  0
   -3.5002   -0.3182   -5.3644 C   0  0  0  0  0  0  0  0  0  0  0  0
   -2.2005    0.1162   -5.1088 C   0  0  0  0  0  0  0  0  0  0  0  0
   -1.2418   -0.7861   -4.6548 C   0  0  0  0  0  0  0  0  0  0  0  0
    1.9454    0.0011   -0.9399 H   0  0  0  0  0  0  0  0  0  0  0  0
    3.1810    0.0028    1.2049 H   0  0  0  0  0  0  0  0  0  0  0  0
    1.9426   -0.0109    3.3554 H   0  0  0  0  0  0  0  0  0  0  0  0
   -0.5411   -0.0043    3.3566 H   0  0  0  0  0  0  0  0  0  0  0  0
   -1.7867    0.0180    1.2137 H   0  0  0  0  0  0  0  0  0  0  0  0
   -0.0754   -0.2978   -2.1527 H   0  0  0  0  0  0  0  0  0  0  0  0
   -0.9935    1.0734   -1.5632 H   0  0  0  0  0  0  0  0  0  0  0  0
   -2.5328    1.7234   -0.9689 H   0  0  0  0  0  0  0  0  0  0  0  0
   -5.1984    1.2027   -2.4461 H   0  0  0  0  0  0  0  0  0  0  0  0
   -3.6339    1.4221   -3.2382 H   0  0  0  0  0  0  0  0  0  0  0  0
   -4.3546    2.7488   -2.3059 H   0  0  0  0  0  0  0  0  0  0  0  0
   -5.3479    1.0405    0.0938 H   0  0  0  0  0  0  0  0  0  0  0  0
   -4.4457    2.5402    0.3295 H   0  0  0  0  0  0  0  0  0  0  0  0
   -3.8805    1.0390    1.0793 H   0  0  0  0  0  0  0  0  0  0  0  0
   -0.4973   -3.9205   -1.3989 H   0  0  0  0  0  0  0  0  0  0  0  0
    0.2901   -2.3601   -0.8306 H   0  0  0  0  0  0  0  0  0  0  0  0
   -0.9673   -4.0675   -3.6653 H   0  0  0  0  0  0  0  0  0  0  0  0
    0.2890   -3.2015   -4.6260 H   0  0  0  0  0  0  0  0  0  0  0  0
   -3.1543   -3.6037   -4.5533 H   0  0  0  0  0  0  0  0  0  0  0  0
   -4.8539   -1.9948   -5.3731 H   0  0  0  0  0  0  0  0  0  0  0  0
   -4.2519    0.3873   -5.7137 H   0  0  0  0  0  0  0  0  0  0  0  0
   -1.9341    1.1592   -5.2657 H   0  0  0  0  0  0  0  0  0  0  0  0
   -0.2242   -0.4535   -4.4571 H   0  0  0  0  0  0  0  0  0  0  0  0
  1  6  1  0  0  0  0
  2  1  2  0  0  0  0
  2  3  1  0  0  0  0
  3  4  2  0  0  0  0
  4 31  1  0  0  0  0
  5  4  1  0  0  0  0
  5 32  1  0  0  0  0
  6 33  1  0  0  0  0
  6  5  2  0  0  0  0
  7  8  1  0  0  0  0
  7  1  1  0  0  0  0
  8 16  2  0  0  0  0
  9  8  1  0  0  0  0
 10 12  1  0  0  0  0
 10  9  1  0  0  0  0
 11 10  2  0  0  0  0
 12 14  1  0  0  0  0
 13 12  1  0  0  0  0
 14 15  2  0  0  0  0
 14 16  1  0  0  0  0
 16 17  1  0  0  0  0
 17 36  1  0  0  0  0
 17 19  1  0  0  0  0
 18 39  1  0  0  0  0
 18 17  1  0  0  0  0
 19 41  1  0  0  0  0
 19 42  1  0  0  0  0
 20 43  1  0  0  0  0
 20  9  1  0  0  0  0
 20 44  1  0  0  0  0
 21 20  1  0  0  0  0
 22 45  1  0  0  0  0
 22 21  1  0  0  0  0
 23 22  1  0  0  0  0
 24 47  1  0  0  0  0
 24 23  2  0  0  0  0
 25 24  1  0  0  0  0
 26 25  2  0  0  0  0
 26 27  1  0  0  0  0
 27 28  2  0  0  0  0
 28 51  1  0  0  0  0
 28 23  1  0  0  0  0
 29  2  1  0  0  0  0
 30  3  1  0  0  0  0
 34  7  1  0  0  0  0
 35  7  1  0  0  0  0
 37 18  1  0  0  0  0
 38 18  1  0  0  0  0
 40 19  1  0  0  0  0
 46 22  1  0  0  0  0
 48 25  1  0  0  0  0
 49 26  1  0  0  0  0
 50 27  1  0  0  0  0
M  END
$$$$
