51
rmsd47.gzmat
C          0.00000        0.00000        0.00000
C          1.39620        0.00000        0.00000
C          2.09240        0.00000        1.20590
C          1.39810        0.00720        2.41480
C          0.00410        0.01310        2.41520
C         -0.69610        0.00820        1.21120
C         -0.76500        0.01710       -1.28820
C         -0.13690       -0.85650       -2.33940
N         -0.33650       -2.23380       -2.21120
C          0.09490       -3.13680       -3.21040
O         -0.16080       -4.32340       -3.13970
N          0.84290       -2.61090       -4.25550
H          1.17840       -3.25990       -4.97250
C          1.12010       -1.22290       -4.41580
O          1.74420       -0.92800       -5.40900
C          0.60340       -0.35380       -3.36900
C          0.90690        1.11100       -3.52760
C          2.42090        1.34640       -3.61420
C          0.19780        1.65600       -4.77450
C         -1.21000       -2.80120       -1.16630
O         -2.54760       -2.44170       -1.37010
C         -3.17800       -2.99280       -2.52200
C         -3.09840       -1.99660       -3.64090
C         -2.65060       -2.37770       -4.90540
C         -2.55260       -1.42800       -5.92060
C         -2.90220       -0.10150       -5.67340
C         -3.35730        0.27680       -4.41080
C         -3.45960       -0.67080       -3.39560
H          1.94370       -0.00100       -0.94370
H          3.18120       -0.00540        1.20320
H          1.94290        0.00880        3.35610
H         -0.53920        0.02080        3.35830
H         -1.78450        0.01320        1.21880
H         -0.84100        1.07240       -1.65210
H         -1.83370       -0.27530       -1.13830
H          0.53050        1.67940       -2.63680
H          2.83730        0.93300       -4.54430
H          2.95090        0.87400       -2.78180
H          2.65330        2.41560       -3.60160
H          0.60610        1.20390       -5.68990
H          0.32190        2.73900       -4.86070
H         -0.87490        1.43390       -4.75270
H         -0.98140       -2.34720       -0.17300
H         -1.09300       -3.91000       -1.13410
H         -4.22210       -3.13970       -2.17590
H         -2.74590       -3.97770       -2.78270
H         -2.36950       -3.41230       -5.10040
H         -2.19420       -1.72160       -6.90650
H         -2.81960        0.63900       -6.46690
H         -3.63510        1.31110       -4.21940
H         -3.81840       -0.38320       -2.40850
