rmsd221.gzmat
 OpenBabel08211713363D

 51 53  0  0  0  0  0  0  0  0999 V2000
    0.0000    0.0000    0.0000 C   0  0  0  0  0  0  0  0  0  0  0  0
    1.3960    0.0000    0.0000 C   0  0  0  0  0  0  0  0  0  0  0  0
    2.0920    0.0000    1.2056 C   0  0  0  0  0  0  0  0  0  0  0  0
    1.3978    0.0008    2.4144 C   0  0  0  0  0  0  0  0  0  0  0  0
    0.0041   -0.0013    2.4149 C   0  0  0  0  0  0  0  0  0  0  0  0
   -0.6960   -0.0040    1.2106 C   0  0  0  0  0  0  0  0  0  0  0  0
   -0.7556   -0.0185   -1.2940 C   0  0  0  0  0  0  0  0  0  0  0  0
   -0.2392    1.0097   -2.2636 C   0  0  0  0  0  0  0  0  0  0  0  0
   -0.6172    2.3351   -2.0310 N   0  0  0  0  0  0  0  0  0  0  0  0
   -0.3044    3.3632   -2.9505 C   0  0  0  0  0  0  0  0  0  0  0  0
   -0.7204    4.4951   -2.7949 O   0  0  0  0  0  0  0  0  0  0  0  0
    0.5197    3.0266   -4.0161 N   0  0  0  0  0  0  0  0  0  0  0  0
    0.7748    3.7696   -4.6722 H   0  0  0  0  0  0  0  0  0  0  0  0
    0.9831    1.7052   -4.2756 C   0  0  0  0  0  0  0  0  0  0  0  0
    1.6632    1.5786   -5.2679 O   0  0  0  0  0  0  0  0  0  0  0  0
    0.5645    0.6913   -3.3192 C   0  0  0  0  0  0  0  0  0  0  0  0
    1.0413   -0.7065   -3.6059 C   0  0  0  0  0  0  0  0  0  0  0  0
    0.4469   -1.1975   -4.9330 C   0  0  0  0  0  0  0  0  0  0  0  0
    2.5745   -0.7628   -3.6467 C   0  0  0  0  0  0  0  0  0  0  0  0
   -1.5521    2.7043   -0.9509 C   0  0  0  0  0  0  0  0  0  0  0  0
   -2.8289    2.1771   -1.1772 O   0  0  0  0  0  0  0  0  0  0  0  0
   -3.5549    2.7338   -2.2684 C   0  0  0  0  0  0  0  0  0  0  0  0
   -3.3333    1.8850   -3.4849 C   0  0  0  0  0  0  0  0  0  0  0  0
   -3.5043    0.5029   -3.3908 C   0  0  0  0  0  0  0  0  0  0  0  0
   -3.2579   -0.3046   -4.4980 C   0  0  0  0  0  0  0  0  0  0  0  0
   -2.8495    0.2689   -5.7016 C   0  0  0  0  0  0  0  0  0  0  0  0
   -2.6940    1.6507   -5.7986 C   0  0  0  0  0  0  0  0  0  0  0  0
   -2.9364    2.4610   -4.6914 C   0  0  0  0  0  0  0  0  0  0  0  0
    1.9423    0.0051   -0.9446 H   0  0  0  0  0  0  0  0  0  0  0  0
    3.1806    0.0010    1.2033 H   0  0  0  0  0  0  0  0  0  0  0  0
    1.9424    0.0044    3.3558 H   0  0  0  0  0  0  0  0  0  0  0  0
   -0.5389   -0.0006    3.3580 H   0  0  0  0  0  0  0  0  0  0  0  0
   -1.7844   -0.0114    1.2182 H   0  0  0  0  0  0  0  0  0  0  0  0
   -1.8532    0.1209   -1.1370 H   0  0  0  0  0  0  0  0  0  0  0  0
   -0.6923   -1.0429   -1.7392 H   0  0  0  0  0  0  0  0  0  0  0  0
    0.7000   -1.4026   -2.7955 H   0  0  0  0  0  0  0  0  0  0  0  0
    0.8634   -0.6381   -5.7832 H   0  0  0  0  0  0  0  0  0  0  0  0
   -0.6404   -1.0644   -4.9576 H   0  0  0  0  0  0  0  0  0  0  0  0
    0.6661   -2.2559   -5.0977 H   0  0  0  0  0  0  0  0  0  0  0  0
    2.9748   -0.1733   -4.4843 H   0  0  0  0  0  0  0  0  0  0  0  0
    2.9260   -1.7907   -3.7778 H   0  0  0  0  0  0  0  0  0  0  0  0
    3.0196   -0.3657   -2.7299 H   0  0  0  0  0  0  0  0  0  0  0  0
   -1.5892    3.8138   -0.8422 H   0  0  0  0  0  0  0  0  0  0  0  0
   -1.2520    2.2212    0.0087 H   0  0  0  0  0  0  0  0  0  0  0  0
   -3.2880    3.7962   -2.4240 H   0  0  0  0  0  0  0  0  0  0  0  0
   -4.6036    2.6758   -1.9105 H   0  0  0  0  0  0  0  0  0  0  0  0
   -3.8264    0.0619   -2.4491 H   0  0  0  0  0  0  0  0  0  0  0  0
   -3.3860   -1.3827   -4.4237 H   0  0  0  0  0  0  0  0  0  0  0  0
   -2.6518   -0.3617   -6.5665 H   0  0  0  0  0  0  0  0  0  0  0  0
   -2.3743    2.0974   -6.7391 H   0  0  0  0  0  0  0  0  0  0  0  0
   -2.8062    3.5403   -4.7689 H   0  0  0  0  0  0  0  0  0  0  0  0
  1  6  1  0  0  0  0
  2  1  2  0  0  0  0
  2  3  1  0  0  0  0
  3  4  2  0  0  0  0
  4  5  1  0  0  0  0
  4 31  1  0  0  0  0
  5 32  1  0  0  0  0
  6 33  1  0  0  0  0
  6  5  2  0  0  0  0
  7 34  1  0  0  0  0
  7  1  1  0  0  0  0
  8  9  1  0  0  0  0
  8  7  1  0  0  0  0
  9 20  1  0  0  0  0
 10 11  2  0  0  0  0
 10  9  1  0  0  0  0
 12 10  1  0  0  0  0
 13 12  1  0  0  0  0
 14 12  1  0  0  0  0
 14 16  1  0  0  0  0
 15 14  2  0  0  0  0
 16  8  2  0  0  0  0
 17 16  1  0  0  0  0
 17 36  1  0  0  0  0
 18 17  1  0  0  0  0
 19 17  1  0  0  0  0
 19 42  1  0  0  0  0
 20 43  1  0  0  0  0
 20 44  1  0  0  0  0
 21 20  1  0  0  0  0
 22 46  1  0  0  0  0
 22 21  1  0  0  0  0
 23 24  1  0  0  0  0
 23 22  1  0  0  0  0
 24 47  1  0  0  0  0
 25 48  1  0  0  0  0
 25 24  2  0  0  0  0
 26 25  1  0  0  0  0
 27 26  2  0  0  0  0
 27 28  1  0  0  0  0
 28 23  2  0  0  0  0
 29  2  1  0  0  0  0
 30  3  1  0  0  0  0
 35  7  1  0  0  0  0
 37 18  1  0  0  0  0
 38 18  1  0  0  0  0
 39 18  1  0  0  0  0
 40 19  1  0  0  0  0
 41 19  1  0  0  0  0
 45 22  1  0  0  0  0
 49 26  1  0  0  0  0
 50 27  1  0  0  0  0
 51 28  1  0  0  0  0
M  END
$$$$
