33
rmsd6.gzmat
N          0.00000        0.00000        0.00000
C          1.37270        0.00000        0.00000
C          1.80040        0.00000        1.33950
C          0.66020       -0.00070        2.15790
C         -0.46750       -0.00090        1.31290
C         -1.84940       -0.00670        1.66740
O         -2.13590       -0.07110        3.02830
C         -3.52230       -0.07910        3.11970
C         -4.01380       -0.01740        1.83310
N         -2.94920        0.02960        0.92750
Cl        -5.59420       -0.01630        1.30310
C         -4.05130       -0.16440        4.44950
C         -5.33020        0.34030        4.73640
C         -5.84280        0.24700        6.01850
C         -5.06280       -0.35530        7.02210
C         -3.78660       -0.85540        6.75660
C         -3.28560       -0.75300        5.46310
O         -5.68930       -0.38220        8.22400
C         -4.99140       -0.96330        9.31770
Cl         0.62730       -0.00190        3.82330
Cl         3.39110       -0.00140        1.84590
C         -0.84780       -0.00490       -1.17560
H          1.96540       -0.00130       -0.89660
H         -5.92140        0.81570        3.95220
H         -6.83060        0.63000        6.26330
H         -3.18740       -1.31770        7.53350
H         -2.28680       -1.13660        5.23730
H         -5.70520       -0.82990       10.14270
H         -4.06310       -0.42190        9.52480
H         -4.80760       -2.02770        9.14210
H         -0.25300        0.00010       -2.10400
H         -1.52320        0.87890       -1.17630
H         -1.50890       -0.89870       -1.17910
