33
rmsd32.gzmat
N          0.00000        0.00000        0.00000
C          1.37270        0.00000        0.00000
C          1.80070        0.00000        1.33950
C          0.66040        0.00210        2.15790
C         -0.46720        0.00050        1.31270
C         -1.84940       -0.01040        1.66430
O         -2.13530       -0.13930        3.02000
C         -3.52140       -0.13120        3.11450
C         -4.01330       -0.00100        1.83270
N         -2.94920        0.07260        0.92810
Cl        -5.59350        0.08620        1.30960
C         -4.04470       -0.25700        4.44340
C         -3.24790        0.09920        5.53890
C         -3.73090       -0.03380        6.83600
C         -5.02230       -0.53060        7.02230
C         -5.84020       -0.88580        5.93470
C         -5.34380       -0.74910        4.64980
O         -5.62650       -0.72790        8.21980
C         -4.86780       -0.44590        9.38870
Cl         0.63050        0.00970        3.82330
Cl         3.39000       -0.00520        1.85040
C         -0.85180        0.01270       -1.17240
H          1.96460       -0.00060       -0.89660
H         -2.23760        0.48440        5.37550
H         -3.10470        0.24690        7.67590
H         -6.84240       -1.26560        6.11880
H         -5.96340       -1.03630        3.79890
H         -5.56150       -0.73690       10.18950
H         -4.63690        0.62180        9.45330
H         -3.96180       -1.05870        9.42760
H         -0.26240       -0.03410       -2.10280
H         -1.47990        0.93040       -1.18930
H         -1.55970       -0.84480       -1.15300
