33
rmsd42.gzmat
N          0.00000        0.00000        0.00000
C          1.37260        0.00000        0.00000
C          1.79970        0.00000        1.34000
C          0.65940       -0.00050        2.15820
C         -0.46810       -0.00340        1.31230
C         -1.85130       -0.01320        1.66030
O         -2.14290       -0.02590        3.02030
C         -3.53040       -0.02560        3.10870
C         -4.01650       -0.01770        1.81830
N         -2.94840       -0.01140        0.91560
Cl        -5.59260        0.00100        1.27570
C         -4.05290       -0.01970        4.44350
C         -3.22470        0.37260        5.50350
C         -3.70610        0.38630        6.80740
C         -5.02930        0.00420        7.03750
C         -5.87510       -0.39440        5.98760
C         -5.37910       -0.40750        4.69510
O         -5.64040       -0.03100        8.24710
C         -4.87240        0.35730        9.37940
Cl         0.62710        0.00450        3.82380
Cl         3.38920       -0.00090        1.85030
C         -0.85220        0.00000       -1.17210
H          1.96500        0.00030       -0.89680
H         -2.19130        0.67290        5.30710
H         -3.05450        0.69070        7.61940
H         -6.89970       -0.68760        6.20450
H         -6.02360       -0.72870        3.87550
H         -5.59320        0.23520       10.20000
H         -4.55900        1.40280        9.29890
H         -4.01720       -0.31130        9.51840
H         -0.26250        0.05560       -2.10120
H         -1.55860        0.85930       -1.14430
H         -1.48200       -0.91580       -1.19800
