rmsd32.gzmat
 OpenBabel08211713413D

 33 34  0  0  1  0  0  0  0  0999 V2000
    0.0000    0.0000    0.0000 N   0  0  0  0  0  0  0  0  0  0  0  0
    1.3727    0.0000    0.0000 C   0  0  0  0  0  0  0  0  0  0  0  0
    1.8007    0.0000    1.3395 C   0  0  0  0  0  0  0  0  0  0  0  0
    0.6604    0.0021    2.1579 C   0  0  0  0  0  0  0  0  0  0  0  0
   -0.4672    0.0005    1.3127 C   0  0  0  0  0  0  0  0  0  0  0  0
   -1.8494   -0.0104    1.6643 C   0  0  0  0  0  0  0  0  0  0  0  0
   -2.1353   -0.1393    3.0200 O   0  0  0  0  0  0  0  0  0  0  0  0
   -3.5214   -0.1312    3.1145 C   0  0  1  0  0  0  0  0  0  0  0  0
   -4.0133   -0.0010    1.8327 C   0  0  0  0  0  0  0  0  0  0  0  0
   -2.9492    0.0726    0.9281 N   0  0  0  0  0  0  0  0  0  0  0  0
   -5.5935    0.0862    1.3096 Cl  0  0  0  0  0  0  0  0  0  0  0  0
   -4.0447   -0.2570    4.4434 C   0  0  0  0  0  0  0  0  0  0  0  0
   -3.2479    0.0992    5.5389 C   0  0  0  0  0  0  0  0  0  0  0  0
   -3.7309   -0.0338    6.8360 C   0  0  0  0  0  0  0  0  0  0  0  0
   -5.0223   -0.5306    7.0223 C   0  0  0  0  0  0  0  0  0  0  0  0
   -5.8402   -0.8858    5.9347 C   0  0  0  0  0  0  0  0  0  0  0  0
   -5.3438   -0.7491    4.6498 C   0  0  0  0  0  0  0  0  0  0  0  0
   -5.6265   -0.7279    8.2198 O   0  0  0  0  0  0  0  0  0  0  0  0
   -4.8678   -0.4459    9.3887 C   0  0  0  0  0  0  0  0  0  0  0  0
    0.6305    0.0097    3.8233 Cl  0  0  0  0  0  0  0  0  0  0  0  0
    3.3900   -0.0052    1.8504 Cl  0  0  0  0  0  0  0  0  0  0  0  0
   -0.8518    0.0127   -1.1724 C   0  0  0  0  0  0  0  0  0  0  0  0
    1.9646   -0.0006   -0.8966 H   0  0  0  0  0  0  0  0  0  0  0  0
   -2.2376    0.4844    5.3755 H   0  0  0  0  0  0  0  0  0  0  0  0
   -3.1047    0.2469    7.6759 H   0  0  0  0  0  0  0  0  0  0  0  0
   -6.8424   -1.2656    6.1188 H   0  0  0  0  0  0  0  0  0  0  0  0
   -5.9634   -1.0363    3.7989 H   0  0  0  0  0  0  0  0  0  0  0  0
   -5.5615   -0.7369   10.1895 H   0  0  0  0  0  0  0  0  0  0  0  0
   -4.6369    0.6218    9.4533 H   0  0  0  0  0  0  0  0  0  0  0  0
   -3.9618   -1.0587    9.4276 H   0  0  0  0  0  0  0  0  0  0  0  0
   -0.2624   -0.0341   -2.1028 H   0  0  0  0  0  0  0  0  0  0  0  0
   -1.4799    0.9304   -1.1893 H   0  0  0  0  0  0  0  0  0  0  0  0
   -1.5597   -0.8448   -1.1530 H   0  0  0  0  0  0  0  0  0  0  0  0
  1  2  1  0  0  0  0
  1  5  1  0  0  0  0
  2  3  2  0  0  0  0
  3 21  1  0  0  0  0
  3  4  1  0  0  0  0
  5  6  1  0  0  0  0
  5  4  2  0  0  0  0
  6  7  1  0  0  0  0
  7  8  1  0  0  0  0
  8 12  1  6  0  0  0
  9  8  1  0  0  0  0
 10  6  2  0  0  0  0
 10  9  2  0  0  0  0
 11  9  1  0  0  0  0
 12 17  2  0  0  0  0
 12 13  1  0  0  0  0
 13 14  2  0  0  0  0
 14 15  1  0  0  0  0
 14 25  1  0  0  0  0
 15 18  1  0  0  0  0
 16 26  1  0  0  0  0
 16 15  2  0  0  0  0
 17 16  1  0  0  0  0
 18 19  1  0  0  0  0
 19 30  1  0  0  0  0
 19 29  1  0  0  0  0
 19 28  1  0  0  0  0
 22 33  1  0  0  0  0
 22  1  1  0  0  0  0
 23  2  1  0  0  0  0
 24 13  1  0  0  0  0
 27 17  1  0  0  0  0
 31 22  1  0  0  0  0
 32 22  1  0  0  0  0
M  RAD  3   4   2   8   2  20   2
M  END
$$$$
