33

N         -0.01150        0.03550        0.00650
C          1.34810       -0.08980       -0.05280
C          1.82820       -0.31830        1.22740
C          0.71200       -0.33220        2.10030
C         -0.43260       -0.10900        1.31940
C         -1.81580       -0.02800        1.70850
O         -2.12760       -0.18270        3.01710
C         -3.49390       -0.06210        3.11670
C         -3.92660        0.16360        1.82550
N         -2.86890        0.18220        0.95820
Cl        -5.53530        0.40270        1.25680
C         -4.08080       -0.19170        4.43780
C         -5.47240       -0.08330        4.65390
C         -6.00360       -0.21190        5.92800
C         -5.16720       -0.45310        7.03270
C         -3.78250       -0.56290        6.83250
C         -3.25280       -0.43280        5.54910
O         -5.77970       -0.56330        8.23470
C         -4.99780       -0.80560        9.38240
Cl         0.80330       -0.58180        3.80060
Cl         3.47520       -0.54390        1.67820
C         -0.85900        0.28210       -1.15040
H          1.88910       -0.01010       -0.99150
H         -6.13850        0.10330        3.81260
H         -7.07780       -0.12920        6.10160
H         -3.10690       -0.74940        7.66660
H         -2.17560       -0.51950        5.40170
H         -5.69330       -0.85740       10.23020
H         -4.27190        0.00760        9.56230
H         -4.44870       -1.76140        9.30920
H         -0.21470        0.34530       -2.03670
H         -1.42050        1.21790       -1.03030
H         -1.59020       -0.52700       -1.27810
