rmsd47.gzmat
 OpenBabel08211713413D

 33 35  0  0  1  0  0  0  0  0999 V2000
    0.0000    0.0000    0.0000 N   0  0  0  0  0  0  0  0  0  0  0  0
    1.3729    0.0000    0.0000 C   0  0  0  0  0  0  0  0  0  0  0  0
    1.8004    0.0000    1.3396 C   0  0  0  0  0  0  0  0  0  0  0  0
    0.6602    0.0002    2.1581 C   0  0  0  0  0  0  0  0  0  0  0  0
   -0.4672    0.0005    1.3127 C   0  0  0  0  0  0  0  0  0  0  0  0
   -1.8477    0.0082    1.6711 C   0  0  0  0  0  0  0  0  0  0  0  0
   -2.1238    0.0659    3.0342 O   0  0  0  0  0  0  0  0  0  0  0  0
   -3.5093    0.0789    3.1379 C   0  0  2  0  0  0  0  0  0  0  0  0
   -4.0100    0.0266    1.8540 C   0  0  0  0  0  0  0  0  0  0  0  0
   -2.9528   -0.0200    0.9397 N   0  0  0  0  0  0  0  0  0  0  0  0
   -5.5930    0.0336    1.3323 Cl  0  0  0  0  0  0  0  0  0  0  0  0
   -4.0213    0.1504    4.4750 C   0  0  0  0  0  0  0  0  0  0  0  0
   -3.1827    0.5743    5.5143 C   0  0  0  0  0  0  0  0  0  0  0  0
   -3.6580    0.6490    6.8185 C   0  0  0  0  0  0  0  0  0  0  0  0
   -4.9859    0.2969    7.0693 C   0  0  0  0  0  0  0  0  0  0  0  0
   -5.8436   -0.1290    6.0396 C   0  0  0  0  0  0  0  0  0  0  0  0
   -5.3524   -0.2055    4.7476 C   0  0  0  0  0  0  0  0  0  0  0  0
   -5.5899    0.3186    8.2826 O   0  0  0  0  0  0  0  0  0  0  0  0
   -4.7914    0.6816    9.4018 C   0  0  0  0  0  0  0  0  0  0  0  0
    0.6282   -0.0004    3.8239 Cl  0  0  0  0  0  0  0  0  0  0  0  0
    3.3892    0.0014    1.8516 Cl  0  0  0  0  0  0  0  0  0  0  0  0
   -0.8481    0.0037   -1.1755 C   0  0  0  0  0  0  0  0  0  0  0  0
    1.9646    0.0008   -0.8973 H   0  0  0  0  0  0  0  0  0  0  0  0
   -2.1454    0.8486    5.3014 H   0  0  0  0  0  0  0  0  0  0  0  0
   -2.9983    0.9762    7.6149 H   0  0  0  0  0  0  0  0  0  0  0  0
   -6.8724   -0.3952    6.2711 H   0  0  0  0  0  0  0  0  0  0  0  0
   -6.0040   -0.5540    3.9449 H   0  0  0  0  0  0  0  0  0  0  0  0
   -5.4972    0.5647   10.2358 H   0  0  0  0  0  0  0  0  0  0  0  0
   -4.4615    1.7224    9.3224 H   0  0  0  0  0  0  0  0  0  0  0  0
   -3.9442   -0.0019    9.5189 H   0  0  0  0  0  0  0  0  0  0  0  0
   -0.2540    0.0619   -2.1028 H   0  0  0  0  0  0  0  0  0  0  0  0
   -1.5534    0.8637   -1.1464 H   0  0  0  0  0  0  0  0  0  0  0  0
   -1.4769   -0.9125   -1.2095 H   0  0  0  0  0  0  0  0  0  0  0  0
  1  2  1  0  0  0  0
  1  5  1  0  0  0  0
  2  3  2  0  0  0  0
  3 21  1  0  0  0  0
  3  4  1  0  0  0  0
  4 20  1  0  0  0  0
  5  6  1  0  0  0  0
  5  4  2  0  0  0  0
  6  7  1  0  0  0  0
  7  8  1  0  0  0  0
  8 12  1  6  0  0  0
  9  8  1  0  0  0  0
 10  6  2  0  0  0  0
 10  9  2  0  0  0  0
 11  9  1  0  0  0  0
 12 17  2  0  0  0  0
 12 13  1  0  0  0  0
 13 14  2  0  0  0  0
 14 15  1  0  0  0  0
 14 25  1  0  0  0  0
 15 18  1  0  0  0  0
 16 26  1  0  0  0  0
 16 15  2  0  0  0  0
 17 16  1  0  0  0  0
 18 19  1  0  0  0  0
 19 30  1  0  0  0  0
 19 28  1  0  0  0  0
 22 32  1  0  0  0  0
 22  1  1  0  0  0  0
 23  2  1  0  0  0  0
 24 13  1  0  0  0  0
 27 17  1  0  0  0  0
 29 19  1  0  0  0  0
 31 22  1  0  0  0  0
 33 22  1  0  0  0  0
M  RAD  1   8   2
M  END
$$$$
