rmsd48.gzmat
 OpenBabel08211713413D

 33 35  0  0  1  0  0  0  0  0999 V2000
    0.0000    0.0000    0.0000 N   0  0  0  0  0  0  0  0  0  0  0  0
    1.3726    0.0000    0.0000 C   0  0  0  0  0  0  0  0  0  0  0  0
    1.7999    0.0000    1.3398 C   0  0  0  0  0  0  0  0  0  0  0  0
    0.6594    0.0000    2.1581 C   0  0  0  0  0  0  0  0  0  0  0  0
   -0.4678   -0.0016    1.3123 C   0  0  0  0  0  0  0  0  0  0  0  0
   -1.8509   -0.0018    1.6607 C   0  0  0  0  0  0  0  0  0  0  0  0
   -2.1409    0.0017    3.0214 O   0  0  0  0  0  0  0  0  0  0  0  0
   -3.5275    0.0120    3.1096 C   0  0  2  0  0  0  0  0  0  0  0  0
   -4.0155    0.0115    1.8203 C   0  0  0  0  0  0  0  0  0  0  0  0
   -2.9486    0.0000    0.9165 N   0  0  0  0  0  0  0  0  0  0  0  0
   -5.5948    0.0414    1.2880 Cl  0  0  0  0  0  0  0  0  0  0  0  0
   -4.0537    0.0267    4.4428 C   0  0  0  0  0  0  0  0  0  0  0  0
   -3.2714    0.5348    5.4874 C   0  0  0  0  0  0  0  0  0  0  0  0
   -3.7580    0.5475    6.7897 C   0  0  0  0  0  0  0  0  0  0  0  0
   -5.0365    0.0410    7.0317 C   0  0  0  0  0  0  0  0  0  0  0  0
   -5.8381   -0.4697    5.9949 C   0  0  0  0  0  0  0  0  0  0  0  0
   -5.3393   -0.4753    4.7039 C   0  0  0  0  0  0  0  0  0  0  0  0
   -5.6418   -0.0269    8.2426 O   0  0  0  0  0  0  0  0  0  0  0  0
   -4.9190    0.4655    9.3637 C   0  0  0  0  0  0  0  0  0  0  0  0
    0.6260    0.0030    3.8238 Cl  0  0  0  0  0  0  0  0  0  0  0  0
    3.3898   -0.0014    1.8490 Cl  0  0  0  0  0  0  0  0  0  0  0  0
   -0.8514   -0.0074   -1.1726 C   0  0  0  0  0  0  0  0  0  0  0  0
    1.9639    0.0005   -0.8975 H   0  0  0  0  0  0  0  0  0  0  0  0
   -2.2709    0.9243    5.2789 H   0  0  0  0  0  0  0  0  0  0  0  0
   -3.1443    0.9448    7.5910 H   0  0  0  0  0  0  0  0  0  0  0  0
   -6.8296   -0.8546    6.2216 H   0  0  0  0  0  0  0  0  0  0  0  0
   -5.9457   -0.8808    3.8923 H   0  0  0  0  0  0  0  0  0  0  0  0
   -5.6131    0.2661   10.1916 H   0  0  0  0  0  0  0  0  0  0  0  0
   -4.7380    1.5404    9.2664 H   0  0  0  0  0  0  0  0  0  0  0  0
   -3.9869   -0.0900    9.5062 H   0  0  0  0  0  0  0  0  0  0  0  0
   -0.2623    0.0674   -2.1010 H   0  0  0  0  0  0  0  0  0  0  0  0
   -1.5750    0.8376   -1.1376 H   0  0  0  0  0  0  0  0  0  0  0  0
   -1.4627   -0.9352   -1.2072 H   0  0  0  0  0  0  0  0  0  0  0  0
  1  2  1  0  0  0  0
  1  5  1  0  0  0  0
  2  3  2  0  0  0  0
  3 21  1  0  0  0  0
  3  4  1  0  0  0  0
  4 20  1  0  0  0  0
  5  6  1  0  0  0  0
  5  4  2  0  0  0  0
  6  7  1  0  0  0  0
  7  8  1  0  0  0  0
  8 12  1  6  0  0  0
  9  8  1  0  0  0  0
 10  6  2  0  0  0  0
 10  9  2  0  0  0  0
 11  9  1  0  0  0  0
 12 17  2  0  0  0  0
 12 13  1  0  0  0  0
 13 14  2  0  0  0  0
 14 15  1  0  0  0  0
 14 25  1  0  0  0  0
 15 18  1  0  0  0  0
 16 26  1  0  0  0  0
 16 15  2  0  0  0  0
 17 16  1  0  0  0  0
 18 19  1  0  0  0  0
 19 30  1  0  0  0  0
 19 28  1  0  0  0  0
 22 32  1  0  0  0  0
 22  1  1  0  0  0  0
 23  2  1  0  0  0  0
 24 13  1  0  0  0  0
 27 17  1  0  0  0  0
 29 19  1  0  0  0  0
 31 22  1  0  0  0  0
 33 22  1  0  0  0  0
M  RAD  1   8   2
M  END
$$$$
