rmsd45.gzmat
 OpenBabel08211713413D

 33 35  0  0  1  0  0  0  0  0999 V2000
    0.0000    0.0000    0.0000 N   0  0  0  0  0  0  0  0  0  0  0  0
    1.3729    0.0000    0.0000 C   0  0  0  0  0  0  0  0  0  0  0  0
    1.7999    0.0000    1.3397 C   0  0  0  0  0  0  0  0  0  0  0  0
    0.6592   -0.0002    2.1576 C   0  0  0  0  0  0  0  0  0  0  0  0
   -0.4681   -0.0007    1.3124 C   0  0  0  0  0  0  0  0  0  0  0  0
   -1.8505    0.0035    1.6643 C   0  0  0  0  0  0  0  0  0  0  0  0
   -2.1375    0.0058    3.0260 O   0  0  0  0  0  0  0  0  0  0  0  0
   -3.5245    0.0246    3.1203 C   0  0  2  0  0  0  0  0  0  0  0  0
   -4.0146    0.0296    1.8309 C   0  0  0  0  0  0  0  0  0  0  0  0
   -2.9501    0.0137    0.9243 N   0  0  0  0  0  0  0  0  0  0  0  0
   -5.5904    0.0669    1.2881 Cl  0  0  0  0  0  0  0  0  0  0  0  0
   -4.0447    0.0437    4.4563 C   0  0  0  0  0  0  0  0  0  0  0  0
   -3.1842    0.3144    5.5291 C   0  0  0  0  0  0  0  0  0  0  0  0
   -3.6668    0.3427    6.8324 C   0  0  0  0  0  0  0  0  0  0  0  0
   -5.0247    0.1006    7.0499 C   0  0  0  0  0  0  0  0  0  0  0  0
   -5.9034   -0.1773    5.9882 C   0  0  0  0  0  0  0  0  0  0  0  0
   -5.4053   -0.2075    4.6968 C   0  0  0  0  0  0  0  0  0  0  0  0
   -5.6425    0.1030    8.2568 O   0  0  0  0  0  0  0  0  0  0  0  0
   -4.8382    0.3668    9.3993 C   0  0  0  0  0  0  0  0  0  0  0  0
    0.6307    0.0022    3.8231 Cl  0  0  0  0  0  0  0  0  0  0  0  0
    3.3874    0.0021    1.8561 Cl  0  0  0  0  0  0  0  0  0  0  0  0
   -0.8507    0.0055   -1.1735 C   0  0  0  0  0  0  0  0  0  0  0  0
    1.9647   -0.0003   -0.8971 H   0  0  0  0  0  0  0  0  0  0  0  0
   -2.1236    0.5070    5.3440 H   0  0  0  0  0  0  0  0  0  0  0  0
   -2.9890    0.5508    7.6536 H   0  0  0  0  0  0  0  0  0  0  0  0
   -6.9543   -0.3653    6.1955 H   0  0  0  0  0  0  0  0  0  0  0  0
   -6.0782   -0.4341    3.8687 H   0  0  0  0  0  0  0  0  0  0  0  0
   -5.5729    0.3230   10.2154 H   0  0  0  0  0  0  0  0  0  0  0  0
   -4.3907    1.3638    9.3406 H   0  0  0  0  0  0  0  0  0  0  0  0
   -4.0782   -0.4101    9.5278 H   0  0  0  0  0  0  0  0  0  0  0  0
   -0.2581    0.0223   -2.1026 H   0  0  0  0  0  0  0  0  0  0  0  0
   -1.5275    0.8883   -1.1623 H   0  0  0  0  0  0  0  0  0  0  0  0
   -1.5108   -0.8891   -1.1839 H   0  0  0  0  0  0  0  0  0  0  0  0
  1  2  1  0  0  0  0
  1  5  1  0  0  0  0
  2  3  2  0  0  0  0
  3 21  1  0  0  0  0
  3  4  1  0  0  0  0
  4 20  1  0  0  0  0
  5  6  1  0  0  0  0
  5  4  2  0  0  0  0
  6  7  1  0  0  0  0
  7  8  1  0  0  0  0
  8 12  1  6  0  0  0
  9  8  1  0  0  0  0
 10  6  2  0  0  0  0
 10  9  2  0  0  0  0
 11  9  1  0  0  0  0
 12 17  2  0  0  0  0
 12 13  1  0  0  0  0
 13 14  2  0  0  0  0
 14 15  1  0  0  0  0
 14 25  1  0  0  0  0
 15 18  1  0  0  0  0
 16 26  1  0  0  0  0
 16 15  2  0  0  0  0
 17 16  1  0  0  0  0
 18 19  1  0  0  0  0
 19 30  1  0  0  0  0
 19 28  1  0  0  0  0
 22 32  1  0  0  0  0
 22  1  1  0  0  0  0
 23  2  1  0  0  0  0
 24 13  1  0  0  0  0
 27 17  1  0  0  0  0
 29 19  1  0  0  0  0
 31 22  1  0  0  0  0
 33 22  1  0  0  0  0
M  RAD  1   8   2
M  END
$$$$
