33
rmsd44.gzmat
N          0.00000        0.00000        0.00000
C          1.37300        0.00000        0.00000
C          1.80010        0.00000        1.33980
C          0.65940       -0.00050        2.15760
C         -0.46780        0.00020        1.31240
C         -1.84840       -0.00530        1.67180
O         -2.12120       -0.07580        3.03530
C         -3.50640       -0.08240        3.14360
C         -4.01060       -0.01450        1.86160
N         -2.95570        0.03590        0.94430
Cl        -5.59550       -0.00600        1.34480
C         -4.01460       -0.16480        4.48210
C         -3.17630       -0.60290        5.51580
C         -3.64880       -0.68940        6.82090
C         -4.97350       -0.33190        7.07920
C         -5.83110        0.10820        6.05510
C         -5.34350        0.19340        4.76240
O         -5.57910       -0.36310        8.29170
C         -4.78850       -0.74380        9.41060
Cl         0.62890       -0.00020        3.82300
Cl         3.38840        0.00210        1.85340
C         -0.84880        0.00740       -1.17510
H          1.96520       -0.00110       -0.89680
H         -2.14090       -0.88090        5.29770
H         -2.98970       -1.03170        7.61140
H         -6.85780        0.37660        6.29340
H         -5.99680        0.54890        3.96450
H         -5.50840       -0.66630       10.23770
H         -3.95900       -0.04540        9.55940
H         -4.43430       -1.77410        9.30690
H         -0.25650       -0.05440       -2.10320
H         -1.46780        0.93050       -1.20410
H         -1.56320       -0.84500       -1.14890
