33
rmsd41.gzmat
N          0.00000        0.00000        0.00000
C          1.37290        0.00000        0.00000
C          1.80040        0.00000        1.33960
C          0.66010        0.00020        2.15780
C         -0.46730       -0.00020        1.31250
C         -1.84820        0.00280        1.67010
O         -2.12340        0.07370        3.03280
C         -3.50870        0.07390        3.13740
C         -4.01060        0.00260        1.85510
N         -2.95370       -0.04390        0.94000
Cl        -5.59560       -0.01170        1.33930
C         -4.02010        0.15610        4.47430
C         -3.21110        0.67860        5.49160
C         -3.68600        0.76680        6.79520
C         -4.98160        0.32330        7.06760
C         -5.80830       -0.20470        6.05990
C         -5.31930       -0.28840        4.76750
O         -5.58070        0.34150        8.28350
C         -4.82130        0.84150        9.37700
Cl         0.62960       -0.00040        3.82350
Cl         3.38920       -0.00140        1.85220
C         -0.85000       -0.00860       -1.17370
H          1.96480        0.00060       -0.89700
H         -2.19820        1.02060        5.26110
H         -3.05050        1.17370        7.57440
H         -6.81190       -0.54130        6.30900
H         -5.94600       -0.71060        3.98050
H         -5.52060        0.72600       10.21680
H         -4.57300        1.89700        9.22810
H         -3.92450        0.23540        9.54070
H         -0.25760        0.03130       -2.10270
H         -1.55070        0.85480       -1.15710
H         -1.48450       -0.92150       -1.19100
