45
rmsd164.gzmat
Br         0.00000        0.00000        0.00000
C          1.88810        0.00000        0.00000
C          2.56190        0.00000        1.21710
C          3.95450       -0.00360        1.22320
C          4.64150       -0.00710        0.00550
N          6.07340        0.02380       -0.02230
C          6.85210       -0.79410        0.70800
S          8.51100       -0.71050        0.80230
O          6.17750       -1.68450        1.49600
C          5.80710       -2.95550        0.91170
H          5.64050       -2.81270       -0.18310
C          6.95200       -3.94950        1.15230
C          7.31940       -4.16130        2.62360
H          6.39860       -4.38200        3.22680
N          7.93220       -2.87370        3.17620
H          8.80270       -2.64380        2.64080
H          7.26500       -2.08270        3.00800
C          8.26310       -3.00750        4.66420
H          7.31100       -3.26120        5.20080
C          9.28080       -4.14090        4.83210
C          8.73300       -5.45170        4.26340
C          8.34070       -5.29340        2.79180
C          8.80660       -1.67180        5.14490
C          4.51510       -3.31680        1.62230
C          3.95870        0.00460       -1.21680
C          2.56730        0.00640       -1.21540
H          2.01890        0.01490        2.16620
H          4.49970        0.00670        2.16710
H          6.49940        0.77320       -0.58750
H          7.84480       -3.64660        0.56130
H          6.65810       -4.93040        0.70850
H         10.24910       -3.88500        4.35600
H          9.52340       -4.26480        5.91040
H          7.87070       -5.80730        4.86200
H          9.49550       -6.25440        4.36520
H          7.91380       -6.24560        2.41070
H          9.24130       -5.11640        2.16900
H          9.72430       -1.36170        4.62340
H          9.06580       -1.71310        6.21720
H          8.08130       -0.85160        5.04400
H          3.70190       -2.62390        1.34680
H          4.59740       -3.26680        2.71380
H          4.17630       -4.32740        1.35190
H          4.50550        0.01390       -2.16130
H          2.02580        0.01900       -2.16680
