45
rmsd107.gzmat
Br         0.00000        0.00000        0.00000
C          1.88920        0.00000        0.00000
C          2.56440        0.00000        1.21610
C          3.95820        0.00170        1.22200
C          4.63980        0.01570        0.00250
N          6.07680       -0.00330       -0.03090
C          6.83540        0.94730        0.54150
S          6.35600        2.27020        1.43060
O          8.14550        0.78750        0.16280
C          9.10570        0.23120        1.07500
H          9.86150       -0.12260        0.32610
C          9.67760        1.32180        1.98730
C         10.33070        2.51030        1.27260
H         10.73460        3.22440        2.04380
N          9.26080        3.26170        0.48110
H          8.84210        2.60240       -0.21480
H          8.47500        3.54090        1.12460
C          9.82790        4.49630       -0.22430
H         10.22900        5.18060        0.57120
C         10.95820        4.06120       -1.16170
C         12.04730        3.31730       -0.38690
C         11.46220        2.09500        0.32530
C          8.68850        5.16510       -0.97740
C          8.52810       -0.92050        1.87140
C          3.95730        0.00870       -1.21990
C          2.56590       -0.00130       -1.21690
H          2.02400        0.00130        2.16750
H          4.49620       -0.00620        2.17060
H          6.50810       -0.71500       -0.62820
H         10.43780        0.85210        2.65640
H          8.89430        1.67800        2.69510
H         10.57420        3.43320       -1.99070
H         11.38920        4.95530       -1.66340
H         12.54710        3.99250        0.33580
H         12.85510        2.99890       -1.08050
H         12.25660        1.57350        0.90090
H         11.11410        1.35430       -0.42240
H          8.26170        4.53350       -1.76920
H          9.03440        6.08720       -1.47650
H          7.85930        5.47160       -0.32160
H          7.78770       -0.59920        2.61880
H          9.31240       -1.46340        2.42270
H          8.03940       -1.66450        1.22590
H          4.50170        0.01820       -2.16390
H          2.02430       -0.00770       -2.16710
