45
rmsd5.gzmat
Br         0.00000        0.00000        0.00000
C          1.88810        0.00000        0.00000
C          2.56290        0.00000        1.21680
C          3.95540       -0.02120        1.22080
C          4.64020       -0.04560        0.00230
N          6.07310       -0.06390       -0.01870
C          6.80970       -0.97400        0.64410
S          8.46910       -0.97240        0.76180
O          6.11790       -1.91760        1.34500
C          5.48980       -3.00000        0.62200
H          5.16840       -2.63060       -0.38140
C          6.52450       -4.12440        0.46860
C          7.04080       -4.70460        1.78870
H          6.17980       -4.98790        2.45180
N          7.85400       -3.63760        2.52170
H          8.68110       -3.36580        1.93870
H          7.26970       -2.77210        2.62440
C          8.33080       -4.14560        3.88450
H          7.42130       -4.43940        4.47240
C          9.23040       -5.36500        3.65540
C          8.48870       -6.45650        2.88060
C          7.94250       -5.92300        1.55340
C          9.06820       -3.01110        4.57670
C          4.29430       -3.36720        1.48310
C          3.95790       -0.01980       -1.21950
C          2.56650        0.00200       -1.21630
H          2.02100        0.02740        2.16690
H          4.50400       -0.01090        2.16380
H          6.53210        0.71590       -0.51130
H          7.36860       -3.77470       -0.16580
H          6.05990       -4.94430       -0.12890
H         10.16380       -5.08150        3.12710
H          9.57470       -5.76110        4.63640
H          7.67210       -6.88630        3.49390
H          9.17490       -7.30980        2.68690
H          7.37010       -6.72100        1.03380
H          8.77590       -5.67790        0.86410
H          9.97710       -2.69440        4.04310
H          9.39680       -3.31250        5.58690
H          8.44590       -2.11510        4.71700
H          4.54540       -3.45890        2.54630
H          3.83630       -4.31170        1.15730
H          3.50760       -2.59550        1.42270
H          4.50390       -0.01530       -2.16420
H          2.02430        0.02380       -2.16680
