rmsd12.gzmat
 OpenBabel08211713363D

 45 46  0  0  1  0  0  0  0  0999 V2000
    0.0000    0.0000    0.0000 Br  0  0  0  0  0  0  0  0  0  0  0  0
    1.8880    0.0000    0.0000 C   0  0  0  0  0  0  0  0  0  0  0  0
    2.5651    0.0000    1.2155 C   0  0  0  0  0  0  0  0  0  0  0  0
    3.9581   -0.0208    1.2176 C   0  0  0  0  0  0  0  0  0  0  0  0
    4.6395   -0.0403   -0.0024 C   0  0  0  0  0  0  0  0  0  0  0  0
    6.0725   -0.0446   -0.0297 N   0  0  0  0  0  0  0  0  0  0  0  0
    6.8343   -0.9860    0.5548 C   0  0  0  0  0  0  0  0  0  0  0  0
    8.4996   -0.9552    0.6327 S   0  0  0  0  0  0  0  0  0  0  0  0
    6.2143   -1.9991    1.2133 O   0  0  0  0  0  0  0  0  0  0  0  0
    5.4204   -2.9668    0.4942 C   0  0  1  0  0  0  0  0  0  0  0  0
    4.9893   -2.4921   -0.4189 H   0  0  0  0  0  0  0  0  0  0  0  0
    6.3559   -4.1198    0.0972 C   0  0  0  0  0  0  0  0  0  0  0  0
    7.0239   -4.8360    1.2753 C   0  0  2  0  0  0  0  0  0  0  0  0
    6.2661   -5.0669    2.0715 H   0  0  0  0  0  0  0  0  0  0  0  0
    8.0660   -3.9042    1.8942 N   0  0  0  0  0  0  0  0  0  0  0  0
    8.7835   -3.6538    1.1761 H   0  0  0  0  0  0  0  0  0  0  0  0
    7.5943   -3.0056    2.1693 H   0  0  0  0  0  0  0  0  0  0  0  0
    8.7561   -4.5445    3.1023 C   0  0  1  0  0  0  0  0  0  0  0  0
    7.9623   -4.7651    3.8636 H   0  0  0  0  0  0  0  0  0  0  0  0
    9.4350   -5.8418    2.6510 C   0  0  0  0  0  0  0  0  0  0  0  0
    8.4221   -6.7937    2.0131 C   0  0  0  0  0  0  0  0  0  0  0  0
    7.7204   -6.1269    0.8271 C   0  0  0  0  0  0  0  0  0  0  0  0
    9.7592   -3.5419    3.6505 C   0  0  0  0  0  0  0  0  0  0  0  0
    4.3366   -3.3604    1.4820 C   0  0  0  0  0  0  0  0  0  0  0  0
    3.9547   -0.0160   -1.2232 C   0  0  0  0  0  0  0  0  0  0  0  0
    2.5635    0.0018   -1.2180 C   0  0  0  0  0  0  0  0  0  0  0  0
    2.0252    0.0284    2.1667 H   0  0  0  0  0  0  0  0  0  0  0  0
    4.5096   -0.0126    2.1595 H   0  0  0  0  0  0  0  0  0  0  0  0
    6.5167    0.7740   -0.4733 H   0  0  0  0  0  0  0  0  0  0  0  0
    7.1166   -3.7529   -0.6254 H   0  0  0  0  0  0  0  0  0  0  0  0
    5.7607   -4.8605   -0.4877 H   0  0  0  0  0  0  0  0  0  0  0  0
   10.2693   -5.6359    1.9498 H   0  0  0  0  0  0  0  0  0  0  0  0
    9.9196   -6.3288    3.5259 H   0  0  0  0  0  0  0  0  0  0  0  0
    7.6820   -7.1371    2.7631 H   0  0  0  0  0  0  0  0  0  0  0  0
    8.9334   -7.7219    1.6773 H   0  0  0  0  0  0  0  0  0  0  0  0
    6.9756   -6.8246    0.3880 H   0  0  0  0  0  0  0  0  0  0  0  0
    8.4439   -5.9331    0.0095 H   0  0  0  0  0  0  0  0  0  0  0  0
   10.5657   -3.3032    2.9411 H   0  0  0  0  0  0  0  0  0  0  0  0
   10.2545   -3.9332    4.5559 H   0  0  0  0  0  0  0  0  0  0  0  0
    9.2975   -2.5878    3.9473 H   0  0  0  0  0  0  0  0  0  0  0  0
    4.7198   -3.4781    2.5035 H   0  0  0  0  0  0  0  0  0  0  0  0
    3.8409   -4.2971    1.1930 H   0  0  0  0  0  0  0  0  0  0  0  0
    3.5497   -2.5899    1.5430 H   0  0  0  0  0  0  0  0  0  0  0  0
    4.5005   -0.0065   -2.1683 H   0  0  0  0  0  0  0  0  0  0  0  0
    2.0199    0.0224   -2.1680 H   0  0  0  0  0  0  0  0  0  0  0  0
  1  2  1  0  0  0  0
  2  3  2  0  0  0  0
  3  4  1  0  0  0  0
  3 27  1  0  0  0  0
  4 28  1  0  0  0  0
  5  4  2  0  0  0  0
  6  5  1  0  0  0  0
  6  7  1  0  0  0  0
  7  8  2  0  0  0  0
  7  9  1  0  0  0  0
 10 11  1  6  0  0  0
 10  9  1  0  0  0  0
 10 24  1  0  0  0  0
 12 10  1  0  0  0  0
 12 13  1  0  0  0  0
 13 15  1  0  0  0  0
 13 14  1  1  0  0  0
 15 17  1  0  0  0  0
 15 18  1  0  0  0  0
 16 15  1  0  0  0  0
 18 23  1  0  0  0  0
 18 19  1  1  0  0  0
 20 18  1  0  0  0  0
 20 33  1  0  0  0  0
 21 20  1  0  0  0  0
 21 34  1  0  0  0  0
 22 13  1  0  0  0  0
 22 21  1  0  0  0  0
 23 40  1  0  0  0  0
 23 39  1  0  0  0  0
 24 43  1  0  0  0  0
 24 41  1  0  0  0  0
 25 26  2  0  0  0  0
 25  5  1  0  0  0  0
 26  2  1  0  0  0  0
 29  6  1  0  0  0  0
 30 12  1  0  0  0  0
 31 12  1  0  0  0  0
 32 20  1  0  0  0  0
 35 21  1  0  0  0  0
 36 22  1  0  0  0  0
 37 22  1  0  0  0  0
 38 23  1  0  0  0  0
 42 24  1  0  0  0  0
 44 25  1  0  0  0  0
 45 26  1  0  0  0  0
M  END
$$$$
