45
rmsd51.gzmat
Br         0.00000        0.00000        0.00000
C          1.88830        0.00000        0.00000
C          2.56580        0.00000        1.21680
C          3.95710       -0.01040        1.22020
C          4.64240       -0.02080       -0.00150
N          6.07480       -0.02720        0.03400
C          6.83310       -0.86630       -0.69400
S          8.50240       -0.87030       -0.70370
O          6.12310       -1.63960       -1.56360
C          5.84510       -3.01730       -1.25360
H          4.89640       -3.13490       -1.83890
C          6.97190       -3.90200       -1.79980
C          7.27850       -3.73630       -3.29110
H          8.04670       -4.50160       -3.59450
N          7.89890       -2.35710       -3.52100
H          7.20010       -1.63260       -3.23610
H          8.72780       -2.22690       -2.89000
C          8.30970       -2.15920       -4.98260
H          9.06350       -2.95530       -5.22770
C          7.07160       -2.31670       -5.87160
C          6.41690       -3.68270       -5.65650
C          6.04130       -3.87600       -4.18520
C          8.93240       -0.77830       -5.11130
C          5.61890       -3.25230        0.22450
C          3.95730       -0.00120       -1.21980
C          2.56420        0.00530       -1.21580
H          2.02320        0.01010        2.16780
H          4.50110       -0.01220        2.16660
H          6.51940        0.67290        0.64600
H          6.69670       -4.96780       -1.61150
H          7.89530       -3.75930       -1.19330
H          6.34130       -1.50250       -5.69020
H          7.36440       -2.19850       -6.93800
H          7.08370       -4.49740       -6.00240
H          5.51010       -3.77200       -6.29270
H          5.58430       -4.87740       -4.03580
H          5.25150       -3.15130       -3.89970
H          8.23190        0.03870       -4.88570
H          9.28610       -0.60100       -6.14180
H          9.81280       -0.63870       -4.46570
H          5.25440       -4.27330        0.41960
H          4.85500       -2.57350        0.63490
H          6.52940       -3.12520        0.82780
H          4.50150        0.01890       -2.16300
H          2.02280        0.02400       -2.16530
