rmsd190.gzmat
 OpenBabel08211713363D

 45 46  0  0  1  0  0  0  0  0999 V2000
    0.0000    0.0000    0.0000 Br  0  0  0  0  0  0  0  0  0  0  0  0
    1.8895    0.0000    0.0000 C   0  0  0  0  0  0  0  0  0  0  0  0
    2.5663    0.0000    1.2165 C   0  0  0  0  0  0  0  0  0  0  0  0
    3.9590   -0.0011    1.2184 C   0  0  0  0  0  0  0  0  0  0  0  0
    4.6360   -0.0010   -0.0044 C   0  0  0  0  0  0  0  0  0  0  0  0
    6.0759    0.0347   -0.0001 N   0  0  0  0  0  0  0  0  0  0  0  0
    6.8126   -1.0449   -0.3097 C   0  0  0  0  0  0  0  0  0  0  0  0
    6.2806   -2.5590   -0.7488 S   0  0  0  0  0  0  0  0  0  0  0  0
    8.1406   -0.7934   -0.0694 O   0  0  0  0  0  0  0  0  0  0  0  0
    9.0389   -0.5578   -1.1659 C   0  0  1  0  0  0  0  0  0  0  0  0
    9.8274    0.0191   -0.6159 H   0  0  0  0  0  0  0  0  0  0  0  0
    9.5793   -1.8852   -1.7089 C   0  0  0  0  0  0  0  0  0  0  0  0
   10.2786   -2.7827   -0.6824 C   0  0  2  0  0  0  0  0  0  0  0  0
   10.6698   -3.7007   -1.2037 H   0  0  0  0  0  0  0  0  0  0  0  0
    9.2508   -3.2523    0.3478 N   0  0  0  0  0  0  0  0  0  0  0  0
    8.8500   -2.4094    0.8201 H   0  0  0  0  0  0  0  0  0  0  0  0
    8.4460   -3.7199   -0.1424 H   0  0  0  0  0  0  0  0  0  0  0  0
    9.8666   -4.2024    1.3782 C   0  0  1  0  0  0  0  0  0  0  0  0
   10.2493   -5.0977    0.8177 H   0  0  0  0  0  0  0  0  0  0  0  0
   11.0243   -3.4920    2.0865 C   0  0  0  0  0  0  0  0  0  0  0  0
   12.0683   -3.0136    1.0762 C   0  0  0  0  0  0  0  0  0  0  0  0
   11.4303   -2.0799    0.0451 C   0  0  0  0  0  0  0  0  0  0  0  0
    8.7704   -4.6093    2.3503 C   0  0  0  0  0  0  0  0  0  0  0  0
    8.3989    0.2747   -2.2577 C   0  0  0  0  0  0  0  0  0  0  0  0
    3.9553   -0.0022   -1.2248 C   0  0  0  0  0  0  0  0  0  0  0  0
    2.5623    0.0008   -1.2182 C   0  0  0  0  0  0  0  0  0  0  0  0
    2.0253    0.0020    2.1673 H   0  0  0  0  0  0  0  0  0  0  0  0
    4.5066   -0.0091    2.1608 H   0  0  0  0  0  0  0  0  0  0  0  0
    6.5144    0.8923    0.3422 H   0  0  0  0  0  0  0  0  0  0  0  0
   10.3011   -1.6580   -2.5296 H   0  0  0  0  0  0  0  0  0  0  0  0
    8.7678   -2.4458   -2.2272 H   0  0  0  0  0  0  0  0  0  0  0  0
   10.6597   -2.6435    2.6995 H   0  0  0  0  0  0  0  0  0  0  0  0
   11.4929   -4.1866    2.8183 H   0  0  0  0  0  0  0  0  0  0  0  0
   12.5581   -3.8744    0.5787 H   0  0  0  0  0  0  0  0  0  0  0  0
   12.8926   -2.4867    1.6032 H   0  0  0  0  0  0  0  0  0  0  0  0
   12.1921   -1.7484   -0.6924 H   0  0  0  0  0  0  0  0  0  0  0  0
   11.0861   -1.1503    0.5414 H   0  0  0  0  0  0  0  0  0  0  0  0
    8.3548   -3.7633    2.9154 H   0  0  0  0  0  0  0  0  0  0  0  0
    9.1551   -5.3190    3.1033 H   0  0  0  0  0  0  0  0  0  0  0  0
    7.9274   -5.1200    1.8606 H   0  0  0  0  0  0  0  0  0  0  0  0
    7.6344   -0.2747   -2.8265 H   0  0  0  0  0  0  0  0  0  0  0  0
    9.1452    0.6191   -2.9912 H   0  0  0  0  0  0  0  0  0  0  0  0
    7.9224    1.1816   -1.8589 H   0  0  0  0  0  0  0  0  0  0  0  0
    4.4989   -0.0094   -2.1693 H   0  0  0  0  0  0  0  0  0  0  0  0
    2.0194    0.0031   -2.1680 H   0  0  0  0  0  0  0  0  0  0  0  0
  1  2  1  0  0  0  0
  2  3  2  0  0  0  0
  3  4  1  0  0  0  0
  3 27  1  0  0  0  0
  4 28  1  0  0  0  0
  5  6  1  0  0  0  0
  5  4  2  0  0  0  0
  6 29  1  0  0  0  0
  7  9  1  0  0  0  0
  7  6  1  0  0  0  0
  8  7  2  0  0  0  0
 10 11  1  1  0  0  0
 10  9  1  0  0  0  0
 12 10  1  0  0  0  0
 12 13  1  0  0  0  0
 13 14  1  6  0  0  0
 13 22  1  0  0  0  0
 13 15  1  0  0  0  0
 15 16  1  0  0  0  0
 15 18  1  0  0  0  0
 17 15  1  0  0  0  0
 18 19  1  6  0  0  0
 18 20  1  0  0  0  0
 18 23  1  0  0  0  0
 20 32  1  0  0  0  0
 20 33  1  0  0  0  0
 21 35  1  0  0  0  0
 21 20  1  0  0  0  0
 22 37  1  0  0  0  0
 22 21  1  0  0  0  0
 23 38  1  0  0  0  0
 23 39  1  0  0  0  0
 24 43  1  0  0  0  0
 24 10  1  0  0  0  0
 25 26  2  0  0  0  0
 25  5  1  0  0  0  0
 26  2  1  0  0  0  0
 30 12  1  0  0  0  0
 31 12  1  0  0  0  0
 34 21  1  0  0  0  0
 36 22  1  0  0  0  0
 40 23  1  0  0  0  0
 41 24  1  0  0  0  0
 42 24  1  0  0  0  0
 44 25  1  0  0  0  0
 45 26  1  0  0  0  0
M  END
$$$$
