rmsd155.gzmat
 OpenBabel08211713363D

 45 46  0  0  1  0  0  0  0  0999 V2000
    0.0000    0.0000    0.0000 Br  0  0  0  0  0  0  0  0  0  0  0  0
    1.8881    0.0000    0.0000 C   0  0  0  0  0  0  0  0  0  0  0  0
    2.5659    0.0000    1.2168 C   0  0  0  0  0  0  0  0  0  0  0  0
    3.9569   -0.0119    1.2200 C   0  0  0  0  0  0  0  0  0  0  0  0
    4.6427   -0.0240   -0.0017 C   0  0  0  0  0  0  0  0  0  0  0  0
    6.0750   -0.0322    0.0378 N   0  0  0  0  0  0  0  0  0  0  0  0
    6.8364   -0.8690   -0.6890 C   0  0  0  0  0  0  0  0  0  0  0  0
    8.5060   -0.8812   -0.6760 S   0  0  0  0  0  0  0  0  0  0  0  0
    6.1317   -1.6279   -1.5753 O   0  0  0  0  0  0  0  0  0  0  0  0
    5.8592   -3.0129   -1.2947 C   0  0  1  0  0  0  0  0  0  0  0  0
    4.9149   -3.1246   -1.8884 H   0  0  0  0  0  0  0  0  0  0  0  0
    6.9911   -3.8833   -1.8521 C   0  0  0  0  0  0  0  0  0  0  0  0
    7.3117   -3.6812   -3.3361 C   0  0  2  0  0  0  0  0  0  0  0  0
    8.0777   -4.4428   -3.6522 H   0  0  0  0  0  0  0  0  0  0  0  0
    7.9442   -2.3008   -3.5234 N   0  0  0  0  0  0  0  0  0  0  0  0
    7.2467   -1.5799   -3.2258 H   0  0  0  0  0  0  0  0  0  0  0  0
    8.7676   -2.1942   -2.8807 H   0  0  0  0  0  0  0  0  0  0  0  0
    8.3723   -2.0639   -4.9744 C   0  0  1  0  0  0  0  0  0  0  0  0
    9.1333   -2.8495   -5.2296 H   0  0  0  0  0  0  0  0  0  0  0  0
    7.1498   -2.2014   -5.8872 C   0  0  0  0  0  0  0  0  0  0  0  0
    6.4844   -3.5673   -5.7083 C   0  0  0  0  0  0  0  0  0  0  0  0
    6.0832   -3.7832   -4.2465 C   0  0  0  0  0  0  0  0  0  0  0  0
    8.9886   -0.6767   -5.0579 C   0  0  0  0  0  0  0  0  0  0  0  0
    5.6251   -3.2756    0.1770 C   0  0  0  0  0  0  0  0  0  0  0  0
    3.9576   -0.0045   -1.2196 C   0  0  0  0  0  0  0  0  0  0  0  0
    2.5641    0.0042   -1.2156 C   0  0  0  0  0  0  0  0  0  0  0  0
    2.0234    0.0106    2.1681 H   0  0  0  0  0  0  0  0  0  0  0  0
    4.5012   -0.0130    2.1662 H   0  0  0  0  0  0  0  0  0  0  0  0
    6.5178    0.6631    0.6567 H   0  0  0  0  0  0  0  0  0  0  0  0
    6.7137   -4.9530   -1.6915 H   0  0  0  0  0  0  0  0  0  0  0  0
    7.9088   -3.7557   -1.2342 H   0  0  0  0  0  0  0  0  0  0  0  0
    6.4194   -1.3872   -5.7057 H   0  0  0  0  0  0  0  0  0  0  0  0
    7.4635   -2.0662   -6.9458 H   0  0  0  0  0  0  0  0  0  0  0  0
    7.1516   -4.3806   -6.0572 H   0  0  0  0  0  0  0  0  0  0  0  0
    5.5885   -3.6393   -6.3618 H   0  0  0  0  0  0  0  0  0  0  0  0
    5.6039   -4.7774   -4.1227 H   0  0  0  0  0  0  0  0  0  0  0  0
    5.3035   -3.0492   -3.9573 H   0  0  0  0  0  0  0  0  0  0  0  0
    8.2879    0.1268   -4.7889 H   0  0  0  0  0  0  0  0  0  0  0  0
    9.3233   -0.4549   -6.0867 H   0  0  0  0  0  0  0  0  0  0  0  0
    9.8785   -0.5609   -4.4209 H   0  0  0  0  0  0  0  0  0  0  0  0
    6.5371   -3.1830    0.7847 H   0  0  0  0  0  0  0  0  0  0  0  0
    5.2356   -4.2915    0.3489 H   0  0  0  0  0  0  0  0  0  0  0  0
    4.8776   -2.5868    0.6014 H   0  0  0  0  0  0  0  0  0  0  0  0
    4.5002    0.0134   -2.1636 H   0  0  0  0  0  0  0  0  0  0  0  0
    2.0243    0.0250   -2.1656 H   0  0  0  0  0  0  0  0  0  0  0  0
  2  1  1  0  0  0  0
  2  3  2  0  0  0  0
  3  4  1  0  0  0  0
  3 27  1  0  0  0  0
  4 28  1  0  0  0  0
  5  6  1  0  0  0  0
  5  4  2  0  0  0  0
  6 29  1  0  0  0  0
  7  8  2  0  0  0  0
  7  6  1  0  0  0  0
  9 10  1  0  0  0  0
  9  7  1  0  0  0  0
 10 11  1  6  0  0  0
 10 24  1  0  0  0  0
 12 30  1  0  0  0  0
 12 10  1  0  0  0  0
 12 31  1  0  0  0  0
 13 14  1  6  0  0  0
 13 12  1  0  0  0  0
 15 13  1  0  0  0  0
 15 16  1  0  0  0  0
 15 17  1  0  0  0  0
 18 19  1  6  0  0  0
 18 15  1  0  0  0  0
 20 21  1  0  0  0  0
 20 32  1  0  0  0  0
 20 18  1  0  0  0  0
 21 22  1  0  0  0  0
 22 36  1  0  0  0  0
 22 37  1  0  0  0  0
 22 13  1  0  0  0  0
 23 18  1  0  0  0  0
 23 38  1  0  0  0  0
 23 40  1  0  0  0  0
 24 42  1  0  0  0  0
 24 43  1  0  0  0  0
 24 41  1  0  0  0  0
 25 26  2  0  0  0  0
 25  5  1  0  0  0  0
 26  2  1  0  0  0  0
 33 20  1  0  0  0  0
 34 21  1  0  0  0  0
 35 21  1  0  0  0  0
 39 23  1  0  0  0  0
 44 25  1  0  0  0  0
 45 26  1  0  0  0  0
M  END
$$$$
