45

C         -0.12280        0.23550       -0.01490
O          1.28400        0.24440       -0.07070
C          1.98690        0.11590        1.08350
C          1.40900       -0.01540        2.35430
C          2.22450       -0.13990        3.48190
C          3.62080       -0.13010        3.37690
C          4.18410       -0.01150        2.09100
C          3.38650        0.11330        0.96120
C          4.49790       -0.21420        4.56240
C          4.54430       -1.21020        5.58330
C          3.67590       -2.41190        5.76670
O          2.63570       -2.58480        5.14440
N          4.15290       -3.29370        6.68950
C          3.39610       -4.45770        7.10200
C          2.45510       -4.18400        8.27630
N          5.55090       -0.98610        6.43590
N          6.13400        0.12630        6.00750
H          6.96260        0.49150        6.46200
C          5.55390        0.65550        4.88740
C          5.99240        1.92240        4.29130
C          5.09870        2.69830        3.53170
C          5.49720        3.88690        2.93810
Cl         4.37440        4.83890        1.98060
C          6.81050        4.37080        3.08350
O          7.23200        5.51600        2.51980
C          7.70210        3.62390        3.85940
C          7.30480        2.42570        4.45460
O          8.17560        1.71000        5.22540
H         -0.47940        0.34490       -1.04790
H         -0.51580        1.07290        0.59010
H         -0.51180       -0.71160        0.40060
H          0.32690       -0.03050        2.48060
H          1.76520       -0.26390        4.46180
H          5.27090       -0.01490        1.98300
H          3.82110        0.20380       -0.03590
H          4.98060       -3.00950        7.20340
H          4.10520       -5.26340        7.35470
H          2.81380       -4.78840        6.22970
H          3.01090       -3.82960        9.15980
H          1.90830       -5.09760        8.56060
H          1.71870       -3.41370        8.00120
H          4.07190        2.36380        3.40160
H          6.48760        5.90330        2.02880
H          8.71880        4.00300        3.98800
H          9.04070        2.13980        5.22490
