45
rmsd208.gzmat
C          0.00000        0.00000        0.00000
O          1.42020        0.00000        0.00000
C          2.04330        0.00000        1.20880
C          3.44330        0.00700        1.09790
C          4.20610       -0.00570        2.25460
C          3.58320       -0.04030        3.51120
C          2.18890       -0.02360        3.59970
C          1.40480       -0.00890        2.44900
C          4.37870       -0.10700        4.71590
C          5.40850        0.78660        5.13530
C          5.94530        1.95410        4.40390
O          6.11210        1.95810        3.19990
N          6.19270        3.06870        5.17750
C          6.82920        4.24850        4.58370
C          8.32610        4.29540        4.91190
N          5.89060        0.41280        6.35530
N          5.22250       -0.69740        6.70860
H          5.38350       -1.12040        7.60330
C          4.28130       -1.06130        5.75090
C          3.44200       -2.22920        5.86730
C          2.98340       -2.87340        4.71290
C          2.12580       -3.95790        4.80940
Cl         1.55790       -4.68200        3.37800
C          1.71970       -4.44780        6.05600
O          0.88900       -5.49220        6.23730
C          2.18350       -3.84730        7.23070
C          3.03670       -2.75350        7.11110
O          3.54000       -2.13410        8.20700
H         -0.23360        0.00900       -1.07320
H         -0.39180        0.90040        0.48300
H         -0.38950       -0.90880        0.46890
H          3.90870        0.03160        0.11610
H          5.29940        0.02020        2.19560
H          1.71040       -0.02300        4.57910
H          0.32520       -0.00170        2.53240
H          6.17510        3.00860        6.18390
H          6.31140        5.15580        4.96860
H          6.67870        4.23330        3.47550
H          8.50910        4.30260        5.99130
H          8.79430        5.18890        4.48690
H          8.84520        3.42070        4.49680
H          3.30360       -2.50660        3.72610
H          0.57820       -5.90190        5.38560
H          1.87310       -4.23850        8.19470
H          3.17550       -2.49960        9.05250
