45
rmsd230.gzmat
C          0.00000        0.00000        0.00000
O          1.42050        0.00000        0.00000
C          2.04260        0.00000        1.20940
C          3.44250        0.01990        1.09980
C          4.20440        0.02370        2.25720
C          3.58110       -0.00150        3.51370
C          2.18620       -0.00940        3.60020
C          1.40320       -0.01650        2.44910
C          4.37210       -0.02340        4.72270
C          5.40130        0.88580        5.10970
C          5.94320        2.02220        4.33400
O          6.14170        1.97110        3.13610
N          6.15770        3.17660        5.05800
C          6.79040        4.33390        4.41810
C          8.29930        4.36580        4.68600
N          5.87240        0.56640        6.34910
N          5.19720       -0.52420        6.74750
H          5.34710       -0.90510        7.66260
C          4.26210       -0.92790        5.80030
C          3.41130       -2.08110        5.96740
C          2.96450       -2.78310        4.84250
C          2.08670       -3.84620        4.98400
Cl         1.53390       -4.64220        3.58540
C          1.64990       -4.25780        6.24860
O          0.79650       -5.27540        6.47250
C          2.10620       -3.60180        7.39630
C          2.98020       -2.53050        7.23130
O          3.48040       -1.86240        8.29940
H         -0.23400        0.04910       -1.07230
H         -0.39350        0.88150        0.51570
H         -0.38740       -0.92650        0.43500
H          3.90840        0.04330        0.11810
H          5.29760        0.05800        2.19720
H          1.70660       -0.00960        4.57940
H          0.32370       -0.03220        2.53210
H          6.11840        3.16500        6.06530
H          6.30350        5.25680        4.80550
H          6.59430        4.29920        3.31770
H          8.52460        4.39680        5.75670
H          8.76280        5.24030        4.21860
H          8.79100        3.47390        4.27520
H          3.31110       -2.47770        3.84370
H          0.48900       -5.72350        5.63920
H          1.77610       -3.93450        8.37570
H          3.09980       -2.17640        9.15840
