45
rmsd188.gzmat
C          0.00000        0.00000        0.00000
O          1.42000        0.00000        0.00000
C          2.04520        0.00000        1.20770
C          3.44470        0.00660        1.09160
C          4.21210        0.02040        2.24510
C          3.59500        0.03880        3.50500
C          2.20070        0.01200        3.59760
C          1.41180       -0.00140        2.45030
C          4.39320        0.09660        4.70870
C          5.45050       -0.77670        5.10450
C          6.03080       -1.90330        4.34370
O          6.09800       -1.91210        3.12960
N          6.45930       -2.97730        5.09690
C          7.18570       -4.07210        4.44560
C          8.70240       -3.87560        4.55660
N          5.92400       -0.41690        6.33280
N          5.22460        0.66350        6.71370
H          5.37100        1.06590        7.62010
C          4.26960        1.02150        5.76750
C          3.39300        2.15770        5.92010
C          2.91670        2.82740        4.78760
C          2.01710        3.87350        4.91950
Cl         1.42950        4.63000        3.51300
C          1.58380        4.29840        6.18090
O          0.71050        5.30080        6.39600
C          2.06450        3.67250        7.33540
C          2.96350        2.62060        7.18020
O          3.49030        1.98540        8.25570
H         -0.23220        0.01270       -1.07390
H         -0.39200        0.89800        0.48720
H         -0.39040       -0.91100        0.46380
H          3.90610       -0.00830        0.10790
H          5.30490        0.00890        2.17810
H          1.72570        0.00250        4.57870
H          0.33250       -0.01530        2.53830
H          6.52240       -2.91010        6.10120
H          6.88300       -4.12700        3.37040
H          6.87660       -5.03010        4.91960
H          9.01220       -2.93950        4.07170
H          9.24230       -4.69200        4.06660
H          9.03380       -3.82960        5.59910
H          3.25600        2.50910        3.79020
H          0.38570        5.72820        5.55870
H          1.73270        4.01170        8.31200
H          3.10680        2.30240        9.11230
