45
rmsd244.gzmat
C          0.00000        0.00000        0.00000
O          1.42030        0.00000        0.00000
C          2.04230        0.00000        1.20930
C          1.40810        0.03400        2.45000
C          2.19070        0.04770        3.60300
C          3.58370        0.03650        3.51140
C          4.20250       -0.02320        2.25210
C          3.44300       -0.03370        1.09500
C          4.40770        0.10210        4.69650
C          4.36440       -0.73080        5.85350
C          3.40340       -1.81010        6.16490
O          2.22690       -1.75490        5.86310
N          3.94150       -2.91820        6.78610
C          3.05920       -3.98600        7.26670
C          2.70830       -3.79330        8.74680
N          5.35760       -0.38280        6.72260
N          6.00590        0.65570        6.17100
H          6.81790        1.03880        6.61650
C          5.47390        0.99650        4.93220
C          5.95040        2.10660        4.14300
C          5.05890        2.80350        3.31980
C          5.51030        3.84070        2.51930
Cl         4.39760        4.63910        1.50980
C          6.85610        4.22580        2.52970
O          7.37590        5.22110        1.78630
C          7.76880        3.56750        3.36040
C          7.29560        2.52470        4.15250
O          8.11390        1.85720        5.00240
H         -0.23360       -0.02770       -1.07290
H         -0.38860        0.91730        0.45290
H         -0.39120       -0.89260        0.49860
H          0.32800        0.04230        2.53780
H          1.71070        0.06060        4.58720
H          5.29070       -0.06000        2.19220
H          3.90460       -0.06770        0.11270
H          4.88260       -2.89520        7.14850
H          3.57320       -4.96030        7.10770
H          2.12730       -4.00140        6.64950
H          3.60160       -3.78220        9.37940
H          2.05120       -4.59180        9.10540
H          2.18370       -2.84090        8.90400
H          3.99770        2.51360        3.30870
H          6.70610        5.67240        1.20530
H          8.80870        3.87840        3.37200
H          9.06060        2.13620        4.91920
