rmsd230.gzmat
 OpenBabel08211713373D

 45 47  0  0  0  0  0  0  0  0999 V2000
    0.0000    0.0000    0.0000 C   0  0  0  0  0  0  0  0  0  0  0  0
    1.4205    0.0000    0.0000 O   0  0  0  0  0  0  0  0  0  0  0  0
    2.0426    0.0000    1.2094 C   0  0  0  0  0  0  0  0  0  0  0  0
    3.4425    0.0199    1.0998 C   0  0  0  0  0  0  0  0  0  0  0  0
    4.2044    0.0237    2.2572 C   0  0  0  0  0  0  0  0  0  0  0  0
    3.5811   -0.0015    3.5137 C   0  0  0  0  0  0  0  0  0  0  0  0
    2.1862   -0.0094    3.6002 C   0  0  0  0  0  0  0  0  0  0  0  0
    1.4032   -0.0165    2.4491 C   0  0  0  0  0  0  0  0  0  0  0  0
    4.3721   -0.0234    4.7227 C   0  0  0  0  0  0  0  0  0  0  0  0
    5.4013    0.8858    5.1097 C   0  0  0  0  0  0  0  0  0  0  0  0
    5.9432    2.0222    4.3340 C   0  0  0  0  0  0  0  0  0  0  0  0
    6.1417    1.9711    3.1361 O   0  0  0  0  0  0  0  0  0  0  0  0
    6.1577    3.1766    5.0580 N   0  0  0  0  0  0  0  0  0  0  0  0
    6.7904    4.3339    4.4181 C   0  0  0  0  0  0  0  0  0  0  0  0
    8.2993    4.3658    4.6860 C   0  0  0  0  0  0  0  0  0  0  0  0
    5.8724    0.5664    6.3491 N   0  0  0  0  0  0  0  0  0  0  0  0
    5.1972   -0.5242    6.7475 N   0  0  0  0  0  0  0  0  0  0  0  0
    5.3471   -0.9051    7.6626 H   0  0  0  0  0  0  0  0  0  0  0  0
    4.2621   -0.9279    5.8003 C   0  0  0  0  0  0  0  0  0  0  0  0
    3.4113   -2.0811    5.9674 C   0  0  0  0  0  0  0  0  0  0  0  0
    2.9645   -2.7831    4.8425 C   0  0  0  0  0  0  0  0  0  0  0  0
    2.0867   -3.8462    4.9840 C   0  0  0  0  0  0  0  0  0  0  0  0
    1.5339   -4.6422    3.5854 Cl  0  0  0  0  0  0  0  0  0  0  0  0
    1.6499   -4.2578    6.2486 C   0  0  0  0  0  0  0  0  0  0  0  0
    0.7965   -5.2754    6.4725 O   0  0  0  0  0  0  0  0  0  0  0  0
    2.1062   -3.6018    7.3963 C   0  0  0  0  0  0  0  0  0  0  0  0
    2.9802   -2.5305    7.2313 C   0  0  0  0  0  0  0  0  0  0  0  0
    3.4804   -1.8624    8.2994 O   0  0  0  0  0  0  0  0  0  0  0  0
   -0.2340    0.0491   -1.0723 H   0  0  0  0  0  0  0  0  0  0  0  0
   -0.3935    0.8815    0.5157 H   0  0  0  0  0  0  0  0  0  0  0  0
   -0.3874   -0.9265    0.4350 H   0  0  0  0  0  0  0  0  0  0  0  0
    3.9084    0.0433    0.1181 H   0  0  0  0  0  0  0  0  0  0  0  0
    5.2976    0.0580    2.1972 H   0  0  0  0  0  0  0  0  0  0  0  0
    1.7066   -0.0096    4.5794 H   0  0  0  0  0  0  0  0  0  0  0  0
    0.3237   -0.0322    2.5321 H   0  0  0  0  0  0  0  0  0  0  0  0
    6.1184    3.1650    6.0653 H   0  0  0  0  0  0  0  0  0  0  0  0
    6.3035    5.2568    4.8055 H   0  0  0  0  0  0  0  0  0  0  0  0
    6.5943    4.2992    3.3177 H   0  0  0  0  0  0  0  0  0  0  0  0
    8.5246    4.3968    5.7567 H   0  0  0  0  0  0  0  0  0  0  0  0
    8.7628    5.2403    4.2186 H   0  0  0  0  0  0  0  0  0  0  0  0
    8.7910    3.4739    4.2752 H   0  0  0  0  0  0  0  0  0  0  0  0
    3.3111   -2.4777    3.8437 H   0  0  0  0  0  0  0  0  0  0  0  0
    0.4890   -5.7235    5.6392 H   0  0  0  0  0  0  0  0  0  0  0  0
    1.7761   -3.9345    8.3757 H   0  0  0  0  0  0  0  0  0  0  0  0
    3.0998   -2.1764    9.1584 H   0  0  0  0  0  0  0  0  0  0  0  0
  1 31  1  0  0  0  0
  1 30  1  0  0  0  0
  2  1  1  0  0  0  0
  2  3  1  0  0  0  0
  3  8  1  0  0  0  0
  4  3  2  0  0  0  0
  4  5  1  0  0  0  0
  5  6  2  0  0  0  0
  6  7  1  0  0  0  0
  6  9  1  0  0  0  0
  7 34  1  0  0  0  0
  8 35  1  0  0  0  0
  8  7  2  0  0  0  0
  9 10  1  0  0  0  0
  9 19  2  0  0  0  0
 10 16  2  0  0  0  0
 11 13  1  0  0  0  0
 11 10  1  0  0  0  0
 12 11  2  0  0  0  0
 13 36  1  0  0  0  0
 14 15  1  0  0  0  0
 14 37  1  0  0  0  0
 14 13  1  0  0  0  0
 15 39  1  0  0  0  0
 16 17  1  0  0  0  0
 17 18  1  0  0  0  0
 19 20  1  0  0  0  0
 19 17  1  0  0  0  0
 20 27  2  0  0  0  0
 21 22  2  0  0  0  0
 21 20  1  0  0  0  0
 22 24  1  0  0  0  0
 23 22  1  0  0  0  0
 24 25  1  0  0  0  0
 24 26  2  0  0  0  0
 26 44  1  0  0  0  0
 27 26  1  0  0  0  0
 27 28  1  0  0  0  0
 28 45  1  0  0  0  0
 29  1  1  0  0  0  0
 32  4  1  0  0  0  0
 33  5  1  0  0  0  0
 38 14  1  0  0  0  0
 40 15  1  0  0  0  0
 41 15  1  0  0  0  0
 42 21  1  0  0  0  0
 43 25  1  0  0  0  0
M  END
$$$$
