rmsd167.gzmat
 OpenBabel08211713373D

 45 47  0  0  0  0  0  0  0  0999 V2000
    0.0000    0.0000    0.0000 C   0  0  0  0  0  0  0  0  0  0  0  0
    1.4204    0.0000    0.0000 O   0  0  0  0  0  0  0  0  0  0  0  0
    2.0423    0.0000    1.2096 C   0  0  0  0  0  0  0  0  0  0  0  0
    3.4422   -0.0262    1.1017 C   0  0  0  0  0  0  0  0  0  0  0  0
    4.2028   -0.0453    2.2602 C   0  0  0  0  0  0  0  0  0  0  0  0
    3.5771   -0.0494    3.5157 C   0  0  0  0  0  0  0  0  0  0  0  0
    2.1833    0.0056    3.6005 C   0  0  0  0  0  0  0  0  0  0  0  0
    1.4014    0.0226    2.4487 C   0  0  0  0  0  0  0  0  0  0  0  0
    4.3609   -0.1285    4.7274 C   0  0  0  0  0  0  0  0  0  0  0  0
    5.4225    0.7262    5.1499 C   0  0  0  0  0  0  0  0  0  0  0  0
    6.0250    1.8548    4.4096 C   0  0  0  0  0  0  0  0  0  0  0  0
    6.1086    1.8759    3.1969 O   0  0  0  0  0  0  0  0  0  0  0  0
    6.4467    2.9162    5.1835 N   0  0  0  0  0  0  0  0  0  0  0  0
    7.1575    4.0373    4.5610 C   0  0  0  0  0  0  0  0  0  0  0  0
    8.6755    3.9007    4.7277 C   0  0  0  0  0  0  0  0  0  0  0  0
    5.8674    0.3502    6.3840 N   0  0  0  0  0  0  0  0  0  0  0  0
    5.1458   -0.7232    6.7432 N   0  0  0  0  0  0  0  0  0  0  0  0
    5.2688   -1.1348    7.6490 H   0  0  0  0  0  0  0  0  0  0  0  0
    4.2060   -1.0617    5.7752 C   0  0  0  0  0  0  0  0  0  0  0  0
    3.3177   -2.1925    5.8953 C   0  0  0  0  0  0  0  0  0  0  0  0
    2.8636   -2.8463    4.7446 C   0  0  0  0  0  0  0  0  0  0  0  0
    1.9607   -3.8931    4.8441 C   0  0  0  0  0  0  0  0  0  0  0  0
    1.4047   -4.6337    3.4163 Cl  0  0  0  0  0  0  0  0  0  0  0  0
    1.5000   -4.3323    6.0907 C   0  0  0  0  0  0  0  0  0  0  0  0
    0.6212   -5.3362    6.2744 O   0  0  0  0  0  0  0  0  0  0  0  0
    1.9549   -3.7195    7.2627 C   0  0  0  0  0  0  0  0  0  0  0  0
    2.8591   -2.6679    7.1402 C   0  0  0  0  0  0  0  0  0  0  0  0
    3.3644   -2.0450    8.2330 O   0  0  0  0  0  0  0  0  0  0  0  0
   -0.2330   -0.0022   -1.0733 H   0  0  0  0  0  0  0  0  0  0  0  0
   -0.3916    0.9055    0.4736 H   0  0  0  0  0  0  0  0  0  0  0  0
   -0.3902   -0.9038    0.4781 H   0  0  0  0  0  0  0  0  0  0  0  0
    3.9093   -0.0230    0.1205 H   0  0  0  0  0  0  0  0  0  0  0  0
    5.2961   -0.0495    2.2028 H   0  0  0  0  0  0  0  0  0  0  0  0
    1.7037    0.0325    4.5790 H   0  0  0  0  0  0  0  0  0  0  0  0
    0.3222    0.0544    2.5305 H   0  0  0  0  0  0  0  0  0  0  0  0
    6.4963    2.8340    6.1877 H   0  0  0  0  0  0  0  0  0  0  0  0
    6.7947    4.9820    5.0246 H   0  0  0  0  0  0  0  0  0  0  0  0
    6.8935    4.0842    3.4753 H   0  0  0  0  0  0  0  0  0  0  0  0
    8.9741    3.9000    5.7804 H   0  0  0  0  0  0  0  0  0  0  0  0
    9.2009    4.7227    4.2308 H   0  0  0  0  0  0  0  0  0  0  0  0
    9.0370    2.9644    4.2820 H   0  0  0  0  0  0  0  0  0  0  0  0
    3.2225   -2.5152    3.7585 H   0  0  0  0  0  0  0  0  0  0  0  0
    0.3322   -5.7681    5.4264 H   0  0  0  0  0  0  0  0  0  0  0  0
    1.5987   -4.0691    8.2268 H   0  0  0  0  0  0  0  0  0  0  0  0
    2.9606   -2.3677    9.0777 H   0  0  0  0  0  0  0  0  0  0  0  0
  1 30  1  0  0  0  0
  1 31  1  0  0  0  0
  2  1  1  0  0  0  0
  2  3  1  0  0  0  0
  3  8  1  0  0  0  0
  4  3  2  0  0  0  0
  4  5  1  0  0  0  0
  5  6  2  0  0  0  0
  6  7  1  0  0  0  0
  6  9  1  0  0  0  0
  7 34  1  0  0  0  0
  8 35  1  0  0  0  0
  8  7  2  0  0  0  0
  9 10  1  0  0  0  0
  9 19  2  0  0  0  0
 10 16  2  0  0  0  0
 11 10  1  0  0  0  0
 11 13  1  0  0  0  0
 12 11  2  0  0  0  0
 13 36  1  0  0  0  0
 14 15  1  0  0  0  0
 14 37  1  0  0  0  0
 14 13  1  0  0  0  0
 15 39  1  0  0  0  0
 16 17  1  0  0  0  0
 17 18  1  0  0  0  0
 19 20  1  0  0  0  0
 19 17  1  0  0  0  0
 20 27  2  0  0  0  0
 21 22  2  0  0  0  0
 21 20  1  0  0  0  0
 22 24  1  0  0  0  0
 23 22  1  0  0  0  0
 24 25  1  0  0  0  0
 24 26  2  0  0  0  0
 26 44  1  0  0  0  0
 27 26  1  0  0  0  0
 27 28  1  0  0  0  0
 28 45  1  0  0  0  0
 29  1  1  0  0  0  0
 32  4  1  0  0  0  0
 33  5  1  0  0  0  0
 38 14  1  0  0  0  0
 40 15  1  0  0  0  0
 41 15  1  0  0  0  0
 42 21  1  0  0  0  0
 43 25  1  0  0  0  0
M  END
$$$$
