rmsd39.gzmat
 OpenBabel08211713373D

 45 47  0  0  0  0  0  0  0  0999 V2000
    0.0000    0.0000    0.0000 C   0  0  0  0  0  0  0  0  0  0  0  0
    1.4205    0.0000    0.0000 O   0  0  0  0  0  0  0  0  0  0  0  0
    2.0410    0.0000    1.2105 C   0  0  0  0  0  0  0  0  0  0  0  0
    1.4030    0.0413    2.4492 C   0  0  0  0  0  0  0  0  0  0  0  0
    2.1824    0.0367    3.6039 C   0  0  0  0  0  0  0  0  0  0  0  0
    3.5761    0.0016    3.5181 C   0  0  0  0  0  0  0  0  0  0  0  0
    4.1984   -0.0478    2.2607 C   0  0  0  0  0  0  0  0  0  0  0  0
    3.4410   -0.0438    1.1012 C   0  0  0  0  0  0  0  0  0  0  0  0
    4.3873    0.0111    4.7139 C   0  0  0  0  0  0  0  0  0  0  0  0
    4.3044   -0.8690    5.8346 C   0  0  0  0  0  0  0  0  0  0  0  0
    3.3249   -1.9521    6.0645 C   0  0  0  0  0  0  0  0  0  0  0  0
    2.1592   -1.8714    5.7277 O   0  0  0  0  0  0  0  0  0  0  0  0
    3.8359   -3.0960    6.6404 N   0  0  0  0  0  0  0  0  0  0  0  0
    2.9434   -4.2036    6.9952 C   0  0  0  0  0  0  0  0  0  0  0  0
    2.6291   -4.2060    8.4957 C   0  0  0  0  0  0  0  0  0  0  0  0
    5.2863   -0.5792    6.7363 N   0  0  0  0  0  0  0  0  0  0  0  0
    5.9680    0.4657    6.2398 N   0  0  0  0  0  0  0  0  0  0  0  0
    6.7796    0.8113    6.7158 H   0  0  0  0  0  0  0  0  0  0  0  0
    5.4700    0.8677    5.0048 C   0  0  0  0  0  0  0  0  0  0  0  0
    6.0013    1.9863    4.2647 C   0  0  0  0  0  0  0  0  0  0  0  0
    5.1563    2.7364    3.4392 C   0  0  0  0  0  0  0  0  0  0  0  0
    5.6644    3.7813    2.6837 C   0  0  0  0  0  0  0  0  0  0  0  0
    4.6095    4.6508    1.6708 Cl  0  0  0  0  0  0  0  0  0  0  0  0
    7.0225    4.1165    2.7379 C   0  0  0  0  0  0  0  0  0  0  0  0
    7.5965    5.1132    2.0377 O   0  0  0  0  0  0  0  0  0  0  0  0
    7.8907    3.3998    3.5677 C   0  0  0  0  0  0  0  0  0  0  0  0
    7.3597    2.3559    4.3203 C   0  0  0  0  0  0  0  0  0  0  0  0
    8.1332    1.6384    5.1716 O   0  0  0  0  0  0  0  0  0  0  0  0
   -0.2336   -0.0249   -1.0730 H   0  0  0  0  0  0  0  0  0  0  0  0
   -0.3892    0.9158    0.4556 H   0  0  0  0  0  0  0  0  0  0  0  0
   -0.3916   -0.8926    0.4983 H   0  0  0  0  0  0  0  0  0  0  0  0
    0.3226    0.0635    2.5329 H   0  0  0  0  0  0  0  0  0  0  0  0
    1.6996    0.0494    4.5865 H   0  0  0  0  0  0  0  0  0  0  0  0
    5.2863   -0.0934    2.2008 H   0  0  0  0  0  0  0  0  0  0  0  0
    3.9055   -0.0781    0.1206 H   0  0  0  0  0  0  0  0  0  0  0  0
    4.7646   -3.1043    7.0330 H   0  0  0  0  0  0  0  0  0  0  0  0
    3.4338   -5.1566    6.6948 H   0  0  0  0  0  0  0  0  0  0  0  0
    1.9981   -4.1236    6.4036 H   0  0  0  0  0  0  0  0  0  0  0  0
    3.5334   -4.3163    9.1028 H   0  0  0  0  0  0  0  0  0  0  0  0
    1.9494   -5.0244    8.7539 H   0  0  0  0  0  0  0  0  0  0  0  0
    2.1445   -3.2686    8.7979 H   0  0  0  0  0  0  0  0  0  0  0  0
    4.0872    2.4817    3.3897 H   0  0  0  0  0  0  0  0  0  0  0  0
    6.9552    5.6162    1.4675 H   0  0  0  0  0  0  0  0  0  0  0  0
    8.9418    3.6678    3.6077 H   0  0  0  0  0  0  0  0  0  0  0  0
    9.0898    1.8913    5.1228 H   0  0  0  0  0  0  0  0  0  0  0  0
  1 30  1  0  0  0  0
  1 31  1  0  0  0  0
  2  1  1  0  0  0  0
  2  3  1  0  0  0  0
  3  4  1  0  0  0  0
  4 32  1  0  0  0  0
  4  5  2  0  0  0  0
  5 33  1  0  0  0  0
  6  5  1  0  0  0  0
  6  9  1  0  0  0  0
  7  6  2  0  0  0  0
  8  3  2  0  0  0  0
  8  7  1  0  0  0  0
  9 19  2  0  0  0  0
  9 10  1  0  0  0  0
 10 11  1  0  0  0  0
 10 16  2  0  0  0  0
 11 13  1  0  0  0  0
 12 11  2  0  0  0  0
 13 14  1  0  0  0  0
 13 36  1  0  0  0  0
 14 15  1  0  0  0  0
 15 40  1  0  0  0  0
 15 41  1  0  0  0  0
 15 39  1  0  0  0  0
 17 18  1  0  0  0  0
 17 16  1  0  0  0  0
 19 17  1  0  0  0  0
 20 27  1  0  0  0  0
 20 19  1  0  0  0  0
 21 20  2  0  0  0  0
 22 24  2  0  0  0  0
 22 21  1  0  0  0  0
 23 22  1  0  0  0  0
 24 26  1  0  0  0  0
 25 24  1  0  0  0  0
 26 44  1  0  0  0  0
 26 27  2  0  0  0  0
 27 28  1  0  0  0  0
 29  1  1  0  0  0  0
 34  7  1  0  0  0  0
 35  8  1  0  0  0  0
 37 14  1  0  0  0  0
 38 14  1  0  0  0  0
 42 21  1  0  0  0  0
 43 25  1  0  0  0  0
 45 28  1  0  0  0  0
M  END
$$$$
