33
rmsd9.gzmat
N          0.00000        0.00000        0.00000
N          1.34490        0.00000        0.00000
C          1.81030        0.00000        1.26840
N          0.68230        0.00920        2.11010
N          0.75190        0.01340        3.49890
C          0.52950       -1.26720        4.11590
C          0.12170       -1.26150        5.45810
C          0.01430       -2.46870        6.14040
C          0.28970       -3.67290        5.49310
C          0.68790       -3.66990        4.15760
C          0.81430       -2.47050        3.46210
C         -0.45540       -0.00770        1.26830
C         -1.82750        0.01130        1.73830
C         -2.66040        1.06750        1.35800
C         -3.97580        1.10380        1.81370
C         -4.45560        0.09270        2.64520
C         -3.62750       -0.96880        3.00900
C         -2.31420       -1.01630        2.55090
C          3.20540       -0.00480        1.72710
H          0.12180        0.75160        3.86350
H         -0.10000       -0.32660        5.96790
H         -0.28940       -2.47100        7.18710
H          0.19300       -4.61370        6.02990
H          0.90220       -4.61090        3.64970
H          1.13060       -2.47810        2.41940
H         -2.27690        1.84990        0.70100
H         -4.62980        1.92160        1.51550
H         -5.48180        0.12850        3.00740
H         -4.00680       -1.76530        3.64660
H         -1.67290       -1.85720        2.81630
H          3.49110       -0.98490        2.14720
H          3.38040        0.74490        2.51840
H          3.90030        0.21410        0.89670
