33
rmsd2.gzmat
N          0.00000        0.00000        0.00000
N          1.34600        0.00000        0.00000
C          1.81180        0.00000        1.26820
N          0.68540        0.03950        2.11100
N          0.75030       -0.06850        3.49950
C          0.11640       -1.25680        4.01420
C          0.29810       -2.49280        3.38450
C         -0.25060       -3.63540        3.95870
C         -0.96740       -3.54990        5.15140
C         -1.13110       -2.31640        5.78050
C         -0.59680       -1.16230        5.21590
C         -0.45230        0.00710        1.26750
C         -1.81660       -0.03750        1.75990
C         -2.58780       -1.17780        1.52020
C         -3.88000       -1.25240        2.03380
C         -4.39970       -0.18990        2.77140
C         -3.63400        0.95500        2.99020
C         -2.33940        1.03620        2.48440
C          3.20810       -0.00910        1.72320
H          0.36310        0.79980        3.91340
H          0.86090       -2.56200        2.45380
H         -0.11740       -4.60110        3.47030
H         -1.39900       -4.44620        5.59170
H         -1.68540       -2.25160        6.71660
H         -0.73630       -0.20260        5.70710
H         -2.17480       -1.99910        0.93300
H         -4.48310       -2.14140        1.85630
H         -5.40960       -0.25140        3.17340
H         -4.05180        1.78880        3.55190
H         -1.74380        1.93410        2.63720
H          3.34810       -0.65280        2.60960
H          3.55070        1.00270        2.00190
H          3.88280       -0.37500        0.92860
