33
rmsd10.gzmat
N          0.00000        0.00000        0.00000
N          1.34430        0.00000        0.00000
C          1.80360        0.00000        1.26660
N          0.66970       -0.01840        2.10990
N          0.60300        0.01100        3.49750
C          1.09040        1.21500        4.10780
C          1.45500        1.13060        5.45970
C          1.79560        2.29230        6.14410
C          1.78980        3.52500        5.49150
C          1.43410        3.59820        4.14620
C          1.08070        2.44770        3.44680
C         -0.46380        0.00510        1.27020
C         -1.85080        0.00360        1.69870
C         -2.75950       -0.82870        1.03650
C         -4.09530       -0.83950        1.42820
C         -4.52450       -0.02020        2.47150
C         -3.61920        0.81580        3.12380
C         -2.28110        0.83060        2.73970
C          3.19730        0.00800        1.72870
H          1.03050       -0.85140        3.87660
H          1.45520        0.17330        5.97590
H          2.06890        2.23650        7.19720
H          2.06090        4.42830        6.03300
H          1.42930        4.56180        3.63540
H          0.79630        2.51690        2.39750
H         -2.41630       -1.45920        0.21430
H         -4.80330       -1.48880        0.91760
H         -5.56870       -0.03220        2.77680
H         -3.95520        1.45830        3.93510
H         -1.57150        1.48110        3.25170
H          3.51750       -0.97910        2.10050
H          3.37270        0.74650        2.52820
H          3.88280        0.26950        0.89800
