rmsd16.gzmat
 OpenBabel08211713373D

 33 35  0  0  0  0  0  0  0  0999 V2000
    0.0000    0.0000    0.0000 N   0  0  0  0  0  0  0  0  0  0  0  0
    1.3431    0.0000    0.0000 N   0  0  0  0  0  0  0  0  0  0  0  0
    1.8000    0.0000    1.2671 C   0  0  0  0  0  0  0  0  0  0  0  0
    0.6655   -0.0180    2.1107 N   0  0  0  0  0  0  0  0  0  0  0  0
    0.6149    0.0417    3.4993 N   0  0  0  0  0  0  0  0  0  0  0  0
    1.0735    1.2835    4.0592 C   0  0  0  0  0  0  0  0  0  0  0  0
    0.8625    2.5021    3.4048 C   0  0  0  0  0  0  0  0  0  0  0  0
    1.1921    3.6888    4.0523 C   0  0  0  0  0  0  0  0  0  0  0  0
    1.7274    3.6652    5.3390 C   0  0  0  0  0  0  0  0  0  0  0  0
    1.9361    2.4470    5.9840 C   0  0  0  0  0  0  0  0  0  0  0  0
    1.6191    1.2498    5.3497 C   0  0  0  0  0  0  0  0  0  0  0  0
   -0.4671    0.0024    1.2710 C   0  0  0  0  0  0  0  0  0  0  0  0
   -1.8616   -0.0235    1.6745 C   0  0  0  0  0  0  0  0  0  0  0  0
   -2.7646   -0.7464    0.8848 C   0  0  0  0  0  0  0  0  0  0  0  0
   -4.1109   -0.7879    1.2343 C   0  0  0  0  0  0  0  0  0  0  0  0
   -4.5603   -0.1079    2.3656 C   0  0  0  0  0  0  0  0  0  0  0  0
   -3.6634    0.6199    3.1454 C   0  0  0  0  0  0  0  0  0  0  0  0
   -2.3143    0.6661    2.8022 C   0  0  0  0  0  0  0  0  0  0  0  0
    3.1928   -0.0028    1.7318 C   0  0  0  0  0  0  0  0  0  0  0  0
    1.0903   -0.7902    3.8897 H   0  0  0  0  0  0  0  0  0  0  0  0
    0.4425    2.5290    2.3990 H   0  0  0  0  0  0  0  0  0  0  0  0
    1.0276    4.6411    3.5472 H   0  0  0  0  0  0  0  0  0  0  0  0
    1.9827    4.5966    5.8396 H   0  0  0  0  0  0  0  0  0  0  0  0
    2.3530    2.4298    6.9906 H   0  0  0  0  0  0  0  0  0  0  0  0
    1.7840    0.3043    5.8605 H   0  0  0  0  0  0  0  0  0  0  0  0
   -2.4064   -1.2677   -0.0057 H   0  0  0  0  0  0  0  0  0  0  0  0
   -4.8121   -1.3507    0.6215 H   0  0  0  0  0  0  0  0  0  0  0  0
   -5.6129   -0.1430    2.6382 H   0  0  0  0  0  0  0  0  0  0  0  0
   -4.0147    1.1554    4.0249 H   0  0  0  0  0  0  0  0  0  0  0  0
   -1.6169    1.2377    3.4157 H   0  0  0  0  0  0  0  0  0  0  0  0
    3.4518   -0.9258    2.2744 H   0  0  0  0  0  0  0  0  0  0  0  0
    3.4152    0.8539    2.3900 H   0  0  0  0  0  0  0  0  0  0  0  0
    3.8908    0.0645    0.8734 H   0  0  0  0  0  0  0  0  0  0  0  0
  1 12  2  0  0  0  0
  2  1  1  0  0  0  0
  2  3  2  0  0  0  0
  3 19  1  0  0  0  0
  3  4  1  0  0  0  0
  4  5  1  0  0  0  0
  5 20  1  0  0  0  0
  5  6  1  0  0  0  0
  6 11  2  0  0  0  0
  7  8  2  0  0  0  0
  7  6  1  0  0  0  0
  8  9  1  0  0  0  0
  9 23  1  0  0  0  0
  9 10  2  0  0  0  0
 10 24  1  0  0  0  0
 11 25  1  0  0  0  0
 11 10  1  0  0  0  0
 12 13  1  0  0  0  0
 12  4  1  0  0  0  0
 13 18  2  0  0  0  0
 14 15  2  0  0  0  0
 14 13  1  0  0  0  0
 15 16  1  0  0  0  0
 16 28  1  0  0  0  0
 16 17  2  0  0  0  0
 17 29  1  0  0  0  0
 18 17  1  0  0  0  0
 18 30  1  0  0  0  0
 19 31  1  0  0  0  0
 19 32  1  0  0  0  0
 21  7  1  0  0  0  0
 22  8  1  0  0  0  0
 26 14  1  0  0  0  0
 27 15  1  0  0  0  0
 33 19  1  0  0  0  0
M  END
$$$$
