
     RDKit          3D

 33 35  0  0  0  0  0  0  0  0999 V2000
   -0.0149   -0.2267    0.1121 N   0  0  0  0  0  0  0  0  0  0  0  0
    1.3566   -0.2352    0.0892 N   0  0  0  0  0  0  0  0  0  0  0  0
    1.7867   -0.1275    1.3197 C   0  0  0  0  0  0  0  0  0  0  0  0
    0.6997   -0.0551    2.1735 N   0  0  0  0  0  0  0  0  0  0  0  0
    0.7511    0.0436    3.5411 N   0  0  0  0  0  0  0  0  0  0  0  0
    1.1218    1.2662    4.1264 C   0  0  0  0  0  0  0  0  0  0  0  0
    1.5745    1.2778    5.4553 C   0  0  0  0  0  0  0  0  0  0  0  0
    1.8963    2.4860    6.0723 C   0  0  0  0  0  0  0  0  0  0  0  0
    1.7758    3.6938    5.3778 C   0  0  0  0  0  0  0  0  0  0  0  0
    1.3253    3.6765    4.0554 C   0  0  0  0  0  0  0  0  0  0  0  0
    0.9953    2.4750    3.4253 C   0  0  0  0  0  0  0  0  0  0  0  0
   -0.4218   -0.1176    1.3584 C   0  0  0  0  0  0  0  0  0  0  0  0
   -1.8302   -0.0774    1.7708 C   0  0  0  0  0  0  0  0  0  0  0  0
   -2.7943   -0.4434    0.8107 C   0  0  0  0  0  0  0  0  0  0  0  0
   -4.1506   -0.4095    1.1229 C   0  0  0  0  0  0  0  0  0  0  0  0
   -4.5716   -0.0099    2.3963 C   0  0  0  0  0  0  0  0  0  0  0  0
   -3.6225    0.3601    3.3513 C   0  0  0  0  0  0  0  0  0  0  0  0
   -2.2598    0.3300    3.0464 C   0  0  0  0  0  0  0  0  0  0  0  0
    3.1991   -0.0809    1.7803 C   0  0  0  0  0  0  0  0  0  0  0  0
    1.0817   -0.8000    3.9992 H   0  0  0  0  0  0  0  0  0  0  0  0
    1.6728    0.3362    6.0027 H   0  0  0  0  0  0  0  0  0  0  0  0
    2.2493    2.4807    7.1063 H   0  0  0  0  0  0  0  0  0  0  0  0
    2.0315    4.6378    5.8628 H   0  0  0  0  0  0  0  0  0  0  0  0
    1.2248    4.6117    3.4995 H   0  0  0  0  0  0  0  0  0  0  0  0
    0.6391    2.4725    2.3945 H   0  0  0  0  0  0  0  0  0  0  0  0
   -2.4494   -0.7480   -0.1781 H   0  0  0  0  0  0  0  0  0  0  0  0
   -4.8862   -0.6976    0.3681 H   0  0  0  0  0  0  0  0  0  0  0  0
   -5.6363    0.0155    2.6408 H   0  0  0  0  0  0  0  0  0  0  0  0
   -3.9423    0.6817    4.3453 H   0  0  0  0  0  0  0  0  0  0  0  0
   -1.5349    0.6299    3.7996 H   0  0  0  0  0  0  0  0  0  0  0  0
    3.4208   -0.8856    2.5006 H   0  0  0  0  0  0  0  0  0  0  0  0
    3.4291    0.8778    2.2724 H   0  0  0  0  0  0  0  0  0  0  0  0
    3.8516   -0.2009    0.9064 H   0  0  0  0  0  0  0  0  0  0  0  0
  1  2  1  0
  1 12  2  0
  2  3  2  0
  3  4  1  0
  3 19  1  0
  4  5  1  0
  4 12  1  0
  5  6  1  0
  5 20  1  0
  6  7  2  0
  6 11  1  0
  7  8  1  0
  7 21  1  0
  8  9  2  0
  8 22  1  0
  9 10  1  0
  9 23  1  0
 10 11  2  0
 10 24  1  0
 11 25  1  0
 12 13  1  0
 13 14  2  0
 13 18  1  0
 14 15  1  0
 14 26  1  0
 15 16  2  0
 15 27  1  0
 16 17  1  0
 16 28  1  0
 17 18  2  0
 17 29  1  0
 18 30  1  0
 19 31  1  0
 19 32  1  0
 19 33  1  0
M  END

