33

N         -0.01490       -0.22670        0.11210
N          1.35660       -0.23520        0.08920
C          1.78670       -0.12750        1.31970
N          0.69970       -0.05510        2.17350
N          0.75110        0.04360        3.54110
C          1.12180        1.26620        4.12640
C          1.57450        1.27780        5.45530
C          1.89630        2.48600        6.07230
C          1.77580        3.69380        5.37780
C          1.32530        3.67650        4.05540
C          0.99530        2.47500        3.42530
C         -0.42180       -0.11760        1.35840
C         -1.83020       -0.07740        1.77080
C         -2.79430       -0.44340        0.81070
C         -4.15060       -0.40950        1.12290
C         -4.57160       -0.00990        2.39630
C         -3.62250        0.36010        3.35130
C         -2.25980        0.33000        3.04640
C          3.19910       -0.08090        1.78030
H          1.08170       -0.80000        3.99920
H          1.67280        0.33620        6.00270
H          2.24930        2.48070        7.10630
H          2.03150        4.63780        5.86280
H          1.22480        4.61170        3.49950
H          0.63910        2.47250        2.39450
H         -2.44940       -0.74800       -0.17810
H         -4.88620       -0.69760        0.36810
H         -5.63630        0.01550        2.64080
H         -3.94230        0.68170        4.34530
H         -1.53490        0.62990        3.79960
H          3.42080       -0.88560        2.50060
H          3.42910        0.87780        2.27240
H          3.85160       -0.20090        0.90640
