rmsd20.gzmat
 OpenBabel08211713373D

 33 35  0  0  0  0  0  0  0  0999 V2000
    0.0000    0.0000    0.0000 N   0  0  0  0  0  0  0  0  0  0  0  0
    1.3437    0.0000    0.0000 N   0  0  0  0  0  0  0  0  0  0  0  0
    1.8021    0.0000    1.2669 C   0  0  0  0  0  0  0  0  0  0  0  0
    0.6677   -0.0213    2.1100 N   0  0  0  0  0  0  0  0  0  0  0  0
    0.6102    0.0118    3.4989 N   0  0  0  0  0  0  0  0  0  0  0  0
    1.1189    1.2173    4.0907 C   0  0  0  0  0  0  0  0  0  0  0  0
    1.0031    2.4558    3.4497 C   0  0  0  0  0  0  0  0  0  0  0  0
    1.3861    3.6099    4.1261 C   0  0  0  0  0  0  0  0  0  0  0  0
    1.8769    3.5344    5.4285 C   0  0  0  0  0  0  0  0  0  0  0  0
    1.9877    2.2968    6.0611 C   0  0  0  0  0  0  0  0  0  0  0  0
    1.6165    1.1311    5.3986 C   0  0  0  0  0  0  0  0  0  0  0  0
   -0.4660    0.0042    1.2707 C   0  0  0  0  0  0  0  0  0  0  0  0
   -1.8572    0.0007    1.6857 C   0  0  0  0  0  0  0  0  0  0  0  0
   -2.7792   -0.7251    0.9220 C   0  0  0  0  0  0  0  0  0  0  0  0
   -4.1208   -0.7437    1.2918 C   0  0  0  0  0  0  0  0  0  0  0  0
   -4.5461   -0.0376    2.4165 C   0  0  0  0  0  0  0  0  0  0  0  0
   -3.6300    0.6956    3.1690 C   0  0  0  0  0  0  0  0  0  0  0  0
   -2.2859    0.7186    2.8055 C   0  0  0  0  0  0  0  0  0  0  0  0
    3.1955    0.0161    1.7300 C   0  0  0  0  0  0  0  0  0  0  0  0
    1.0376   -0.8514    3.8762 H   0  0  0  0  0  0  0  0  0  0  0  0
    0.6135    2.5228    2.4338 H   0  0  0  0  0  0  0  0  0  0  0  0
    1.2998    4.5780    3.6313 H   0  0  0  0  0  0  0  0  0  0  0  0
    2.1727    4.4410    5.9517 H   0  0  0  0  0  0  0  0  0  0  0  0
    2.3696    2.2389    7.0799 H   0  0  0  0  0  0  0  0  0  0  0  0
    1.7010    0.1698    5.8995 H   0  0  0  0  0  0  0  0  0  0  0  0
   -2.4408   -1.2672    0.0367 H   0  0  0  0  0  0  0  0  0  0  0  0
   -4.8374   -1.3099    0.7003 H   0  0  0  0  0  0  0  0  0  0  0  0
   -5.5948   -0.0567    2.7054 H   0  0  0  0  0  0  0  0  0  0  0  0
   -3.9617    1.2530    4.0426 H   0  0  0  0  0  0  0  0  0  0  0  0
   -1.5727    1.2939    3.3967 H   0  0  0  0  0  0  0  0  0  0  0  0
    3.4719   -0.9072    2.2639 H   0  0  0  0  0  0  0  0  0  0  0  0
    3.4037    0.8706    2.3966 H   0  0  0  0  0  0  0  0  0  0  0  0
    3.8907    0.1066    0.8712 H   0  0  0  0  0  0  0  0  0  0  0  0
  1 12  2  0  0  0  0
  2  1  1  0  0  0  0
  2  3  2  0  0  0  0
  3 19  1  0  0  0  0
  3  4  1  0  0  0  0
  4  5  1  0  0  0  0
  5 20  1  0  0  0  0
  5  6  1  0  0  0  0
  6 11  1  0  0  0  0
  7  6  2  0  0  0  0
  7  8  1  0  0  0  0
  8  9  2  0  0  0  0
  9 23  1  0  0  0  0
  9 10  1  0  0  0  0
 10 24  1  0  0  0  0
 11 25  1  0  0  0  0
 11 10  2  0  0  0  0
 12 13  1  0  0  0  0
 12  4  1  0  0  0  0
 13 18  2  0  0  0  0
 14 15  2  0  0  0  0
 14 13  1  0  0  0  0
 15 16  1  0  0  0  0
 16 28  1  0  0  0  0
 16 17  2  0  0  0  0
 17 29  1  0  0  0  0
 18 17  1  0  0  0  0
 18 30  1  0  0  0  0
 19 31  1  0  0  0  0
 19 32  1  0  0  0  0
 21  7  1  0  0  0  0
 22  8  1  0  0  0  0
 26 14  1  0  0  0  0
 27 15  1  0  0  0  0
 33 19  1  0  0  0  0
M  END
$$$$
