33
rmsd3.gzmat
N          0.00000        0.00000        0.00000
N          1.34480        0.00000        0.00000
C          1.80950        0.00000        1.26860
N          0.68130        0.00660        2.11020
N          0.75650        0.01420        3.49870
C          0.51200       -1.26010        4.11990
C          0.05320       -1.24540        5.44510
C         -0.08680       -2.44860        6.12900
C          0.21430       -3.65670        5.50070
C          0.67040       -3.66240        4.18370
C          0.82320       -2.46770        3.48580
C         -0.45660       -0.00820        1.26830
C         -1.83180        0.00730        1.73050
C         -2.31260       -1.00850        2.56080
C         -3.62870       -0.96630        3.01200
C         -4.46750        0.07690        2.62030
C         -3.99410        1.07550        1.77050
C         -2.67590        1.04380        1.32180
C          3.20470        0.00240        1.72700
H          0.14340        0.76610        3.86370
H         -0.18700       -0.30670        5.93940
H         -0.43940       -2.44480        7.15990
H          0.09250       -4.59430        6.03840
H          0.90960       -4.60670        3.69330
H          1.18030       -2.48080        2.45650
H         -1.66570       -1.83900        2.84380
H         -4.00200       -1.75270        3.66560
H         -5.49660        0.10660        2.97440
H         -4.65540        1.88020        1.45290
H         -2.30040        1.81470        0.64670
H          3.47100       -0.94420        2.22820
H          3.39630        0.81160        2.45330
H          3.90210        0.13920        0.88130
