33
rmsd8.gzmat
N          0.00000        0.00000        0.00000
N          1.34600        0.00000        0.00000
C          1.81320        0.00000        1.26850
N          0.68700        0.03620        2.11030
N          0.74600       -0.04690        3.50140
C          0.07570       -1.20840        4.03350
C         -0.65270       -1.06990        5.22210
C         -1.23310       -2.19650        5.79690
C         -1.09920       -3.44540        5.19180
C         -0.36650       -3.57490        4.01300
C          0.22750       -2.46050        3.42850
C         -0.45170        0.00890        1.26720
C         -1.81120       -0.03060        1.77490
C         -2.56420       -1.19660        1.61880
C         -3.83780       -1.27040        2.17740
C         -4.35630       -0.18340        2.87920
C         -3.61300        0.98970        3.00700
C         -2.33960        1.07210        2.45110
C          3.21300       -0.01130        1.71470
H          0.37530        0.83790        3.89570
H         -0.77120       -0.09710        5.69330
H         -1.80240       -2.09810        6.72060
H         -1.56800       -4.31930        5.63940
H         -0.25800       -4.55270        3.54310
H          0.80150       -2.56240        2.50800
H         -2.15120       -2.04030        1.06440
H         -4.42610       -2.17990        2.06630
H         -5.34740       -0.24830        3.32480
H         -4.02960        1.84340        3.53880
H         -1.76240        1.99130        2.53100
H          3.70790       -0.96170        1.44660
H          3.30890        0.10990        2.80740
H          3.79230        0.79700        1.23460
