33
rmsd14.gzmat
N          0.00000        0.00000        0.00000
N          1.34300        0.00000        0.00000
C          1.80040        0.00000        1.26710
N          0.66580       -0.02080        2.11040
N          0.61480        0.01840        3.50010
C          1.14900        1.22000        4.08020
C          0.98290        2.46330        3.45940
C          1.39930        3.61480        4.12000
C          1.97050        3.53280        5.38900
C          2.12780        2.29130        6.00290
C          1.72660        1.12760        5.35340
C         -0.46800        0.00490        1.27120
C         -1.86380        0.01340        1.67040
C         -2.79990       -0.59940        0.82730
C         -4.15030       -0.58210        1.16280
C         -4.57230        0.04240        2.33600
C         -3.64190        0.65360        3.17430
C         -2.28940        0.64340        2.84320
C          3.19380        0.01490        1.72980
H          1.03360       -0.84920        3.87730
H          0.53000        2.53510        2.47020
H          1.27700        4.58580        3.63900
H          2.29390        4.43740        5.89940
H          2.57170        2.22840        6.99600
H          1.85320        0.16320        5.83930
H         -2.46450       -1.07930       -0.09510
H         -4.87710       -1.05510        0.50570
H         -5.62880        0.05620        2.59520
H         -3.96690        1.14440        4.08950
H         -1.56910        1.12850        3.50260
H          3.48000       -0.92250        2.23230
H          3.39310        0.84850        2.42460
H          3.88840        0.13950        0.87510
