rmsd138.gzmat
 OpenBabel08211713423D

 20 19  0  0  0  0  0  0  0  0999 V2000
    0.0000    0.0000    0.0000 O   0  0  0  0  0  0  0  0  0  0  0  0
    1.3580    0.0000    0.0000 C   0  0  0  0  0  0  0  0  0  0  0  0
    1.9731    0.0000    1.0339 O   0  0  0  0  0  0  0  0  0  0  0  0
    1.8663    0.0078   -1.3973 C   0  0  0  0  0  0  0  0  0  0  0  0
    3.3245   -0.4127   -1.4862 C   0  0  0  0  0  0  0  0  0  0  0  0
    3.6201   -1.3759   -2.1489 O   0  0  0  0  0  0  0  0  0  0  0  0
    4.3590    0.3952   -0.7525 C   0  0  0  0  0  0  0  0  0  0  0  0
    5.1055    1.7238   -1.8075 P   0  0  2  0  0  0  0  0  0  0  0  0
    5.9448    2.6839   -1.0715 O   0  0  0  0  0  0  0  0  0  0  0  0
    3.7542    2.4318   -2.3782 O   0  0  0  0  0  0  0  0  0  0  0  0
    5.7705    0.9656   -3.3014 C   0  0  0  0  0  0  0  0  0  0  0  0
   -0.3971    0.0017    0.9069 H   0  0  0  0  0  0  0  0  0  0  0  0
    1.7381    1.0272   -1.8468 H   0  0  0  0  0  0  0  0  0  0  0  0
    1.2428   -0.6543   -2.0476 H   0  0  0  0  0  0  0  0  0  0  0  0
    5.1923   -0.2813   -0.3911 H   0  0  0  0  0  0  0  0  0  0  0  0
    3.9357    0.8743    0.1832 H   0  0  0  0  0  0  0  0  0  0  0  0
    3.7254    3.3918   -2.0574 H   0  0  0  0  0  0  0  0  0  0  0  0
    6.1845    1.7459   -3.9905 H   0  0  0  0  0  0  0  0  0  0  0  0
    4.9901    0.3942   -3.8669 H   0  0  0  0  0  0  0  0  0  0  0  0
    6.6012    0.2539   -3.0581 H   0  0  0  0  0  0  0  0  0  0  0  0
  1 12  1  0  0  0  0
  2  1  1  0  0  0  0
  2  3  2  0  0  0  0
  4  2  1  0  0  0  0
  5  4  1  0  0  0  0
  5  7  1  0  0  0  0
  6  5  2  0  0  0  0
  7 15  1  0  0  0  0
  7 16  1  0  0  0  0
  8  9  2  1  0  0  0
  8  7  1  0  0  0  0
 10 17  1  0  0  0  0
 10  8  1  0  0  0  0
 11 20  1  0  0  0  0
 11  8  1  0  0  0  0
 13  4  1  0  0  0  0
 14  4  1  0  0  0  0
 18 11  1  0  0  0  0
 19 11  1  0  0  0  0
M  END
$$$$
