20
rmsd170.gzmat
O          0.00000        0.00000        0.00000
C          1.35790        0.00000        0.00000
O          1.97480        0.00000        1.03280
C          1.86820        0.00660       -1.39670
C          3.28620       -0.53400       -1.48430
O          3.50030       -1.53560       -2.12060
C          4.38440        0.20860       -0.77240
P          5.26460        1.39520       -1.88860
O          6.14780        2.35420       -1.20470
O          3.97290        2.14000       -2.54380
C          5.93260        0.47150       -3.28720
H         -0.39680       -0.00400        0.90700
H          1.82920        1.04490       -1.81640
H          1.19650       -0.58280       -2.06780
H          5.14350       -0.52360       -0.36030
H          3.99470        0.77770        0.12660
H          4.08880        3.14190       -2.45850
H          6.29060        1.16560       -4.08940
H          5.17060       -0.21120       -3.74430
H          6.80570       -0.15560       -2.97310
