rmsd210.gzmat
 OpenBabel08211713423D

 20 19  0  0  0  0  0  0  0  0999 V2000
    0.0000    0.0000    0.0000 O   0  0  0  0  0  0  0  0  0  0  0  0
    1.3570    0.0000    0.0000 C   0  0  0  0  0  0  0  0  0  0  0  0
    1.9764    0.0000    1.0316 O   0  0  0  0  0  0  0  0  0  0  0  0
    1.8663   -0.0107   -1.3984 C   0  0  0  0  0  0  0  0  0  0  0  0
    3.2592    0.5907   -1.4980 C   0  0  0  0  0  0  0  0  0  0  0  0
    3.4248    1.6016   -2.1345 O   0  0  0  0  0  0  0  0  0  0  0  0
    4.3897   -0.1067   -0.7950 C   0  0  0  0  0  0  0  0  0  0  0  0
    5.3753   -1.1478   -1.9848 P   0  0  2  0  0  0  0  0  0  0  0  0
    4.6245   -2.2973   -2.5212 O   0  0  0  0  0  0  0  0  0  0  0  0
    6.6191   -1.6140   -1.0564 O   0  0  0  0  0  0  0  0  0  0  0  0
    6.2184   -0.0426   -3.1307 C   0  0  0  0  0  0  0  0  0  0  0  0
   -0.3986    0.0017    0.9064 H   0  0  0  0  0  0  0  0  0  0  0  0
    1.1688    0.5372   -2.0795 H   0  0  0  0  0  0  0  0  0  0  0  0
    1.8692   -1.0586   -1.7934 H   0  0  0  0  0  0  0  0  0  0  0  0
    4.0213   -0.7609    0.0492 H   0  0  0  0  0  0  0  0  0  0  0  0
    5.0740    0.6521   -0.3128 H   0  0  0  0  0  0  0  0  0  0  0  0
    6.4596   -2.5696   -0.7480 H   0  0  0  0  0  0  0  0  0  0  0  0
    6.5930   -0.6075   -4.0233 H   0  0  0  0  0  0  0  0  0  0  0  0
    7.1031    0.4549   -2.6567 H   0  0  0  0  0  0  0  0  0  0  0  0
    5.5281    0.7646   -3.4972 H   0  0  0  0  0  0  0  0  0  0  0  0
  1 12  1  0  0  0  0
  2  1  1  0  0  0  0
  2  3  2  0  0  0  0
  4  2  1  0  0  0  0
  5  4  1  0  0  0  0
  5  7  1  0  0  0  0
  6  5  2  0  0  0  0
  7 16  1  0  0  0  0
  7 15  1  0  0  0  0
  8  9  2  6  0  0  0
  8 10  1  0  0  0  0
  8  7  1  0  0  0  0
 10 17  1  0  0  0  0
 11 19  1  0  0  0  0
 11  8  1  0  0  0  0
 13  4  1  0  0  0  0
 14  4  1  0  0  0  0
 18 11  1  0  0  0  0
 20 11  1  0  0  0  0
M  END
$$$$
