20
rmsd210.gzmat
O          0.00000        0.00000        0.00000
C          1.35700        0.00000        0.00000
O          1.97640        0.00000        1.03160
C          1.86630       -0.01070       -1.39840
C          3.25920        0.59070       -1.49800
O          3.42480        1.60160       -2.13450
C          4.38970       -0.10670       -0.79500
P          5.37530       -1.14780       -1.98480
O          4.62450       -2.29730       -2.52120
O          6.61910       -1.61400       -1.05640
C          6.21840       -0.04260       -3.13070
H         -0.39860        0.00170        0.90640
H          1.16880        0.53720       -2.07950
H          1.86920       -1.05860       -1.79340
H          4.02130       -0.76090        0.04920
H          5.07400        0.65210       -0.31280
H          6.45960       -2.56960       -0.74800
H          6.59300       -0.60750       -4.02330
H          7.10310        0.45490       -2.65670
H          5.52810        0.76460       -3.49720
