
     RDKit          3D

 20 19  0  0  0  0  0  0  0  0999 V2000
    0.0721   -0.4151    0.0831 O   0  0  0  0  0  0  0  0  0  0  0  0
    1.2880    0.1465   -0.0087 C   0  0  0  0  0  0  0  0  0  0  0  0
    1.8479    0.6478    0.9370 O   0  0  0  0  0  0  0  0  0  0  0  0
    1.8295    0.0838   -1.4206 C   0  0  0  0  0  0  0  0  0  0  0  0
    3.2675   -0.4214   -1.5390 C   0  0  0  0  0  0  0  0  0  0  0  0
    3.5363   -1.3458   -2.2726 O   0  0  0  0  0  0  0  0  0  0  0  0
    4.3377    0.3439   -0.7950 C   0  0  0  0  0  0  0  0  0  0  0  0
    5.0810    1.6992   -1.7900 P   0  0  2  0  0  0  0  0  0  0  0  0
    5.9765    2.6008   -1.0112 O   0  0  0  0  0  0  0  0  0  0  0  0
    3.7508    2.4685   -2.3942 O   0  0  0  0  0  0  0  0  0  0  0  0
    5.7914    0.9231   -3.2605 C   0  0  0  0  0  0  0  0  0  0  0  0
   -0.2148   -0.3172    1.0085 H   0  0  0  0  0  0  0  0  0  0  0  0
    1.8432    1.1186   -1.8059 H   0  0  0  0  0  0  0  0  0  0  0  0
    1.1881   -0.5347   -2.0580 H   0  0  0  0  0  0  0  0  0  0  0  0
    5.1623   -0.3384   -0.5399 H   0  0  0  0  0  0  0  0  0  0  0  0
    3.9442    0.8175    0.1157 H   0  0  0  0  0  0  0  0  0  0  0  0
    3.7433    3.3809   -2.0652 H   0  0  0  0  0  0  0  0  0  0  0  0
    6.1254    1.7185   -3.9422 H   0  0  0  0  0  0  0  0  0  0  0  0
    5.0594    0.2760   -3.7627 H   0  0  0  0  0  0  0  0  0  0  0  0
    6.6594    0.3204   -2.9565 H   0  0  0  0  0  0  0  0  0  0  0  0
  1  2  1  0
  1 12  1  0
  2  3  2  0
  2  4  1  0
  4  5  1  0
  4 13  1  0
  4 14  1  0
  5  6  2  0
  5  7  1  0
  7  8  1  0
  7 15  1  0
  7 16  1  0
  8  9  2  0
  8 10  1  6
  8 11  1  0
 10 17  1  0
 11 18  1  0
 11 19  1  0
 11 20  1  0
M  END

