rmsd172.gzmat
 OpenBabel08211713423D

 20 19  0  0  0  0  0  0  0  0999 V2000
    0.0000    0.0000    0.0000 O   0  0  0  0  0  0  0  0  0  0  0  0
    1.3582    0.0000    0.0000 C   0  0  0  0  0  0  0  0  0  0  0  0
    1.9741    0.0000    1.0335 O   0  0  0  0  0  0  0  0  0  0  0  0
    1.8621    0.0061   -1.3990 C   0  0  0  0  0  0  0  0  0  0  0  0
    3.3682    0.1849   -1.4877 C   0  0  0  0  0  0  0  0  0  0  0  0
    3.8144    1.0812   -2.1606 O   0  0  0  0  0  0  0  0  0  0  0  0
    4.2650   -0.7674   -0.7464 C   0  0  0  0  0  0  0  0  0  0  0  0
    4.7111   -2.2464   -1.7825 P   0  0  2  0  0  0  0  0  0  0  0  0
    3.5606   -3.1090   -2.1094 O   0  0  0  0  0  0  0  0  0  0  0  0
    5.7821   -2.9952   -0.8241 O   0  0  0  0  0  0  0  0  0  0  0  0
    5.7857   -1.6964   -3.1198 C   0  0  0  0  0  0  0  0  0  0  0  0
   -0.3962   -0.0071    0.9069 H   0  0  0  0  0  0  0  0  0  0  0  0
    1.3520    0.8051   -1.9922 H   0  0  0  0  0  0  0  0  0  0  0  0
    1.5609   -0.9427   -1.9166 H   0  0  0  0  0  0  0  0  0  0  0  0
    3.7879   -1.1317    0.2129 H   0  0  0  0  0  0  0  0  0  0  0  0
    5.2117   -0.2380   -0.4298 H   0  0  0  0  0  0  0  0  0  0  0  0
    5.3218   -3.7814   -0.3721 H   0  0  0  0  0  0  0  0  0  0  0  0
    6.0003   -2.5404   -3.8262 H   0  0  0  0  0  0  0  0  0  0  0  0
    6.7688   -1.3177   -2.7408 H   0  0  0  0  0  0  0  0  0  0  0  0
    5.3058   -0.8697   -3.7081 H   0  0  0  0  0  0  0  0  0  0  0  0
  1 12  1  0  0  0  0
  2  1  1  0  0  0  0
  2  3  2  0  0  0  0
  4  2  1  0  0  0  0
  5  4  1  0  0  0  0
  5  7  1  0  0  0  0
  6  5  2  0  0  0  0
  7 16  1  0  0  0  0
  7 15  1  0  0  0  0
  8  9  2  6  0  0  0
  8 10  1  0  0  0  0
  8  7  1  0  0  0  0
 10 17  1  0  0  0  0
 11 19  1  0  0  0  0
 11  8  1  0  0  0  0
 13  4  1  0  0  0  0
 14  4  1  0  0  0  0
 18 11  1  0  0  0  0
 20 11  1  0  0  0  0
M  END
$$$$
