20

O          0.07210       -0.41510        0.08310
C          1.28800        0.14650       -0.00870
O          1.84790        0.64780        0.93700
C          1.82950        0.08380       -1.42060
C          3.26750       -0.42140       -1.53900
O          3.53630       -1.34580       -2.27260
C          4.33770        0.34390       -0.79500
P          5.08100        1.69920       -1.79000
O          5.97650        2.60080       -1.01120
O          3.75080        2.46850       -2.39420
C          5.79140        0.92310       -3.26050
H         -0.21480       -0.31720        1.00850
H          1.84320        1.11860       -1.80590
H          1.18810       -0.53470       -2.05800
H          5.16230       -0.33840       -0.53990
H          3.94420        0.81750        0.11570
H          3.74330        3.38090       -2.06520
H          6.12540        1.71850       -3.94220
H          5.05940        0.27600       -3.76270
H          6.65940        0.32040       -2.95650
