rmsd136.gzmat
 OpenBabel08211713423D

 20 19  0  0  0  0  0  0  0  0999 V2000
    0.0000    0.0000    0.0000 O   0  0  0  0  0  0  0  0  0  0  0  0
    1.3587    0.0000    0.0000 C   0  0  0  0  0  0  0  0  0  0  0  0
    1.9727    0.0000    1.0344 O   0  0  0  0  0  0  0  0  0  0  0  0
    1.8645   -0.0088   -1.3973 C   0  0  0  0  0  0  0  0  0  0  0  0
    3.3806    0.0206   -1.4874 C   0  0  0  0  0  0  0  0  0  0  0  0
    3.9434   -0.8017   -2.1675 O   0  0  0  0  0  0  0  0  0  0  0  0
    4.1387    1.0894   -0.7485 C   0  0  0  0  0  0  0  0  0  0  0  0
    4.4506    2.5825   -1.8029 P   0  0  2  0  0  0  0  0  0  0  0  0
    4.9080    3.7693   -1.0619 O   0  0  0  0  0  0  0  0  0  0  0  0
    2.9629    2.8076   -2.4255 O   0  0  0  0  0  0  0  0  0  0  0  0
    5.3794    2.0620   -3.2574 C   0  0  0  0  0  0  0  0  0  0  0  0
   -0.3955    0.0038    0.9074 H   0  0  0  0  0  0  0  0  0  0  0  0
    1.4443    0.8584   -1.9727 H   0  0  0  0  0  0  0  0  0  0  0  0
    1.4721   -0.9034   -1.9410 H   0  0  0  0  0  0  0  0  0  0  0  0
    5.1370    0.6837   -0.4009 H   0  0  0  0  0  0  0  0  0  0  0  0
    3.6057    1.4176    0.1940 H   0  0  0  0  0  0  0  0  0  0  0  0
    2.6185    3.7152   -2.1379 H   0  0  0  0  0  0  0  0  0  0  0  0
    5.4498    2.8946   -4.0037 H   0  0  0  0  0  0  0  0  0  0  0  0
    4.9038    1.1853   -3.7694 H   0  0  0  0  0  0  0  0  0  0  0  0
    6.4250    1.7673   -2.9822 H   0  0  0  0  0  0  0  0  0  0  0  0
  1 12  1  0  0  0  0
  2  1  1  0  0  0  0
  2  3  2  0  0  0  0
  4  2  1  0  0  0  0
  5  4  1  0  0  0  0
  5  7  1  0  0  0  0
  6  5  2  0  0  0  0
  7 15  1  0  0  0  0
  7 16  1  0  0  0  0
  8  9  2  1  0  0  0
  8  7  1  0  0  0  0
 10 17  1  0  0  0  0
 10  8  1  0  0  0  0
 11 20  1  0  0  0  0
 11  8  1  0  0  0  0
 13  4  1  0  0  0  0
 14  4  1  0  0  0  0
 18 11  1  0  0  0  0
 19 11  1  0  0  0  0
M  END
$$$$
