rmsd192.gzmat
 OpenBabel08211713403D

 45 47  0  0  1  0  0  0  0  0999 V2000
    0.0000    0.0000    0.0000 O   0  0  0  0  0  0  0  0  0  0  0  0
    1.3811    0.0000    0.0000 C   0  0  0  0  0  0  0  0  0  0  0  0
    1.9045    0.0000    1.2259 N   0  0  0  0  0  0  0  0  0  0  0  0
    0.8062   -0.0009    2.1085 C   0  0  0  0  0  0  0  0  0  0  0  0
   -0.3506   -0.0022    1.3613 C   0  0  1  0  0  0  0  0  0  0  0  0
   -1.7727    0.0373    1.5792 C   0  0  0  0  0  0  0  0  0  0  0  0
   -2.3612   -0.7363    2.5848 C   0  0  0  0  0  0  0  0  0  0  0  0
   -3.7357   -0.6710    2.7948 C   0  0  0  0  0  0  0  0  0  0  0  0
   -4.5273    0.1557    1.9991 C   0  0  0  0  0  0  0  0  0  0  0  0
   -3.9442    0.9152    0.9859 C   0  0  0  0  0  0  0  0  0  0  0  0
   -2.5701    0.8569    0.7713 C   0  0  0  0  0  0  0  0  0  0  0  0
    1.0596    0.0261    3.5748 C   0  0  0  0  0  0  0  0  0  0  0  0
    0.1157    1.0104    4.2721 C   0  0  0  0  0  0  0  0  0  0  0  0
    0.9219   -1.3889    4.1510 C   0  0  0  0  0  0  0  0  0  0  0  0
    2.0681   -0.0112   -1.1937 N   0  0  0  0  0  0  0  0  0  0  0  0
    1.5044    0.1152   -2.4668 C   0  0  0  0  0  0  0  0  0  0  0  0
    2.1876    0.0914   -3.4626 O   0  0  0  0  0  0  0  0  0  0  0  0
    0.1649    0.2979   -2.4140 O   0  0  0  0  0  0  0  0  0  0  0  0
   -0.5123    0.1988   -3.6793 C   0  0  0  0  0  0  0  0  0  0  0  0
   -0.5779   -1.2370   -4.0895 C   0  0  0  0  0  0  0  0  0  0  0  0
   -1.4901   -2.0929   -3.4708 C   0  0  0  0  0  0  0  0  0  0  0  0
   -1.5313   -3.4383   -3.8295 C   0  0  0  0  0  0  0  0  0  0  0  0
   -0.6631   -3.9272   -4.8046 C   0  0  0  0  0  0  0  0  0  0  0  0
    0.2521   -3.0728   -5.4180 C   0  0  0  0  0  0  0  0  0  0  0  0
    0.2984   -1.7277   -5.0586 C   0  0  0  0  0  0  0  0  0  0  0  0
   -1.7437   -1.3944    3.1957 H   0  0  0  0  0  0  0  0  0  0  0  0
   -4.1937   -1.2698    3.5797 H   0  0  0  0  0  0  0  0  0  0  0  0
   -5.6009    0.2054    2.1670 H   0  0  0  0  0  0  0  0  0  0  0  0
   -4.5634    1.5572    0.3626 H   0  0  0  0  0  0  0  0  0  0  0  0
   -2.1101    1.4483   -0.0201 H   0  0  0  0  0  0  0  0  0  0  0  0
    2.1192    0.3715    3.7418 H   0  0  0  0  0  0  0  0  0  0  0  0
   -0.9311    0.6921    4.2097 H   0  0  0  0  0  0  0  0  0  0  0  0
    0.1780    2.0080    3.8205 H   0  0  0  0  0  0  0  0  0  0  0  0
    0.3681    1.1111    5.3328 H   0  0  0  0  0  0  0  0  0  0  0  0
   -0.0931   -1.7825    4.0373 H   0  0  0  0  0  0  0  0  0  0  0  0
    1.1665   -1.4042    5.2184 H   0  0  0  0  0  0  0  0  0  0  0  0
    1.6031   -2.0837    3.6422 H   0  0  0  0  0  0  0  0  0  0  0  0
    3.0914   -0.1000   -1.1353 H   0  0  0  0  0  0  0  0  0  0  0  0
   -0.0127    0.8494   -4.4216 H   0  0  0  0  0  0  0  0  0  0  0  0
   -1.5003    0.6276   -3.4121 H   0  0  0  0  0  0  0  0  0  0  0  0
   -2.1596   -1.7127   -2.6998 H   0  0  0  0  0  0  0  0  0  0  0  0
   -2.2380   -4.1082   -3.3441 H   0  0  0  0  0  0  0  0  0  0  0  0
   -0.6966   -4.9784   -5.0841 H   0  0  0  0  0  0  0  0  0  0  0  0
    0.9366   -3.4567   -6.1719 H   0  0  0  0  0  0  0  0  0  0  0  0
    1.0320   -1.0634   -5.5189 H   0  0  0  0  0  0  0  0  0  0  0  0
  1  2  1  0  0  0  0
  1  5  1  0  0  0  0
  2  3  2  0  0  0  0
  3  4  2  0  0  0  0
  4 12  1  0  0  0  0
  5  6  1  1  0  0  0
  5  4  1  0  0  0  0
  6  7  2  0  0  0  0
  7  8  1  0  0  0  0
  7 26  1  0  0  0  0
  8 27  1  0  0  0  0
  9 28  1  0  0  0  0
  9  8  2  0  0  0  0
 10  9  1  0  0  0  0
 11 10  2  0  0  0  0
 11  6  1  0  0  0  0
 12 31  1  0  0  0  0
 12 14  1  0  0  0  0
 12 13  1  0  0  0  0
 13 34  1  0  0  0  0
 14 36  1  0  0  0  0
 15 38  1  0  0  0  0
 15  2  1  0  0  0  0
 16 18  1  0  0  0  0
 16 15  1  0  0  0  0
 17 16  2  0  0  0  0
 19 40  1  0  0  0  0
 19 18  1  0  0  0  0
 20 19  1  0  0  0  0
 20 21  2  0  0  0  0
 21 41  1  0  0  0  0
 22 21  1  0  0  0  0
 22 42  1  0  0  0  0
 23 22  2  0  0  0  0
 24 25  2  0  0  0  0
 24 23  1  0  0  0  0
 25 20  1  0  0  0  0
 29 10  1  0  0  0  0
 30 11  1  0  0  0  0
 32 13  1  0  0  0  0
 33 13  1  0  0  0  0
 35 14  1  0  0  0  0
 37 14  1  0  0  0  0
 39 19  1  0  0  0  0
 43 23  1  0  0  0  0
 44 24  1  0  0  0  0
 45 25  1  0  0  0  0
M  RAD  1   5   2
M  END
$$$$
