45
rmsd192.gzmat
O          0.00000        0.00000        0.00000
C          1.38110        0.00000        0.00000
N          1.90450        0.00000        1.22590
C          0.80620       -0.00090        2.10850
C         -0.35060       -0.00220        1.36130
C         -1.77270        0.03730        1.57920
C         -2.36120       -0.73630        2.58480
C         -3.73570       -0.67100        2.79480
C         -4.52730        0.15570        1.99910
C         -3.94420        0.91520        0.98590
C         -2.57010        0.85690        0.77130
C          1.05960        0.02610        3.57480
C          0.11570        1.01040        4.27210
C          0.92190       -1.38890        4.15100
N          2.06810       -0.01120       -1.19370
C          1.50440        0.11520       -2.46680
O          2.18760        0.09140       -3.46260
O          0.16490        0.29790       -2.41400
C         -0.51230        0.19880       -3.67930
C         -0.57790       -1.23700       -4.08950
C         -1.49010       -2.09290       -3.47080
C         -1.53130       -3.43830       -3.82950
C         -0.66310       -3.92720       -4.80460
C          0.25210       -3.07280       -5.41800
C          0.29840       -1.72770       -5.05860
H         -1.74370       -1.39440        3.19570
H         -4.19370       -1.26980        3.57970
H         -5.60090        0.20540        2.16700
H         -4.56340        1.55720        0.36260
H         -2.11010        1.44830       -0.02010
H          2.11920        0.37150        3.74180
H         -0.93110        0.69210        4.20970
H          0.17800        2.00800        3.82050
H          0.36810        1.11110        5.33280
H         -0.09310       -1.78250        4.03730
H          1.16650       -1.40420        5.21840
H          1.60310       -2.08370        3.64220
H          3.09140       -0.10000       -1.13530
H         -0.01270        0.84940       -4.42160
H         -1.50030        0.62760       -3.41210
H         -2.15960       -1.71270       -2.69980
H         -2.23800       -4.10820       -3.34410
H         -0.69660       -4.97840       -5.08410
H          0.93660       -3.45670       -6.17190
H          1.03200       -1.06340       -5.51890
