45

O          0.43200       -0.34000        0.13780
C          1.69300        0.08030        0.27290
N          2.00140        0.48680        1.46690
C          0.83480        0.33270        2.21400
C         -0.14410       -0.19100        1.39930
C         -1.54970       -0.57640        1.48110
C         -2.12020       -1.07990        2.66500
C         -3.46710       -1.44080        2.70820
C         -4.26730       -1.32630        1.56780
C         -3.70580       -0.84800        0.37970
C         -2.36390       -0.47370        0.33470
C          0.84040        0.76960        3.65760
C         -0.39050        1.59290        4.05790
C          1.09960       -0.40610        4.61460
N          2.56440        0.04790       -0.79470
C          2.37260       -0.26220       -2.13220
O          3.27570       -0.26110       -2.93380
O          1.09530       -0.54910       -2.39990
C          0.78990       -0.94750       -3.73980
C         -0.62850       -1.45330       -3.78370
C         -1.22510       -2.03850       -2.65870
C         -2.52860       -2.53590       -2.73090
C         -3.24650       -2.46190       -3.92770
C         -2.65600       -1.87950       -5.05300
C         -1.35640       -1.37340       -4.97860
H         -1.49800       -1.21430        3.54890
H         -3.88990       -1.83020        3.63740
H         -5.32020       -1.61560        1.60310
H         -4.31600       -0.76170       -0.52240
H         -1.93270       -0.09970       -0.59410
H          1.71830        1.43190        3.72480
H         -1.31700        1.00210        4.02760
H         -0.52350        2.45480        3.38640
H         -0.27260        1.97450        5.08440
H          0.26350       -1.12300        4.61650
H          1.23130       -0.04250        5.64630
H          2.00920       -0.95360        4.32510
H          3.51320        0.32120       -0.56160
H          1.50810       -1.72500       -4.05090
H          0.93170       -0.09200       -4.41950
H         -0.67140       -2.08220       -1.72070
H         -2.98490       -2.97660       -1.84160
H         -4.26570       -2.85180       -3.98280
H         -3.21260       -1.80990       -5.99070
H         -0.90420       -0.90680       -5.85850
