45
rmsd227.gzmat
O          0.00000        0.00000        0.00000
C          1.38210        0.00000        0.00000
N          1.91450        0.00000        1.22090
C          0.81960        0.00020        2.10500
C         -0.34280       -0.00310        1.36050
C         -1.75780       -0.00290        1.61150
C         -2.26390       -0.54870        2.79680
C         -3.63590       -0.54190        3.03280
C         -4.50680       -0.00260        2.08760
C         -4.00490        0.53070        0.90060
C         -2.63450        0.53330        0.65940
C          1.00230        0.01530        3.58270
C          1.35460       -1.39920        4.06380
C          2.09820        1.01230        3.97810
N          2.03690       -0.04090       -1.21390
C          1.38430        0.28070       -2.40640
O          0.23790        0.62640       -2.52570
O          2.27730        0.09500       -3.42020
C          1.82810        0.51850       -4.71700
C          2.10490        1.98030       -4.87270
C          3.32980        2.40610       -5.38750
C          3.58680        3.76780       -5.53160
C          2.62370        4.70300       -5.15590
C          1.40400        4.27710       -4.63190
C          1.14340        2.91650       -4.48860
H         -1.58810       -0.98930        3.52740
H         -4.02820       -0.96360        3.95560
H         -5.57810       -0.00040        2.27440
H         -4.68560        0.94650        0.16010
H         -2.24010        0.95000       -0.26940
H          0.04160        0.33720        4.06560
H          2.28670       -1.74850        3.59980
H          0.57280       -2.12150        3.80590
H          1.49500       -1.42470        5.14870
H          3.05780        0.74780        3.51170
H          2.24430        1.03610        5.06140
H          1.85120        2.02660        3.64370
H          3.03780       -0.24720       -1.20390
H          0.75990        0.26020       -4.85930
H          2.45030       -0.12260       -5.37390
H          4.08690        1.67770       -5.67210
H          4.54050        4.10120       -5.93530
H          2.82550        5.76650       -5.27030
H          0.65570        5.00840       -4.33110
H          0.19220        2.58150       -4.06780
