
     RDKit          3D

 45 47  0  0  0  0  0  0  0  0999 V2000
   -0.1484    0.0008    0.0770 O   0  0  0  0  0  0  0  0  0  0  0  0
    1.1832   -0.0192    0.0454 C   0  0  0  0  0  0  0  0  0  0  0  0
    1.7560    0.0282    1.2092 N   0  0  0  0  0  0  0  0  0  0  0  0
    0.7049    0.0778    2.1237 C   0  0  0  0  0  0  0  0  0  0  0  0
   -0.4862    0.0687    1.4267 C   0  0  0  0  0  0  0  0  0  0  0  0
   -1.9209    0.0719    1.6917 C   0  0  0  0  0  0  0  0  0  0  0  0
   -2.4665    0.5262    2.9073 C   0  0  0  0  0  0  0  0  0  0  0  0
   -3.8442    0.5032    3.1236 C   0  0  0  0  0  0  0  0  0  0  0  0
   -4.7100    0.0418    2.1286 C   0  0  0  0  0  0  0  0  0  0  0  0
   -4.1817   -0.3905    0.9081 C   0  0  0  0  0  0  0  0  0  0  0  0
   -2.8057   -0.3766    0.6877 C   0  0  0  0  0  0  0  0  0  0  0  0
    1.0412    0.0908    3.5949 C   0  0  0  0  0  0  0  0  0  0  0  0
    0.9127    1.4924    4.2147 C   0  0  0  0  0  0  0  0  0  0  0  0
    0.3031   -0.9873    4.4009 C   0  0  0  0  0  0  0  0  0  0  0  0
    1.8410   -0.0713   -1.1629 N   0  0  0  0  0  0  0  0  0  0  0  0
    1.2873   -0.3023   -2.4083 C   0  0  0  0  0  0  0  0  0  0  0  0
    0.1179   -0.4780   -2.6442 O   0  0  0  0  0  0  0  0  0  0  0  0
    2.2815   -0.2891   -3.3196 O   0  0  0  0  0  0  0  0  0  0  0  0
    1.9104   -0.6020   -4.6802 C   0  0  0  0  0  0  0  0  0  0  0  0
    1.9350   -2.0866   -4.9368 C   0  0  0  0  0  0  0  0  0  0  0  0
    0.8018   -2.8751   -4.6840 C   0  0  0  0  0  0  0  0  0  0  0  0
    0.8425   -4.2549   -4.8946 C   0  0  0  0  0  0  0  0  0  0  0  0
    2.0133   -4.8614   -5.3595 C   0  0  0  0  0  0  0  0  0  0  0  0
    3.1461   -4.0831   -5.6135 C   0  0  0  0  0  0  0  0  0  0  0  0
    3.1050   -2.7033   -5.4017 C   0  0  0  0  0  0  0  0  0  0  0  0
   -1.8123    0.9214    3.6816 H   0  0  0  0  0  0  0  0  0  0  0  0
   -4.2438    0.8613    4.0754 H   0  0  0  0  0  0  0  0  0  0  0  0
   -5.7889    0.0276    2.2994 H   0  0  0  0  0  0  0  0  0  0  0  0
   -4.8483   -0.7445    0.1180 H   0  0  0  0  0  0  0  0  0  0  0  0
   -2.3977   -0.7106   -0.2671 H   0  0  0  0  0  0  0  0  0  0  0  0
    2.1125   -0.1642    3.6142 H   0  0  0  0  0  0  0  0  0  0  0  0
   -0.1301    1.8444    4.2327 H   0  0  0  0  0  0  0  0  0  0  0  0
    1.5006    2.2269    3.6436 H   0  0  0  0  0  0  0  0  0  0  0  0
    1.2828    1.4896    5.2525 H   0  0  0  0  0  0  0  0  0  0  0  0
   -0.7838   -0.8249    4.4244 H   0  0  0  0  0  0  0  0  0  0  0  0
    0.6621   -0.9948    5.4423 H   0  0  0  0  0  0  0  0  0  0  0  0
    0.4799   -1.9854    3.9720 H   0  0  0  0  0  0  0  0  0  0  0  0
    2.8514   -0.0075   -1.1015 H   0  0  0  0  0  0  0  0  0  0  0  0
    2.6590   -0.0844   -5.2937 H   0  0  0  0  0  0  0  0  0  0  0  0
    0.9161   -0.1798   -4.8780 H   0  0  0  0  0  0  0  0  0  0  0  0
   -0.1045   -2.3978   -4.3068 H   0  0  0  0  0  0  0  0  0  0  0  0
   -0.0451   -4.8603   -4.6957 H   0  0  0  0  0  0  0  0  0  0  0  0
    2.0425   -5.9410   -5.5257 H   0  0  0  0  0  0  0  0  0  0  0  0
    4.0628   -4.5518   -5.9793 H   0  0  0  0  0  0  0  0  0  0  0  0
    3.9915   -2.0949   -5.6017 H   0  0  0  0  0  0  0  0  0  0  0  0
  1  2  1  0
  1  5  1  0
  2  3  2  0
  2 15  1  0
  3  4  1  0
  4  5  2  0
  4 12  1  0
  5  6  1  0
  6  7  2  0
  6 11  1  0
  7  8  1  0
  7 26  1  0
  8  9  2  0
  8 27  1  0
  9 10  1  0
  9 28  1  0
 10 11  2  0
 10 29  1  0
 11 30  1  0
 12 13  1  0
 12 14  1  0
 12 31  1  0
 13 32  1  0
 13 33  1  0
 13 34  1  0
 14 35  1  0
 14 36  1  0
 14 37  1  0
 15 16  1  0
 15 38  1  0
 16 17  2  0
 16 18  1  0
 18 19  1  0
 19 20  1  0
 19 39  1  0
 19 40  1  0
 20 21  2  0
 20 25  1  0
 21 22  1  0
 21 41  1  0
 22 23  2  0
 22 42  1  0
 23 24  1  0
 23 43  1  0
 24 25  2  0
 24 44  1  0
 25 45  1  0
M  END

