45
rmsd93.gzmat
O          0.00000        0.00000        0.00000
C          1.38060        0.00000        0.00000
N          1.90980        0.00000        1.22170
C          0.81220        0.00050        2.10730
C         -0.34730        0.00170        1.36240
C         -1.77010       -0.03160        1.57580
C         -2.35250        0.67940        2.62980
C         -3.72930        0.62410        2.82770
C         -4.52970       -0.12750        1.96890
C         -3.95310       -0.82050        0.90530
C         -2.57650       -0.77540        0.70500
C          1.07590       -0.02400        3.57210
C          0.92660        1.38860        4.15170
C          0.15220       -1.02210        4.27700
N          2.03960        0.02450       -1.21150
C          1.36620       -0.20320       -2.41400
O          0.19320       -0.43470       -2.54650
O          2.28070       -0.08500       -3.42000
C          1.79940       -0.45670       -4.72100
C          1.78720       -1.94820       -4.83260
C          0.60600       -2.65420       -4.60010
C          0.60030       -4.04440       -4.68740
C          1.77360       -4.72870       -5.00050
C          2.95490       -4.02320       -5.22560
C          2.96330       -2.63280       -5.14150
H         -1.72900        1.28300        3.28900
H         -4.18090        1.17250        3.65150
H         -5.60520       -0.16960        2.12530
H         -4.58030       -1.39820        0.22890
H         -2.12290       -1.31470       -0.12860
H          2.14130       -0.35650        3.73080
H         -0.09300        1.77240        4.04230
H          1.59920        2.09120        3.64260
H          1.17520        1.40450        5.21790
H         -0.90400       -0.74440        4.18410
H          0.38340       -1.08540        5.34530
H          0.26140       -2.02800        3.85350
H          3.05310        0.15570       -1.19540
H          2.55700        0.02900       -5.36900
H          0.80800        0.00360       -4.90210
H         -0.30840       -2.11810       -4.33440
H         -0.31980       -4.59600       -4.50490
H          1.76850       -5.81520       -5.06650
H          3.87100       -4.55860       -5.46390
H          3.88820       -2.08350       -5.30960
