45
rmsd143.gzmat
O          0.00000        0.00000        0.00000
C          1.38130        0.00000        0.00000
N          1.90450        0.00000        1.22590
C          0.80630       -0.00400        2.10890
C         -0.35080       -0.00950        1.36200
C         -1.77320        0.00460        1.57950
C         -2.58860        0.78860        0.75410
C         -3.96450        0.81510        0.96240
C         -4.53160        0.06370        1.99080
C         -3.72200       -0.72470        2.80710
C         -2.34600       -0.76150        2.60000
C          1.05870        0.01840        3.57550
C          0.11900        1.00830        4.27100
C          0.91090       -1.39610        4.15110
N          2.06830        0.01920       -1.19320
C          1.50870       -0.08500       -2.47100
O          2.19610       -0.06200       -3.46240
O          0.16380       -0.24120       -2.42420
C         -0.50360       -0.14720       -3.69180
C         -0.69670        1.29180       -4.05150
C         -1.04540        2.20800       -3.05800
C         -1.21960        3.55090       -3.38340
C         -1.05370        3.97620       -4.70100
C         -0.70910        3.05910       -5.69260
C         -0.52690        1.71590       -5.36920
H         -2.14220        1.37660       -0.04720
H         -4.59790        1.42480        0.32090
H         -5.60680        0.08960        2.15480
H         -4.16530       -1.31610        3.60600
H         -1.71560       -1.39220        3.22700
H          2.12060        0.35580        3.74440
H         -0.93320        0.71830        4.17010
H          0.22130        2.01430        3.84630
H          0.34020        1.07640        5.34160
H         -0.08960       -1.80760        3.98200
H          1.09510       -1.40240        5.23050
H          1.63030       -2.08270        3.68620
H          3.09370        0.08310       -1.13170
H         -1.46310       -0.65740       -3.45790
H          0.04970       -0.72460       -4.45710
H         -1.17080        1.87050       -2.02880
H         -1.48250        4.26860       -2.60860
H         -1.18830        5.02550       -4.95550
H         -0.57380        3.39260       -6.71980
H         -0.24170        1.00600       -6.14360
