45

O          0.12100       -0.04870       -0.02910
C          1.44850        0.08260        0.03600
N          1.92610        0.13420        1.24260
C          0.81420        0.03210        2.07640
C         -0.31330       -0.08900        1.29270
C         -1.75900       -0.20200        1.45270
C         -2.34870       -0.78340        2.59020
C         -3.73610       -0.87520        2.70530
C         -4.56470       -0.40590        1.68260
C         -3.99010        0.15530        0.53760
C         -2.60500        0.25790        0.42130
C          1.02450        0.10980        3.56810
C          0.06620        1.07770        4.27470
C          1.04970       -1.28140        4.22340
N          2.20120        0.09470       -1.11830
C          1.81260        0.20770       -2.44400
O          2.56940       -0.00070       -3.36190
O          0.53500        0.59180       -2.55330
C         -0.07380        0.43080       -3.85000
C         -0.49620       -0.99950       -4.06030
C         -1.53990       -1.53960       -3.29320
C         -1.90930       -2.87610       -3.44470
C         -1.23830       -3.68730       -4.36660
C         -0.19340       -3.15840       -5.12800
C          0.18070       -1.82090       -4.97000
H         -1.71660       -1.19010        3.37800
H         -4.17180       -1.33130        3.59750
H         -5.65050       -0.48320        1.77370
H         -4.62760        0.52220       -0.27070
H         -2.15770        0.70350       -0.46830
H          2.04110        0.52300        3.66450
H         -0.97930        0.74110        4.22820
H          0.11360        2.07910        3.82060
H          0.33860        1.17150        5.33790
H          0.06670       -1.77540        4.17570
H          1.33350       -1.20250        5.28510
H          1.77730       -1.93710        3.72180
H          3.19570       -0.04590       -0.97670
H          0.62850        0.76120       -4.62660
H         -0.93910        1.10640       -3.82450
H         -2.05660       -0.91080       -2.56370
H         -2.72230       -3.28750       -2.84180
H         -1.52860       -4.73380       -4.48730
H          0.33900       -3.79100       -5.84230
H          1.01430       -1.41060       -5.54440
