
     RDKit          3D

 45 47  0  0  0  0  0  0  0  0999 V2000
    0.1210   -0.0487   -0.0291 O   0  0  0  0  0  0  0  0  0  0  0  0
    1.4485    0.0826    0.0360 C   0  0  0  0  0  0  0  0  0  0  0  0
    1.9261    0.1342    1.2426 N   0  0  0  0  0  0  0  0  0  0  0  0
    0.8142    0.0321    2.0764 C   0  0  0  0  0  0  0  0  0  0  0  0
   -0.3133   -0.0890    1.2927 C   0  0  0  0  0  0  0  0  0  0  0  0
   -1.7590   -0.2020    1.4527 C   0  0  0  0  0  0  0  0  0  0  0  0
   -2.3487   -0.7834    2.5902 C   0  0  0  0  0  0  0  0  0  0  0  0
   -3.7361   -0.8752    2.7053 C   0  0  0  0  0  0  0  0  0  0  0  0
   -4.5647   -0.4059    1.6826 C   0  0  0  0  0  0  0  0  0  0  0  0
   -3.9901    0.1553    0.5376 C   0  0  0  0  0  0  0  0  0  0  0  0
   -2.6050    0.2579    0.4213 C   0  0  0  0  0  0  0  0  0  0  0  0
    1.0245    0.1098    3.5681 C   0  0  0  0  0  0  0  0  0  0  0  0
    0.0662    1.0777    4.2747 C   0  0  0  0  0  0  0  0  0  0  0  0
    1.0497   -1.2814    4.2234 C   0  0  0  0  0  0  0  0  0  0  0  0
    2.2012    0.0947   -1.1183 N   0  0  0  0  0  0  0  0  0  0  0  0
    1.8126    0.2077   -2.4440 C   0  0  0  0  0  0  0  0  0  0  0  0
    2.5694   -0.0007   -3.3619 O   0  0  0  0  0  0  0  0  0  0  0  0
    0.5350    0.5918   -2.5533 O   0  0  0  0  0  0  0  0  0  0  0  0
   -0.0738    0.4308   -3.8500 C   0  0  0  0  0  0  0  0  0  0  0  0
   -0.4962   -0.9995   -4.0603 C   0  0  0  0  0  0  0  0  0  0  0  0
   -1.5399   -1.5396   -3.2932 C   0  0  0  0  0  0  0  0  0  0  0  0
   -1.9093   -2.8761   -3.4447 C   0  0  0  0  0  0  0  0  0  0  0  0
   -1.2383   -3.6873   -4.3666 C   0  0  0  0  0  0  0  0  0  0  0  0
   -0.1934   -3.1584   -5.1280 C   0  0  0  0  0  0  0  0  0  0  0  0
    0.1807   -1.8209   -4.9700 C   0  0  0  0  0  0  0  0  0  0  0  0
   -1.7166   -1.1901    3.3780 H   0  0  0  0  0  0  0  0  0  0  0  0
   -4.1718   -1.3313    3.5975 H   0  0  0  0  0  0  0  0  0  0  0  0
   -5.6505   -0.4832    1.7737 H   0  0  0  0  0  0  0  0  0  0  0  0
   -4.6276    0.5222   -0.2707 H   0  0  0  0  0  0  0  0  0  0  0  0
   -2.1577    0.7035   -0.4683 H   0  0  0  0  0  0  0  0  0  0  0  0
    2.0411    0.5230    3.6645 H   0  0  0  0  0  0  0  0  0  0  0  0
   -0.9793    0.7411    4.2282 H   0  0  0  0  0  0  0  0  0  0  0  0
    0.1136    2.0791    3.8206 H   0  0  0  0  0  0  0  0  0  0  0  0
    0.3386    1.1715    5.3379 H   0  0  0  0  0  0  0  0  0  0  0  0
    0.0667   -1.7754    4.1757 H   0  0  0  0  0  0  0  0  0  0  0  0
    1.3335   -1.2025    5.2851 H   0  0  0  0  0  0  0  0  0  0  0  0
    1.7773   -1.9371    3.7218 H   0  0  0  0  0  0  0  0  0  0  0  0
    3.1957   -0.0459   -0.9767 H   0  0  0  0  0  0  0  0  0  0  0  0
    0.6285    0.7612   -4.6266 H   0  0  0  0  0  0  0  0  0  0  0  0
   -0.9391    1.1064   -3.8245 H   0  0  0  0  0  0  0  0  0  0  0  0
   -2.0566   -0.9108   -2.5637 H   0  0  0  0  0  0  0  0  0  0  0  0
   -2.7223   -3.2875   -2.8418 H   0  0  0  0  0  0  0  0  0  0  0  0
   -1.5286   -4.7338   -4.4873 H   0  0  0  0  0  0  0  0  0  0  0  0
    0.3390   -3.7910   -5.8423 H   0  0  0  0  0  0  0  0  0  0  0  0
    1.0143   -1.4106   -5.5444 H   0  0  0  0  0  0  0  0  0  0  0  0
  1  2  1  0
  1  5  1  0
  2  3  2  0
  2 15  1  0
  3  4  1  0
  4  5  2  0
  4 12  1  0
  5  6  1  0
  6  7  2  0
  6 11  1  0
  7  8  1  0
  7 26  1  0
  8  9  2  0
  8 27  1  0
  9 10  1  0
  9 28  1  0
 10 11  2  0
 10 29  1  0
 11 30  1  0
 12 13  1  0
 12 14  1  0
 12 31  1  0
 13 32  1  0
 13 33  1  0
 13 34  1  0
 14 35  1  0
 14 36  1  0
 14 37  1  0
 15 16  1  0
 15 38  1  0
 16 17  2  0
 16 18  1  0
 18 19  1  0
 19 20  1  0
 19 39  1  0
 19 40  1  0
 20 21  2  0
 20 25  1  0
 21 22  1  0
 21 41  1  0
 22 23  2  0
 22 42  1  0
 23 24  1  0
 23 43  1  0
 24 25  2  0
 24 44  1  0
 25 45  1  0
M  END

