rmsd227.gzmat
 OpenBabel08211713403D

 45 47  0  0  1  0  0  0  0  0999 V2000
    0.0000    0.0000    0.0000 O   0  0  0  0  0  0  0  0  0  0  0  0
    1.3821    0.0000    0.0000 C   0  0  0  0  0  0  0  0  0  0  0  0
    1.9145    0.0000    1.2209 N   0  0  0  0  0  0  0  0  0  0  0  0
    0.8196    0.0002    2.1050 C   0  0  0  0  0  0  0  0  0  0  0  0
   -0.3428   -0.0031    1.3605 C   0  0  1  0  0  0  0  0  0  0  0  0
   -1.7578   -0.0029    1.6115 C   0  0  0  0  0  0  0  0  0  0  0  0
   -2.2639   -0.5487    2.7968 C   0  0  0  0  0  0  0  0  0  0  0  0
   -3.6359   -0.5419    3.0328 C   0  0  0  0  0  0  0  0  0  0  0  0
   -4.5068   -0.0026    2.0876 C   0  0  0  0  0  0  0  0  0  0  0  0
   -4.0049    0.5307    0.9006 C   0  0  0  0  0  0  0  0  0  0  0  0
   -2.6345    0.5333    0.6594 C   0  0  0  0  0  0  0  0  0  0  0  0
    1.0023    0.0153    3.5827 C   0  0  0  0  0  0  0  0  0  0  0  0
    1.3546   -1.3992    4.0638 C   0  0  0  0  0  0  0  0  0  0  0  0
    2.0982    1.0123    3.9781 C   0  0  0  0  0  0  0  0  0  0  0  0
    2.0369   -0.0409   -1.2139 N   0  0  0  0  0  0  0  0  0  0  0  0
    1.3843    0.2807   -2.4064 C   0  0  0  0  0  0  0  0  0  0  0  0
    0.2379    0.6264   -2.5257 O   0  0  0  0  0  0  0  0  0  0  0  0
    2.2773    0.0950   -3.4202 O   0  0  0  0  0  0  0  0  0  0  0  0
    1.8281    0.5185   -4.7170 C   0  0  0  0  0  0  0  0  0  0  0  0
    2.1049    1.9803   -4.8727 C   0  0  0  0  0  0  0  0  0  0  0  0
    3.3298    2.4061   -5.3875 C   0  0  0  0  0  0  0  0  0  0  0  0
    3.5868    3.7678   -5.5316 C   0  0  0  0  0  0  0  0  0  0  0  0
    2.6237    4.7030   -5.1559 C   0  0  0  0  0  0  0  0  0  0  0  0
    1.4040    4.2771   -4.6319 C   0  0  0  0  0  0  0  0  0  0  0  0
    1.1434    2.9165   -4.4886 C   0  0  0  0  0  0  0  0  0  0  0  0
   -1.5881   -0.9893    3.5274 H   0  0  0  0  0  0  0  0  0  0  0  0
   -4.0282   -0.9636    3.9556 H   0  0  0  0  0  0  0  0  0  0  0  0
   -5.5781   -0.0004    2.2744 H   0  0  0  0  0  0  0  0  0  0  0  0
   -4.6856    0.9465    0.1601 H   0  0  0  0  0  0  0  0  0  0  0  0
   -2.2401    0.9500   -0.2694 H   0  0  0  0  0  0  0  0  0  0  0  0
    0.0416    0.3372    4.0656 H   0  0  0  0  0  0  0  0  0  0  0  0
    2.2867   -1.7485    3.5998 H   0  0  0  0  0  0  0  0  0  0  0  0
    0.5728   -2.1215    3.8059 H   0  0  0  0  0  0  0  0  0  0  0  0
    1.4950   -1.4247    5.1487 H   0  0  0  0  0  0  0  0  0  0  0  0
    3.0578    0.7478    3.5117 H   0  0  0  0  0  0  0  0  0  0  0  0
    2.2443    1.0361    5.0614 H   0  0  0  0  0  0  0  0  0  0  0  0
    1.8512    2.0266    3.6437 H   0  0  0  0  0  0  0  0  0  0  0  0
    3.0378   -0.2472   -1.2039 H   0  0  0  0  0  0  0  0  0  0  0  0
    0.7599    0.2602   -4.8593 H   0  0  0  0  0  0  0  0  0  0  0  0
    2.4503   -0.1226   -5.3739 H   0  0  0  0  0  0  0  0  0  0  0  0
    4.0869    1.6777   -5.6721 H   0  0  0  0  0  0  0  0  0  0  0  0
    4.5405    4.1012   -5.9353 H   0  0  0  0  0  0  0  0  0  0  0  0
    2.8255    5.7665   -5.2703 H   0  0  0  0  0  0  0  0  0  0  0  0
    0.6557    5.0084   -4.3311 H   0  0  0  0  0  0  0  0  0  0  0  0
    0.1922    2.5815   -4.0678 H   0  0  0  0  0  0  0  0  0  0  0  0
  1  2  1  0  0  0  0
  1  5  1  0  0  0  0
  2  3  2  0  0  0  0
  3  4  2  0  0  0  0
  4 12  1  0  0  0  0
  5  6  1  1  0  0  0
  5  4  1  0  0  0  0
  6  7  2  0  0  0  0
  7  8  1  0  0  0  0
  7 26  1  0  0  0  0
  8 27  1  0  0  0  0
  9 28  1  0  0  0  0
  9  8  2  0  0  0  0
 10  9  1  0  0  0  0
 11 10  2  0  0  0  0
 11  6  1  0  0  0  0
 12 14  1  0  0  0  0
 12 13  1  0  0  0  0
 12 31  1  0  0  0  0
 13 34  1  0  0  0  0
 14 36  1  0  0  0  0
 15 38  1  0  0  0  0
 15  2  1  0  0  0  0
 16 15  1  0  0  0  0
 17 16  2  0  0  0  0
 18 16  1  0  0  0  0
 19 18  1  0  0  0  0
 20 19  1  0  0  0  0
 20 25  2  0  0  0  0
 21 20  1  0  0  0  0
 22 21  2  0  0  0  0
 22 23  1  0  0  0  0
 23 24  2  0  0  0  0
 24 25  1  0  0  0  0
 24 44  1  0  0  0  0
 25 45  1  0  0  0  0
 29 10  1  0  0  0  0
 30 11  1  0  0  0  0
 32 13  1  0  0  0  0
 33 13  1  0  0  0  0
 35 14  1  0  0  0  0
 37 14  1  0  0  0  0
 39 19  1  0  0  0  0
 40 19  1  0  0  0  0
 41 21  1  0  0  0  0
 42 22  1  0  0  0  0
 43 23  1  0  0  0  0
M  RAD  1   5   2
M  END
$$$$
