
     RDKit          3D

 45 47  0  0  0  0  0  0  0  0999 V2000
    0.2520    0.2216   -0.1331 O   0  0  0  0  0  0  0  0  0  0  0  0
    1.5586   -0.0544   -0.0688 C   0  0  0  0  0  0  0  0  0  0  0  0
    2.0059   -0.2562    1.1323 N   0  0  0  0  0  0  0  0  0  0  0  0
    0.8972   -0.1006    1.9632 C   0  0  0  0  0  0  0  0  0  0  0  0
   -0.2040    0.1734    1.1791 C   0  0  0  0  0  0  0  0  0  0  0  0
   -1.6309    0.4377    1.3369 C   0  0  0  0  0  0  0  0  0  0  0  0
   -2.3089    1.1725    0.3412 C   0  0  0  0  0  0  0  0  0  0  0  0
   -3.6712    1.4401    0.4598 C   0  0  0  0  0  0  0  0  0  0  0  0
   -4.3901    0.9849    1.5697 C   0  0  0  0  0  0  0  0  0  0  0  0
   -3.7314    0.2442    2.5549 C   0  0  0  0  0  0  0  0  0  0  0  0
   -2.3695   -0.0349    2.4375 C   0  0  0  0  0  0  0  0  0  0  0  0
    1.0948   -0.2241    3.4537 C   0  0  0  0  0  0  0  0  0  0  0  0
    0.4445    0.9098    4.2572 C   0  0  0  0  0  0  0  0  0  0  0  0
    0.7108   -1.6183    3.9776 C   0  0  0  0  0  0  0  0  0  0  0  0
    2.3197   -0.0146   -1.2188 N   0  0  0  0  0  0  0  0  0  0  0  0
    1.9120   -0.0922   -2.5406 C   0  0  0  0  0  0  0  0  0  0  0  0
    2.6259    0.2230   -3.4637 O   0  0  0  0  0  0  0  0  0  0  0  0
    0.6679   -0.5750   -2.6364 O   0  0  0  0  0  0  0  0  0  0  0  0
   -0.0140   -0.3960   -3.8944 C   0  0  0  0  0  0  0  0  0  0  0  0
   -0.7429    0.9219   -3.9000 C   0  0  0  0  0  0  0  0  0  0  0  0
   -2.0439    1.0126   -3.3856 C   0  0  0  0  0  0  0  0  0  0  0  0
   -2.6979    2.2448   -3.3250 C   0  0  0  0  0  0  0  0  0  0  0  0
   -2.0530    3.4013   -3.7741 C   0  0  0  0  0  0  0  0  0  0  0  0
   -0.7547    3.3195   -4.2860 C   0  0  0  0  0  0  0  0  0  0  0  0
   -0.1021    2.0860   -4.3490 C   0  0  0  0  0  0  0  0  0  0  0  0
   -1.7575    1.5313   -0.5281 H   0  0  0  0  0  0  0  0  0  0  0  0
   -4.1738    2.0158   -0.3213 H   0  0  0  0  0  0  0  0  0  0  0  0
   -5.4572    1.1990    1.6625 H   0  0  0  0  0  0  0  0  0  0  0  0
   -4.2846   -0.1335    3.4181 H   0  0  0  0  0  0  0  0  0  0  0  0
   -1.8809   -0.6462    3.1942 H   0  0  0  0  0  0  0  0  0  0  0  0
    2.1856   -0.1313    3.5770 H   0  0  0  0  0  0  0  0  0  0  0  0
   -0.6526    0.8970    4.1890 H   0  0  0  0  0  0  0  0  0  0  0  0
    0.7879    1.8922    3.8990 H   0  0  0  0  0  0  0  0  0  0  0  0
    0.7127    0.8218    5.3220 H   0  0  0  0  0  0  0  0  0  0  0  0
   -0.3711   -1.8057    3.8936 H   0  0  0  0  0  0  0  0  0  0  0  0
    0.9867   -1.7207    5.0394 H   0  0  0  0  0  0  0  0  0  0  0  0
    1.2303   -2.4053    3.4106 H   0  0  0  0  0  0  0  0  0  0  0  0
    3.3113    0.1459   -1.0798 H   0  0  0  0  0  0  0  0  0  0  0  0
   -0.7130   -1.2396   -3.9563 H   0  0  0  0  0  0  0  0  0  0  0  0
    0.7188   -0.4604   -4.7094 H   0  0  0  0  0  0  0  0  0  0  0  0
   -2.5438    0.1115   -3.0211 H   0  0  0  0  0  0  0  0  0  0  0  0
   -3.7137    2.3026   -2.9268 H   0  0  0  0  0  0  0  0  0  0  0  0
   -2.5634    4.3662   -3.7268 H   0  0  0  0  0  0  0  0  0  0  0  0
   -0.2478    4.2210   -4.6383 H   0  0  0  0  0  0  0  0  0  0  0  0
    0.9174    2.0191   -4.7356 H   0  0  0  0  0  0  0  0  0  0  0  0
  1  2  1  0
  1  5  1  0
  2  3  2  0
  2 15  1  0
  3  4  1  0
  4  5  2  0
  4 12  1  0
  5  6  1  0
  6  7  2  0
  6 11  1  0
  7  8  1  0
  7 26  1  0
  8  9  2  0
  8 27  1  0
  9 10  1  0
  9 28  1  0
 10 11  2  0
 10 29  1  0
 11 30  1  0
 12 13  1  0
 12 14  1  0
 12 31  1  0
 13 32  1  0
 13 33  1  0
 13 34  1  0
 14 35  1  0
 14 36  1  0
 14 37  1  0
 15 16  1  0
 15 38  1  0
 16 17  2  0
 16 18  1  0
 18 19  1  0
 19 20  1  0
 19 39  1  0
 19 40  1  0
 20 21  2  0
 20 25  1  0
 21 22  1  0
 21 41  1  0
 22 23  2  0
 22 42  1  0
 23 24  1  0
 23 43  1  0
 24 25  2  0
 24 44  1  0
 25 45  1  0
M  END

