27

O         -0.32840        0.12930       -0.64200
C          0.89220        0.67310       -0.52640
O          1.09610        1.75980       -0.04670
C          1.96500       -0.26050       -1.07360
N          3.28170        0.29970       -0.95120
C          3.70630        1.21800       -1.87910
O          3.14080        1.38070       -2.94260
C          4.98130        1.98770       -1.52070
C          5.21750        2.24270       -0.05260
C          6.43620        1.89800        0.55280
C          6.66480        2.14760        1.90550
C          5.65170        2.74420        2.65330
C          4.42510        3.09280        2.08670
C          4.21430        2.84160        0.73330
N          5.88080        3.00650        4.08790
O          4.97250        3.52260        4.71850
O          6.96380        2.68970        4.55300
H         -0.96770        0.77210       -0.28870
H          1.74670       -0.43390       -2.13760
H          1.89140       -1.23030       -0.55750
H          3.67700        0.36130       -0.01990
H          4.90810        2.93610       -2.07450
H          5.83130        1.43810       -1.95620
H          7.22080        1.42910       -0.04580
H          7.60520        1.88900        2.39030
H          3.65860        3.55000        2.71100
H          3.24540        3.08110        0.29040
