27
rmsd114.gzmat
O          0.00000        0.00000        0.00000
C          1.35260        0.00000        0.00000
O          1.99120        0.00000        1.01770
C          1.86730       -0.03080       -1.42150
N          3.29220        0.27260       -1.42330
C          3.76730        1.34380       -2.15560
O          3.03850        1.98670       -2.87830
C          5.25690        1.61290       -2.03290
C          5.98320        0.75140       -3.01550
C          5.85050        1.00810       -4.38420
C          6.50590        0.20750       -5.31140
C          7.29360       -0.85330       -4.85340
C          7.42950       -1.12370       -3.48940
C          6.77320       -0.31180       -2.57050
N          7.98610       -1.69290       -5.81900
O          8.61580       -2.65170       -5.40150
O          7.90600       -1.39840       -7.00050
H         -0.40250        0.01790        0.90600
H          1.29860        0.69750       -2.06450
H          1.68260       -1.04030       -1.86870
H          3.86420       -0.22500       -0.75660
H          5.61770        1.47240       -0.99420
H          5.43640        2.69410       -2.25030
H          5.21920        1.83410       -4.72260
H          6.40750        0.39970       -6.38530
H          8.04300       -1.96550       -3.15150
H          6.87800       -0.51030       -1.50480
