rmsd135.gzmat
 OpenBabel08211713403D

 27 27  0  0  0  0  0  0  0  0999 V2000
    0.0000    0.0000    0.0000 O   0  0  0  0  0  0  0  0  0  0  0  0
    1.3519    0.0000    0.0000 C   0  0  0  0  0  0  0  0  0  0  0  0
    1.9923    0.0000    1.0170 O   0  0  0  0  0  0  0  0  0  0  0  0
    1.8727    0.0324   -1.4182 C   0  0  0  0  0  0  0  0  0  0  0  0
    3.2863   -0.3307   -1.4230 N   0  0  0  0  0  0  0  0  0  0  0  0
    3.7062   -1.4077   -2.1838 C   0  0  0  0  0  0  0  0  0  0  0  0
    2.9537   -1.9630   -2.9545 O   0  0  0  0  0  0  0  0  0  0  0  0
    5.1639   -1.7966   -2.0295 C   0  0  0  0  0  0  0  0  0  0  0  0
    5.3020   -2.8725   -0.9996 C   0  0  0  0  0  0  0  0  0  0  0  0
    4.4984   -4.0151   -1.0784 C   0  0  0  0  0  0  0  0  0  0  0  0
    4.6332   -5.0305   -0.1399 C   0  0  0  0  0  0  0  0  0  0  0  0
    5.5848   -4.8928    0.8755 C   0  0  0  0  0  0  0  0  0  0  0  0
    6.3909   -3.7556    0.9678 C   0  0  0  0  0  0  0  0  0  0  0  0
    6.2438   -2.7436    0.0247 C   0  0  0  0  0  0  0  0  0  0  0  0
    5.7386   -5.9566    1.8559 N   0  0  0  0  0  0  0  0  0  0  0  0
    6.6065   -5.8355    2.7057 O   0  0  0  0  0  0  0  0  0  0  0  0
    4.9953   -6.9215    1.7817 O   0  0  0  0  0  0  0  0  0  0  0  0
   -0.3993   -0.0157    0.9082 H   0  0  0  0  0  0  0  0  0  0  0  0
    1.7391    1.0582   -1.8459 H   0  0  0  0  0  0  0  0  0  0  0  0
    1.2730   -0.6523   -2.0802 H   0  0  0  0  0  0  0  0  0  0  0  0
    3.8460    0.0386   -0.6650 H   0  0  0  0  0  0  0  0  0  0  0  0
    5.8026   -0.9169   -1.8115 H   0  0  0  0  0  0  0  0  0  0  0  0
    5.5293   -2.1743   -3.0173 H   0  0  0  0  0  0  0  0  0  0  0  0
    3.7591   -4.1060   -1.8807 H   0  0  0  0  0  0  0  0  0  0  0  0
    4.0059   -5.9272   -0.1915 H   0  0  0  0  0  0  0  0  0  0  0  0
    7.1283   -3.6656    1.7728 H   0  0  0  0  0  0  0  0  0  0  0  0
    6.8683   -1.8537    0.0911 H   0  0  0  0  0  0  0  0  0  0  0  0
  1  2  1  0  0  0  0
  1 18  1  0  0  0  0
  2  3  2  0  0  0  0
  4  2  1  0  0  0  0
  5  4  1  0  0  0  0
  5 21  1  0  0  0  0
  6  8  1  0  0  0  0
  6  5  1  0  0  0  0
  7  6  2  0  0  0  0
  8 22  1  0  0  0  0
  8  9  1  0  0  0  0
  9 14  1  0  0  0  0
 10  9  2  0  0  0  0
 10 11  1  0  0  0  0
 11 12  2  0  0  0  0
 12 13  1  0  0  0  0
 12 15  1  0  0  0  0
 13 26  1  0  0  0  0
 14 27  1  0  0  0  0
 14 13  2  0  0  0  0
 15 16  2  0  0  0  0
 17 15  2  0  0  0  0
 19  4  1  0  0  0  0
 20  4  1  0  0  0  0
 23  8  1  0  0  0  0
 24 10  1  0  0  0  0
 25 11  1  0  0  0  0
M  END
$$$$
