27
rmsd135.gzmat
O          0.00000        0.00000        0.00000
C          1.35190        0.00000        0.00000
O          1.99230        0.00000        1.01700
C          1.87270        0.03240       -1.41820
N          3.28630       -0.33070       -1.42300
C          3.70620       -1.40770       -2.18380
O          2.95370       -1.96300       -2.95450
C          5.16390       -1.79660       -2.02950
C          5.30200       -2.87250       -0.99960
C          4.49840       -4.01510       -1.07840
C          4.63320       -5.03050       -0.13990
C          5.58480       -4.89280        0.87550
C          6.39090       -3.75560        0.96780
C          6.24380       -2.74360        0.02470
N          5.73860       -5.95660        1.85590
O          6.60650       -5.83550        2.70570
O          4.99530       -6.92150        1.78170
H         -0.39930       -0.01570        0.90820
H          1.73910        1.05820       -1.84590
H          1.27300       -0.65230       -2.08020
H          3.84600        0.03860       -0.66500
H          5.80260       -0.91690       -1.81150
H          5.52930       -2.17430       -3.01730
H          3.75910       -4.10600       -1.88070
H          4.00590       -5.92720       -0.19150
H          7.12830       -3.66560        1.77280
H          6.86830       -1.85370        0.09110
