27

O         -0.07240       -0.08110       -0.10800
C          1.26510       -0.17330       -0.06870
O          1.88690       -0.43730        0.92950
C          1.87640        0.10080       -1.43730
N          3.30980        0.01640       -1.41510
C          3.90800       -1.21780       -1.47410
O          3.30770       -2.21860       -1.81390
C          5.40360       -1.25040       -1.14490
C          5.88980       -0.23150       -0.14400
C          5.25640       -0.10890        1.10750
C          5.70410        0.81920        2.04430
C          6.79660        1.62600        1.72390
C          7.44450        1.53310        0.49390
C          6.98090        0.60230       -0.43520
N          7.27520        2.61270        2.71220
O          8.23230        3.30340        2.40110
O          6.68330        2.67620        3.77730
H         -0.40370       -0.27620        0.78580
H          1.53730        1.08770       -1.78850
H          1.48370       -0.65250       -2.13600
H          3.81280        0.75590       -0.93830
H          5.95240       -1.14700       -2.09480
H          5.59520       -2.27270       -0.78510
H          4.38180       -0.72060        1.33800
H          5.22300        0.93170        3.01500
H          8.29120        2.18570        0.28530
H          7.47800        0.51940       -1.40460
