rmsd145.gzmat
 OpenBabel08211713403D

 27 27  0  0  0  0  0  0  0  0999 V2000
    0.0000    0.0000    0.0000 O   0  0  0  0  0  0  0  0  0  0  0  0
    1.3522    0.0000    0.0000 C   0  0  0  0  0  0  0  0  0  0  0  0
    1.9895    0.0000    1.0187 O   0  0  0  0  0  0  0  0  0  0  0  0
    1.8727    0.0263   -1.4205 C   0  0  0  0  0  0  0  0  0  0  0  0
    3.2756   -0.3661   -1.4215 N   0  0  0  0  0  0  0  0  0  0  0  0
    3.6649   -1.5185   -2.0790 C   0  0  0  0  0  0  0  0  0  0  0  0
    2.8857   -2.1445   -2.7638 O   0  0  0  0  0  0  0  0  0  0  0  0
    5.1245   -1.9050   -1.9257 C   0  0  0  0  0  0  0  0  0  0  0  0
    5.9478   -1.1869   -2.9459 C   0  0  0  0  0  0  0  0  0  0  0  0
    7.0174   -0.3829   -2.5434 C   0  0  0  0  0  0  0  0  0  0  0  0
    7.7862    0.2803   -3.4939 C   0  0  0  0  0  0  0  0  0  0  0  0
    7.4742    0.1282   -4.8471 C   0  0  0  0  0  0  0  0  0  0  0  0
    6.4057   -0.6725   -5.2630 C   0  0  0  0  0  0  0  0  0  0  0  0
    5.6452   -1.3303   -4.3045 C   0  0  0  0  0  0  0  0  0  0  0  0
    8.2805    0.8169   -5.8431 N   0  0  0  0  0  0  0  0  0  0  0  0
    7.9495    0.7309   -7.0145 O   0  0  0  0  0  0  0  0  0  0  0  0
    9.2510    1.4500   -5.4591 O   0  0  0  0  0  0  0  0  0  0  0  0
   -0.3997   -0.0171    0.9074 H   0  0  0  0  0  0  0  0  0  0  0  0
    1.7535    1.0536   -1.8469 H   0  0  0  0  0  0  0  0  0  0  0  0
    1.2624   -0.6522   -2.0791 H   0  0  0  0  0  0  0  0  0  0  0  0
    3.8833    0.1216   -0.7792 H   0  0  0  0  0  0  0  0  0  0  0  0
    5.2111   -3.0103   -2.0756 H   0  0  0  0  0  0  0  0  0  0  0  0
    5.4857   -1.7349   -0.8911 H   0  0  0  0  0  0  0  0  0  0  0  0
    7.2576   -0.2731   -1.4869 H   0  0  0  0  0  0  0  0  0  0  0  0
    8.6257    0.9136   -3.1890 H   0  0  0  0  0  0  0  0  0  0  0  0
    6.1756   -0.7770   -6.3289 H   0  0  0  0  0  0  0  0  0  0  0  0
    4.8021   -1.9581   -4.6090 H   0  0  0  0  0  0  0  0  0  0  0  0
  1 18  1  0  0  0  0
  2  1  1  0  0  0  0
  2  3  2  0  0  0  0
  4  2  1  0  0  0  0
  5  4  1  0  0  0  0
  5 21  1  0  0  0  0
  6  8  1  0  0  0  0
  6  5  1  0  0  0  0
  7  6  2  0  0  0  0
  8 23  1  0  0  0  0
  9 10  1  0  0  0  0
  9  8  1  0  0  0  0
 10 24  1  0  0  0  0
 11 25  1  0  0  0  0
 11 10  2  0  0  0  0
 12 11  1  0  0  0  0
 13 12  2  0  0  0  0
 13 14  1  0  0  0  0
 14  9  2  0  0  0  0
 15 17  2  0  0  0  0
 15 12  1  0  0  0  0
 16 15  2  0  0  0  0
 19  4  1  0  0  0  0
 20  4  1  0  0  0  0
 22  8  1  0  0  0  0
 26 13  1  0  0  0  0
 27 14  1  0  0  0  0
M  END
$$$$
