27
rmsd130.gzmat
O          0.00000        0.00000        0.00000
C          1.35200        0.00000        0.00000
O          1.99290        0.00000        1.01650
C          1.87740       -0.02500       -1.41930
N          3.29760        0.30400       -1.41320
C          3.69840        1.55600       -1.86350
O          2.94230        2.27720       -2.47420
C          5.13930        1.92360       -1.56120
C          5.25800        2.27070       -0.11120
C          6.15070        1.57830        0.71010
C          6.23280        1.88780        2.06410
C          5.41370        2.89370        2.58210
C          4.51990        3.59770        1.76920
C          4.45120        3.28390        0.41770
N          5.49270        3.21600        3.99880
O          4.78060        4.10910        4.42800
O          6.27180        2.58010        4.69070
H         -0.39970        0.01710        0.90780
H          1.30010        0.69030       -2.06760
H          1.72040       -1.03830       -1.86540
H          3.87120       -0.21580       -0.75900
H          5.42940        2.79760       -2.19380
H          5.83080        1.11300       -1.86800
H          6.78490        0.79440        0.29870
H          6.92690        1.34970        2.71850
H          3.88450        4.38210        2.19550
H          3.75860        3.82290       -0.23340
