27
rmsd161.gzmat
O          0.00000        0.00000        0.00000
C          1.35300        0.00000        0.00000
O          1.99030        0.00000        1.01830
C          1.87290        0.01540       -1.42150
N          3.32130       -0.14220       -1.42280
C          3.85270       -1.41100       -1.63070
O          3.15990       -2.32130       -2.02590
C          5.34620       -1.54140       -1.40900
C          5.74530       -1.16280       -0.01990
C          5.02110       -1.64920        1.07310
C          5.38560       -1.29640        2.36750
C          6.49030       -0.46080        2.55540
C          7.22980        0.02330        1.47280
C          6.85130       -0.33160        0.18300
N          6.87880       -0.08360        3.90570
O          7.80660        0.69900        4.03820
O          6.26190       -0.56560        4.84110
H         -0.40000       -0.01540        0.90720
H          1.59050        0.97220       -1.92520
H          1.38400       -0.80400       -2.01880
H          3.84900        0.55630       -0.91430
H          5.88560       -0.95130       -2.18170
H          5.64240       -2.60240       -1.60860
H          4.15860       -2.30050        0.91420
H          4.81440       -1.66380        3.22780
H          8.09410        0.67410        1.64210
H          7.42240        0.03970       -0.66700
