27
rmsd167.gzmat
O          0.00000        0.00000        0.00000
C          1.35330        0.00000        0.00000
O          1.99070        0.00000        1.01810
C          1.86690       -0.02910       -1.42310
N          3.29050        0.27820       -1.43280
C          3.73290        1.44420       -2.03040
O          2.97420        2.16000       -2.64720
C          5.21970        1.72240       -1.91440
C          5.92660        1.14360       -3.09870
C          5.52900        1.51390       -4.38820
C          6.17730        0.98650       -5.49780
C          7.23050        0.08740       -5.30220
C          7.63980       -0.28780       -4.02030
C          6.98100        0.24490       -2.91710
N          7.91540       -0.46900       -6.45900
O          8.89090       -1.17720       -6.26540
O          7.48250       -0.20160       -7.56830
H         -0.40150        0.02180        0.90610
H          1.29410        0.70130       -2.06120
H          1.68280       -1.03660       -1.87310
H          3.88020       -0.27910       -0.83270
H          5.63510        1.35920       -0.95280
H          5.36850        2.83080       -1.88670
H          4.69830        2.21540       -4.51940
H          5.87090        1.26830       -6.51120
H          8.46870       -0.99140       -3.88950
H          7.29560       -0.04120       -1.91420
