34
rmsd10.gzmat
Cl         0.00000        0.00000        0.00000
C          1.69590        0.00000        0.00000
C          2.42830        0.00000        1.11760
C          3.89480        0.04930        1.07460
C          4.54370        1.16570        0.53010
C          5.92720        1.21720        0.49380
C          6.65910        0.13110        1.00500
O          8.00120        0.31140        0.90070
C          8.83830       -0.75260        1.33220
C          6.02860       -0.98480        1.55560
C          4.63630       -1.01430        1.58950
C          1.82560       -0.04510        2.45290
C          0.97290       -1.09880        2.81040
C          0.42140       -1.14930        4.08000
C          0.73140       -0.12750        4.99390
C          1.57310        0.93140        4.65310
C          2.12180        0.96110        3.37360
O          0.12890       -0.30140        6.19860
C          0.41310        0.65210        7.21310
Cl         2.39020        0.00300       -1.54840
H          3.95690        1.99630        0.13420
H          6.45270        2.07190        0.07500
H          9.84120       -0.35970        1.11470
H          8.64910       -1.66060        0.75080
H          8.72240       -0.93070        2.40570
H          6.59550       -1.81840        1.95450
H          4.12160       -1.87420        2.02130
H          0.74830       -1.88660        2.08950
H         -0.24210       -1.95680        4.37920
H          1.80510        1.72150        5.35810
H          2.79010        1.77570        3.08900
H         -0.19640        0.28600        8.05110
H          0.08820        1.65380        6.91460
H          1.47580        0.63580        7.47550
