34

Cl        -0.05330        0.00690       -0.16690
C          1.68730       -0.05240       -0.08960
C          2.39140       -0.02610        1.06620
C          3.87750        0.05620        1.08630
C          4.58710        1.01860        0.35640
C          5.97990        1.10620        0.42280
C          6.69670        0.21310        1.23270
O          8.04540        0.20930        1.36350
C          8.80500        1.14870        0.63850
C          5.99700       -0.75100        1.97920
C          4.61250       -0.81770        1.91220
C          1.72800       -0.07830        2.39800
C          0.76510       -1.05270        2.72410
C          0.19660       -1.10450        3.98960
C          0.57050       -0.17540        4.97580
C          1.53610        0.79600        4.67210
C          2.10840        0.82710        3.39870
O         -0.04090       -0.29940        6.17860
C          0.29170        0.60050        7.21040
Cl         2.41630       -0.14860       -1.67060
H          4.04350        1.72240       -0.27520
H          6.49100        1.87490       -0.15590
H          9.85770        0.95980        0.88650
H          8.55110        2.18660        0.91990
H          8.66670        1.03400       -0.45160
H          6.56950       -1.43470        2.60850
H          4.08010       -1.56270        2.50700
H          0.46540       -1.78510        1.97350
H         -0.54370       -1.86370        4.24790
H          1.85320        1.52640        5.41570
H          2.86990        1.57740        3.17650
H         -0.31770        0.32040        8.07980
H          0.06230        1.64510        6.93310
H          1.36000        0.53370        7.48450
