34
rmsd2.gzmat
Cl         0.00000        0.00000        0.00000
C          1.69670        0.00000        0.00000
C          2.42490        0.00000        1.12050
C          3.89070       -0.03910        1.09340
C          4.61510        0.99970        1.69470
C          5.99940        0.99120        1.66790
C          6.65690       -0.07770        1.03460
O          8.00900        0.04210        1.07620
C          8.77170       -0.94920        0.40200
C          5.95210       -1.12810        0.44670
C          4.55990       -1.09970        0.48220
C          1.80330        0.03980        2.44810
C          2.03790       -1.01210        3.34490
C          1.45460       -1.00010        4.60050
C          0.63660        0.08650        4.95640
C          0.40480        1.14770        4.08160
C          0.99400        1.11330        2.81960
O          0.12740       -0.03090        6.20980
C         -0.73100        1.00450        6.66760
Cl         2.38800        0.00240       -1.54980
H          4.08090        1.81710        2.18200
H          6.58210        1.78890        2.12150
H          9.79860       -0.58320        0.53900
H          8.51830       -0.98370       -0.66240
H          8.64540       -1.92560        0.87930
H          6.46350       -1.95350       -0.03580
H          3.99270       -1.91470        0.02980
H          2.68130       -1.84130        3.04640
H          1.61410       -1.80850        5.30940
H         -0.22230        1.98620        4.36140
H          0.81840        1.93440        2.12290
H         -1.00510        0.64790        7.67050
H         -1.62020        1.08830        6.03530
H         -0.19410        1.95570        6.73280
