rmsd114.gzmat
 OpenBabel08211713383D

 34 35  0  0  0  0  0  0  0  0999 V2000
    0.0000    0.0000    0.0000 Cl  0  0  0  0  0  0  0  0  0  0  0  0
    1.6962    0.0000    0.0000 C   0  0  0  0  0  0  0  0  0  0  0  0
    2.4197    0.0000    1.1230 C   0  0  0  0  0  0  0  0  0  0  0  0
    3.8856   -0.0255    1.1086 C   0  0  0  0  0  0  0  0  0  0  0  0
    4.5911    1.0241    1.7144 C   0  0  0  0  0  0  0  0  0  0  0  0
    5.9754    1.0256    1.7148 C   0  0  0  0  0  0  0  0  0  0  0  0
    6.6526   -0.0439    1.1029 C   0  0  0  0  0  0  0  0  0  0  0  0
    8.0028    0.0818    1.1773 O   0  0  0  0  0  0  0  0  0  0  0  0
    8.7862   -0.9303    0.5606 C   0  0  0  0  0  0  0  0  0  0  0  0
    5.9668   -1.0999    0.5035 C   0  0  0  0  0  0  0  0  0  0  0  0
    4.5737   -1.0818    0.5118 C   0  0  0  0  0  0  0  0  0  0  0  0
    1.7913    0.0381    2.4482 C   0  0  0  0  0  0  0  0  0  0  0  0
    1.9788   -1.0259    3.3304 C   0  0  0  0  0  0  0  0  0  0  0  0
    1.4006   -1.0016    4.5972 C   0  0  0  0  0  0  0  0  0  0  0  0
    0.6417    0.1099    4.9630 C   0  0  0  0  0  0  0  0  0  0  0  0
    0.4463    1.1924    4.0879 C   0  0  0  0  0  0  0  0  0  0  0  0
    1.0228    1.1461    2.8294 C   0  0  0  0  0  0  0  0  0  0  0  0
    0.0246    0.2868    6.1600 O   0  0  0  0  0  0  0  0  0  0  0  0
    0.1529   -0.7535    7.1193 C   0  0  0  0  0  0  0  0  0  0  0  0
    2.3916    0.0065   -1.5474 Cl  0  0  0  0  0  0  0  0  0  0  0  0
    4.0415    1.8410    2.1855 H   0  0  0  0  0  0  0  0  0  0  0  0
    6.5431    1.8305    2.1745 H   0  0  0  0  0  0  0  0  0  0  0  0
    9.8096   -0.5960    0.7800 H   0  0  0  0  0  0  0  0  0  0  0  0
    8.6139   -0.9510   -0.5201 H   0  0  0  0  0  0  0  0  0  0  0  0
    8.5968   -1.9062    1.0171 H   0  0  0  0  0  0  0  0  0  0  0  0
    6.4918   -1.9231    0.0331 H   0  0  0  0  0  0  0  0  0  0  0  0
    4.0239   -1.9034    0.0506 H   0  0  0  0  0  0  0  0  0  0  0  0
    2.5833   -1.8815    3.0261 H   0  0  0  0  0  0  0  0  0  0  0  0
    1.5489   -1.8357    5.2735 H   0  0  0  0  0  0  0  0  0  0  0  0
   -0.1508    2.0423    4.4075 H   0  0  0  0  0  0  0  0  0  0  0  0
    0.8826    1.9758    2.1347 H   0  0  0  0  0  0  0  0  0  0  0  0
   -0.4159   -0.3554    7.9707 H   0  0  0  0  0  0  0  0  0  0  0  0
    1.2002   -0.9041    7.3972 H   0  0  0  0  0  0  0  0  0  0  0  0
   -0.3034   -1.6785    6.7540 H   0  0  0  0  0  0  0  0  0  0  0  0
  2  1  1  0  0  0  0
  2  3  2  0  0  0  0
  3 12  1  0  0  0  0
  4  3  1  0  0  0  0
  4  5  2  0  0  0  0
  5  6  1  0  0  0  0
  5 21  1  0  0  0  0
  6 22  1  0  0  0  0
  7  8  1  0  0  0  0
  7  6  2  0  0  0  0
  9 23  1  0  0  0  0
  9 25  1  0  0  0  0
  9  8  1  0  0  0  0
 10 11  2  0  0  0  0
 10  7  1  0  0  0  0
 11  4  1  0  0  0  0
 12 17  2  0  0  0  0
 12 13  1  0  0  0  0
 13 14  2  0  0  0  0
 14 15  1  0  0  0  0
 14 29  1  0  0  0  0
 15 18  1  0  0  0  0
 16 30  1  0  0  0  0
 16 15  2  0  0  0  0
 17 16  1  0  0  0  0
 18 19  1  0  0  0  0
 19 33  1  0  0  0  0
 19 32  1  0  0  0  0
 20  2  1  0  0  0  0
 24  9  1  0  0  0  0
 26 10  1  0  0  0  0
 27 11  1  0  0  0  0
 28 13  1  0  0  0  0
 31 17  1  0  0  0  0
 34 19  1  0  0  0  0
M  END
$$$$
