
     RDKit          3D

 34 35  0  0  0  0  0  0  0  0999 V2000
   -0.1497    0.1795   -0.0868 Cl  0  0  0  0  0  0  0  0  0  0  0  0
    1.5902    0.0724   -0.1060 C   0  0  0  0  0  0  0  0  0  0  0  0
    2.3556    0.0380    1.0099 C   0  0  0  0  0  0  0  0  0  0  0  0
    3.8424    0.0817    0.9499 C   0  0  0  0  0  0  0  0  0  0  0  0
    4.5394    1.0572    0.2114 C   0  0  0  0  0  0  0  0  0  0  0  0
    5.9272    1.1002    0.2094 C   0  0  0  0  0  0  0  0  0  0  0  0
    6.6688    0.1603    0.9455 C   0  0  0  0  0  0  0  0  0  0  0  0
    8.0173    0.2758    0.8789 O   0  0  0  0  0  0  0  0  0  0  0  0
    8.8176   -0.6383    1.5923 C   0  0  0  0  0  0  0  0  0  0  0  0
    5.9912   -0.8128    1.6953 C   0  0  0  0  0  0  0  0  0  0  0  0
    4.5949   -0.8347    1.6981 C   0  0  0  0  0  0  0  0  0  0  0  0
    1.7628   -0.0455    2.3729 C   0  0  0  0  0  0  0  0  0  0  0  0
    0.7938   -1.0076    2.7168 C   0  0  0  0  0  0  0  0  0  0  0  0
    0.2908   -1.0899    4.0083 C   0  0  0  0  0  0  0  0  0  0  0  0
    0.7383   -0.2041    5.0035 C   0  0  0  0  0  0  0  0  0  0  0  0
    1.7109    0.7544    4.6817 C   0  0  0  0  0  0  0  0  0  0  0  0
    2.2172    0.8158    3.3817 C   0  0  0  0  0  0  0  0  0  0  0  0
    0.1868   -0.3547    6.2321 O   0  0  0  0  0  0  0  0  0  0  0  0
    0.5910    0.5048    7.2727 C   0  0  0  0  0  0  0  0  0  0  0  0
    2.2326    0.0148   -1.7255 Cl  0  0  0  0  0  0  0  0  0  0  0  0
    3.9810    1.7972   -0.3633 H   0  0  0  0  0  0  0  0  0  0  0  0
    6.4700    1.8602   -0.3554 H   0  0  0  0  0  0  0  0  0  0  0  0
    9.8618   -0.3644    1.3920 H   0  0  0  0  0  0  0  0  0  0  0  0
    8.6491   -1.6781    1.2589 H   0  0  0  0  0  0  0  0  0  0  0  0
    8.6344   -0.5819    2.6805 H   0  0  0  0  0  0  0  0  0  0  0  0
    6.5359   -1.5521    2.2815 H   0  0  0  0  0  0  0  0  0  0  0  0
    4.0764   -1.5868    2.2963 H   0  0  0  0  0  0  0  0  0  0  0  0
    0.4368   -1.7059    1.9588 H   0  0  0  0  0  0  0  0  0  0  0  0
   -0.4543   -1.8398    4.2797 H   0  0  0  0  0  0  0  0  0  0  0  0
    2.0838    1.4518    5.4311 H   0  0  0  0  0  0  0  0  0  0  0  0
    2.9844    1.5557    3.1446 H   0  0  0  0  0  0  0  0  0  0  0  0
    0.0196    0.2105    8.1628 H   0  0  0  0  0  0  0  0  0  0  0  0
    0.3724    1.5623    7.0393 H   0  0  0  0  0  0  0  0  0  0  0  0
    1.6699    0.4065    7.4905 H   0  0  0  0  0  0  0  0  0  0  0  0
  1  2  1  0
  2  3  2  3
  2 20  1  0
  3  4  1  0
  3 12  1  0
  4  5  2  0
  4 11  1  0
  5  6  1  0
  5 21  1  0
  6  7  2  0
  6 22  1  0
  7  8  1  0
  7 10  1  0
  8  9  1  0
  9 23  1  0
  9 24  1  0
  9 25  1  0
 10 11  2  0
 10 26  1  0
 11 27  1  0
 12 13  2  0
 12 17  1  0
 13 14  1  0
 13 28  1  0
 14 15  2  0
 14 29  1  0
 15 16  1  0
 15 18  1  0
 16 17  2  0
 16 30  1  0
 17 31  1  0
 18 19  1  0
 19 32  1  0
 19 33  1  0
 19 34  1  0
M  END

