34

Cl        -0.10050       -0.08610       -0.09490
C          1.64030        0.01320       -0.07440
C          2.38290        0.01090        1.05730
C          3.87040       -0.03550        1.02880
C          4.61010        0.85870        1.82830
C          5.99730        0.82560        1.85110
C          6.69570       -0.12410        1.08520
O          8.04730       -0.08730        1.17250
C          8.80570       -1.01370        0.42960
C          5.97510       -1.03730        0.30150
C          4.57930       -0.98350        0.27960
C          1.76440        0.05480        2.41050
C          2.19900       -0.84510        3.40410
C          1.66720       -0.81430        4.68570
C          0.69100        0.13880        5.02470
C          0.26350        1.05760        4.05490
C          0.79920        1.00600        2.76570
O          0.23240        0.09950        6.29910
C         -0.74700        1.02890        6.70200
Cl         2.31410        0.11550       -1.67940
H          4.07910        1.59240        2.43820
H          6.57290        1.52470        2.46030
H          9.86090       -0.79930        0.64430
H          8.63170       -0.90880       -0.65640
H          8.58430       -2.05530        0.72440
H          6.48590       -1.79590       -0.29080
H          4.03300       -1.70310       -0.33170
H          2.96660       -1.58130        3.15740
H          1.99350       -1.51760        5.45380
H         -0.47970        1.81880        4.29010
H          0.45950        1.72980        2.02360
H         -0.97160        0.81160        7.75450
H         -1.67410        0.93040        6.10920
H         -0.38360        2.06920        6.62030
