34

Cl        -0.14970        0.17950       -0.08680
C          1.59020        0.07240       -0.10600
C          2.35560        0.03800        1.00990
C          3.84240        0.08170        0.94990
C          4.53940        1.05720        0.21140
C          5.92720        1.10020        0.20940
C          6.66880        0.16030        0.94550
O          8.01730        0.27580        0.87890
C          8.81760       -0.63830        1.59230
C          5.99120       -0.81280        1.69530
C          4.59490       -0.83470        1.69810
C          1.76280       -0.04550        2.37290
C          0.79380       -1.00760        2.71680
C          0.29080       -1.08990        4.00830
C          0.73830       -0.20410        5.00350
C          1.71090        0.75440        4.68170
C          2.21720        0.81580        3.38170
O          0.18680       -0.35470        6.23210
C          0.59100        0.50480        7.27270
Cl         2.23260        0.01480       -1.72550
H          3.98100        1.79720       -0.36330
H          6.47000        1.86020       -0.35540
H          9.86180       -0.36440        1.39200
H          8.64910       -1.67810        1.25890
H          8.63440       -0.58190        2.68050
H          6.53590       -1.55210        2.28150
H          4.07640       -1.58680        2.29630
H          0.43680       -1.70590        1.95880
H         -0.45430       -1.83980        4.27970
H          2.08380        1.45180        5.43110
H          2.98440        1.55570        3.14460
H          0.01960        0.21050        8.16280
H          0.37240        1.56230        7.03930
H          1.66990        0.40650        7.49050
