rmsd14.gzmat
 OpenBabel08211713383D

 34 35  0  0  0  0  0  0  0  0999 V2000
    0.0000    0.0000    0.0000 Cl  0  0  0  0  0  0  0  0  0  0  0  0
    1.6957    0.0000    0.0000 C   0  0  0  0  0  0  0  0  0  0  0  0
    2.4242    0.0000    1.1192 C   0  0  0  0  0  0  0  0  0  0  0  0
    3.8912   -0.0336    1.0838 C   0  0  0  0  0  0  0  0  0  0  0  0
    4.6170    1.0649    1.5435 C   0  0  0  0  0  0  0  0  0  0  0  0
    6.0097    1.0449    1.5298 C   0  0  0  0  0  0  0  0  0  0  0  0
    6.6552   -0.0987    1.0597 C   0  0  0  0  0  0  0  0  0  0  0  0
    8.0000   -0.2806    1.0009 O   0  0  0  0  0  0  0  0  0  0  0  0
    8.8251    0.8040    1.4027 C   0  0  0  0  0  0  0  0  0  0  0  0
    5.9387   -1.2145    0.5930 C   0  0  0  0  0  0  0  0  0  0  0  0
    4.5544   -1.1710    0.6044 C   0  0  0  0  0  0  0  0  0  0  0  0
    1.8171    0.0196    2.4533 C   0  0  0  0  0  0  0  0  0  0  0  0
    1.0015    1.0877    2.8497 C   0  0  0  0  0  0  0  0  0  0  0  0
    0.4477    1.1068    4.1197 C   0  0  0  0  0  0  0  0  0  0  0  0
    0.7158    0.0375    4.9916 C   0  0  0  0  0  0  0  0  0  0  0  0
    1.5227   -1.0353    4.6114 C   0  0  0  0  0  0  0  0  0  0  0  0
    2.0749   -1.0323    3.3336 C   0  0  0  0  0  0  0  0  0  0  0  0
    0.1162    0.1819    6.2017 O   0  0  0  0  0  0  0  0  0  0  0  0
    0.3174   -0.8537    7.1544 C   0  0  0  0  0  0  0  0  0  0  0  0
    2.3954   -0.0051   -1.5454 Cl  0  0  0  0  0  0  0  0  0  0  0  0
    4.0913    1.9451    1.9158 H   0  0  0  0  0  0  0  0  0  0  0  0
    6.5655    1.9071    1.8807 H   0  0  0  0  0  0  0  0  0  0  0  0
    9.8328    0.3798    1.2899 H   0  0  0  0  0  0  0  0  0  0  0  0
    8.6398    1.0765    2.4464 H   0  0  0  0  0  0  0  0  0  0  0  0
    8.6927    1.6605    0.7339 H   0  0  0  0  0  0  0  0  0  0  0  0
    6.4768   -2.0858    0.2292 H   0  0  0  0  0  0  0  0  0  0  0  0
    3.9794   -2.0241    0.2416 H   0  0  0  0  0  0  0  0  0  0  0  0
    0.8076    1.9096    2.1589 H   0  0  0  0  0  0  0  0  0  0  0  0
   -0.1864    1.9256    4.4496 H   0  0  0  0  0  0  0  0  0  0  0  0
    1.7274   -1.8591    5.2857 H   0  0  0  0  0  0  0  0  0  0  0  0
    2.7145   -1.8578    3.0175 H   0  0  0  0  0  0  0  0  0  0  0  0
   -0.2515   -0.4865    8.0195 H   0  0  0  0  0  0  0  0  0  0  0  0
    1.3771   -0.9528    7.4098 H   0  0  0  0  0  0  0  0  0  0  0  0
   -0.1002   -1.7991    6.7941 H   0  0  0  0  0  0  0  0  0  0  0  0
  2  1  1  0  0  0  0
  2  3  2  0  0  0  0
  3 12  1  0  0  0  0
  4  3  1  0  0  0  0
  4  5  2  0  0  0  0
  5 21  1  0  0  0  0
  6  5  1  0  0  0  0
  6 22  1  0  0  0  0
  7  6  2  0  0  0  0
  8  7  1  0  0  0  0
  8  9  1  0  0  0  0
  9 24  1  0  0  0  0
 10 11  2  0  0  0  0
 10  7  1  0  0  0  0
 11  4  1  0  0  0  0
 12 13  2  0  0  0  0
 12 17  1  0  0  0  0
 13 14  1  0  0  0  0
 14 29  1  0  0  0  0
 14 15  2  0  0  0  0
 15 18  1  0  0  0  0
 16 15  1  0  0  0  0
 16 30  1  0  0  0  0
 17 16  2  0  0  0  0
 18 19  1  0  0  0  0
 19 33  1  0  0  0  0
 19 32  1  0  0  0  0
 20  2  1  0  0  0  0
 23  9  1  0  0  0  0
 25  9  1  0  0  0  0
 26 10  1  0  0  0  0
 27 11  1  0  0  0  0
 28 13  1  0  0  0  0
 31 17  1  0  0  0  0
 34 19  1  0  0  0  0
M  END
$$$$
