34
rmsd15.gzmat
Cl         0.00000        0.00000        0.00000
C          1.69590        0.00000        0.00000
C          2.41890        0.00000        1.12310
C          3.88510       -0.02410        1.10200
C          4.59840        1.04680        1.64070
C          5.99100        1.04670        1.62450
C          6.65130       -0.04890        1.06890
O          7.99820       -0.20060        0.98210
C          8.80850        0.86000        1.46870
C          5.94850       -1.14120        0.53110
C          4.56380       -1.11820        0.54880
C          1.79070        0.02910        2.44840
C          1.04560        1.14640        2.84790
C          0.46650        1.18290        4.10570
C          0.63890        0.08150        4.96220
C          1.37280       -1.04030        4.57720
C          1.95120       -1.05530        3.31030
O          0.02600        0.25000        6.16250
C          0.13760       -0.80750        7.10500
Cl         2.39540        0.00220       -1.54500
H          4.06110        1.89020        2.07670
H          6.53540        1.88690        2.04000
H          9.82280        0.48380        1.27560
H          8.65390        1.01060        2.54120
H          8.62920        1.77930        0.90290
H          6.49710       -1.97880        0.10860
H          3.99960       -1.95450        0.13340
H          0.92390        1.98960        2.16600
H         -0.11690        2.03800        4.43770
H          1.50280       -1.88930        5.23890
H          2.53330       -1.92050        2.99060
H         -0.41820       -0.41000        7.96530
H          1.18260       -0.98490        7.37550
H         -0.34050       -1.71630        6.72760
