rmsd10.gzmat
 OpenBabel08211713383D

 34 35  0  0  0  0  0  0  0  0999 V2000
    0.0000    0.0000    0.0000 Cl  0  0  0  0  0  0  0  0  0  0  0  0
    1.6959    0.0000    0.0000 C   0  0  0  0  0  0  0  0  0  0  0  0
    2.4283    0.0000    1.1176 C   0  0  0  0  0  0  0  0  0  0  0  0
    3.8948    0.0493    1.0746 C   0  0  0  0  0  0  0  0  0  0  0  0
    4.5437    1.1657    0.5301 C   0  0  0  0  0  0  0  0  0  0  0  0
    5.9272    1.2172    0.4938 C   0  0  0  0  0  0  0  0  0  0  0  0
    6.6591    0.1311    1.0050 C   0  0  0  0  0  0  0  0  0  0  0  0
    8.0012    0.3114    0.9007 O   0  0  0  0  0  0  0  0  0  0  0  0
    8.8383   -0.7526    1.3322 C   0  0  0  0  0  0  0  0  0  0  0  0
    6.0286   -0.9848    1.5556 C   0  0  0  0  0  0  0  0  0  0  0  0
    4.6363   -1.0143    1.5895 C   0  0  0  0  0  0  0  0  0  0  0  0
    1.8256   -0.0451    2.4529 C   0  0  0  0  0  0  0  0  0  0  0  0
    0.9729   -1.0988    2.8104 C   0  0  0  0  0  0  0  0  0  0  0  0
    0.4214   -1.1493    4.0800 C   0  0  0  0  0  0  0  0  0  0  0  0
    0.7314   -0.1275    4.9939 C   0  0  0  0  0  0  0  0  0  0  0  0
    1.5731    0.9314    4.6531 C   0  0  0  0  0  0  0  0  0  0  0  0
    2.1218    0.9611    3.3736 C   0  0  0  0  0  0  0  0  0  0  0  0
    0.1289   -0.3014    6.1986 O   0  0  0  0  0  0  0  0  0  0  0  0
    0.4131    0.6521    7.2131 C   0  0  0  0  0  0  0  0  0  0  0  0
    2.3902    0.0030   -1.5484 Cl  0  0  0  0  0  0  0  0  0  0  0  0
    3.9569    1.9963    0.1342 H   0  0  0  0  0  0  0  0  0  0  0  0
    6.4527    2.0719    0.0750 H   0  0  0  0  0  0  0  0  0  0  0  0
    9.8412   -0.3597    1.1147 H   0  0  0  0  0  0  0  0  0  0  0  0
    8.6491   -1.6606    0.7508 H   0  0  0  0  0  0  0  0  0  0  0  0
    8.7224   -0.9307    2.4057 H   0  0  0  0  0  0  0  0  0  0  0  0
    6.5955   -1.8184    1.9545 H   0  0  0  0  0  0  0  0  0  0  0  0
    4.1216   -1.8742    2.0213 H   0  0  0  0  0  0  0  0  0  0  0  0
    0.7483   -1.8866    2.0895 H   0  0  0  0  0  0  0  0  0  0  0  0
   -0.2421   -1.9568    4.3792 H   0  0  0  0  0  0  0  0  0  0  0  0
    1.8051    1.7215    5.3581 H   0  0  0  0  0  0  0  0  0  0  0  0
    2.7901    1.7757    3.0890 H   0  0  0  0  0  0  0  0  0  0  0  0
   -0.1964    0.2860    8.0511 H   0  0  0  0  0  0  0  0  0  0  0  0
    0.0882    1.6538    6.9146 H   0  0  0  0  0  0  0  0  0  0  0  0
    1.4758    0.6358    7.4755 H   0  0  0  0  0  0  0  0  0  0  0  0
  2  1  1  0  0  0  0
  2  3  2  0  0  0  0
  3 12  1  0  0  0  0
  4  3  1  0  0  0  0
  4 11  2  0  0  0  0
  5  4  1  0  0  0  0
  6  5  2  0  0  0  0
  6  7  1  0  0  0  0
  7 10  2  0  0  0  0
  8  7  1  0  0  0  0
  8  9  1  0  0  0  0
  9 25  1  0  0  0  0
 10 11  1  0  0  0  0
 10 26  1  0  0  0  0
 11 27  1  0  0  0  0
 12 13  2  0  0  0  0
 12 17  1  0  0  0  0
 13 14  1  0  0  0  0
 14 29  1  0  0  0  0
 14 15  2  0  0  0  0
 15 18  1  0  0  0  0
 16 15  1  0  0  0  0
 16 30  1  0  0  0  0
 17 16  2  0  0  0  0
 18 19  1  0  0  0  0
 19 34  1  0  0  0  0
 19 32  1  0  0  0  0
 20  2  1  0  0  0  0
 21  5  1  0  0  0  0
 22  6  1  0  0  0  0
 23  9  1  0  0  0  0
 24  9  1  0  0  0  0
 28 13  1  0  0  0  0
 31 17  1  0  0  0  0
 33 19  1  0  0  0  0
M  END
$$$$
