rmsd198.gzmat
 OpenBabel08211713383D

 27 28  0  0  0  0  0  0  0  0999 V2000
    0.0000    0.0000    0.0000 S   0  0  0  0  0  0  0  0  0  0  0  0
    1.7963    0.0000    0.0000 C   0  0  0  0  0  0  0  0  0  0  0  0
    2.2994    0.0000    1.2516 N   0  0  0  0  0  0  0  0  0  0  0  0
    1.3656    0.0128    2.2022 N   0  0  0  0  0  0  0  0  0  0  0  0
    0.1128    0.0189    1.7785 C   0  0  0  0  0  0  0  0  0  0  0  0
   -1.0596    0.0516    2.6402 C   0  0  0  0  0  0  0  0  0  0  0  0
   -1.8606   -1.0938    2.7080 C   0  0  0  0  0  0  0  0  0  0  0  0
   -2.9900   -1.1063    3.5232 C   0  0  0  0  0  0  0  0  0  0  0  0
   -3.3242    0.0210    4.2699 C   0  0  0  0  0  0  0  0  0  0  0  0
   -2.5244    1.1619    4.2059 C   0  0  0  0  0  0  0  0  0  0  0  0
   -1.3918    1.1795    3.3965 C   0  0  0  0  0  0  0  0  0  0  0  0
   -0.4038    2.6517    3.3622 S   0  0  0  0  0  0  0  0  0  0  0  0
    0.0367    2.8503    2.0004 O   0  0  0  0  0  0  0  0  0  0  0  0
   -1.1118    3.7002    4.0638 O   0  0  0  0  0  0  0  0  0  0  0  0
    0.9572    2.1747    4.3273 N   0  0  0  0  0  0  0  0  0  0  0  0
    1.6937    3.2380    5.0217 C   0  0  0  0  0  0  0  0  0  0  0  0
    2.5708   -0.1028   -1.1188 N   0  0  0  0  0  0  0  0  0  0  0  0
   -1.5952   -1.9814    2.1355 H   0  0  0  0  0  0  0  0  0  0  0  0
   -3.6091   -2.0008    3.5776 H   0  0  0  0  0  0  0  0  0  0  0  0
   -4.2067    0.0124    4.9069 H   0  0  0  0  0  0  0  0  0  0  0  0
   -2.8018    2.0425    4.8010 H   0  0  0  0  0  0  0  0  0  0  0  0
    1.5749    1.5107    3.8481 H   0  0  0  0  0  0  0  0  0  0  0  0
    0.9974    3.8724    5.6042 H   0  0  0  0  0  0  0  0  0  0  0  0
    2.2811    3.8868    4.3508 H   0  0  0  0  0  0  0  0  0  0  0  0
    2.3889    2.7707    5.7432 H   0  0  0  0  0  0  0  0  0  0  0  0
    2.2330    0.2540   -1.9924 H   0  0  0  0  0  0  0  0  0  0  0  0
    3.5728   -0.0526   -0.9969 H   0  0  0  0  0  0  0  0  0  0  0  0
  1  2  1  0  0  0  0
  1  5  1  0  0  0  0
  2  3  2  0  0  0  0
  3  4  1  0  0  0  0
  5  4  2  0  0  0  0
  5  6  1  0  0  0  0
  6  7  2  0  0  0  0
  6 11  1  0  0  0  0
  7  8  1  0  0  0  0
  8 19  1  0  0  0  0
  8  9  2  0  0  0  0
  9 20  1  0  0  0  0
 10  9  1  0  0  0  0
 10 21  1  0  0  0  0
 11 10  2  0  0  0  0
 12 11  1  0  0  0  0
 12 14  2  0  0  0  0
 12 15  1  0  0  0  0
 13 12  2  0  0  0  0
 15 16  1  0  0  0  0
 16 23  1  0  0  0  0
 16 25  1  0  0  0  0
 17 27  1  0  0  0  0
 17  2  1  0  0  0  0
 18  7  1  0  0  0  0
 22 15  1  0  0  0  0
 24 16  1  0  0  0  0
 26 17  1  0  0  0  0
M  END
$$$$
