27
rmsd198.gzmat
S          0.00000        0.00000        0.00000
C          1.79630        0.00000        0.00000
N          2.29940        0.00000        1.25160
N          1.36560        0.01280        2.20220
C          0.11280        0.01890        1.77850
C         -1.05960        0.05160        2.64020
C         -1.86060       -1.09380        2.70800
C         -2.99000       -1.10630        3.52320
C         -3.32420        0.02100        4.26990
C         -2.52440        1.16190        4.20590
C         -1.39180        1.17950        3.39650
S         -0.40380        2.65170        3.36220
O          0.03670        2.85030        2.00040
O         -1.11180        3.70020        4.06380
N          0.95720        2.17470        4.32730
C          1.69370        3.23800        5.02170
N          2.57080       -0.10280       -1.11880
H         -1.59520       -1.98140        2.13550
H         -3.60910       -2.00080        3.57760
H         -4.20670        0.01240        4.90690
H         -2.80180        2.04250        4.80100
H          1.57490        1.51070        3.84810
H          0.99740        3.87240        5.60420
H          2.28110        3.88680        4.35080
H          2.38890        2.77070        5.74320
H          2.23300        0.25400       -1.99240
H          3.57280       -0.05260       -0.99690
