rmsd129.gzmat
 OpenBabel08211713383D

 27 28  0  0  0  0  0  0  0  0999 V2000
    0.0000    0.0000    0.0000 S   0  0  0  0  0  0  0  0  0  0  0  0
    1.7959    0.0000    0.0000 C   0  0  0  0  0  0  0  0  0  0  0  0
    2.2998    0.0000    1.2516 N   0  0  0  0  0  0  0  0  0  0  0  0
    1.3658   -0.0058    2.2020 N   0  0  0  0  0  0  0  0  0  0  0  0
    0.1128   -0.0090    1.7791 C   0  0  0  0  0  0  0  0  0  0  0  0
   -1.0606   -0.0268    2.6397 C   0  0  0  0  0  0  0  0  0  0  0  0
   -1.8585    1.1221    2.6867 C   0  0  0  0  0  0  0  0  0  0  0  0
   -2.9921    1.1499    3.4954 C   0  0  0  0  0  0  0  0  0  0  0  0
   -3.3323    0.0357    4.2593 C   0  0  0  0  0  0  0  0  0  0  0  0
   -2.5347   -1.1076    4.2177 C   0  0  0  0  0  0  0  0  0  0  0  0
   -1.3995   -1.1416    3.4122 C   0  0  0  0  0  0  0  0  0  0  0  0
   -0.4254   -2.6230    3.3987 S   0  0  0  0  0  0  0  0  0  0  0  0
   -1.1357   -3.6469    4.1342 O   0  0  0  0  0  0  0  0  0  0  0  0
   -0.0095   -2.8559    2.0349 O   0  0  0  0  0  0  0  0  0  0  0  0
    0.9558   -2.1421    4.3312 N   0  0  0  0  0  0  0  0  0  0  0  0
    1.6909   -3.1984    5.0374 C   0  0  0  0  0  0  0  0  0  0  0  0
    2.5730    0.1012   -1.1168 N   0  0  0  0  0  0  0  0  0  0  0  0
   -1.5883    2.0007    2.1022 H   0  0  0  0  0  0  0  0  0  0  0  0
   -3.6102    2.0459    3.5301 H   0  0  0  0  0  0  0  0  0  0  0  0
   -4.2179    0.0570    4.8915 H   0  0  0  0  0  0  0  0  0  0  0  0
   -2.8155   -1.9782    4.8261 H   0  0  0  0  0  0  0  0  0  0  0  0
    1.5721   -1.4919    3.8321 H   0  0  0  0  0  0  0  0  0  0  0  0
    2.2262   -3.8959    4.3715 H   0  0  0  0  0  0  0  0  0  0  0  0
    1.0004   -3.7832    5.6759 H   0  0  0  0  0  0  0  0  0  0  0  0
    2.4335   -2.7254    5.7055 H   0  0  0  0  0  0  0  0  0  0  0  0
    2.2390   -0.2539   -1.9928 H   0  0  0  0  0  0  0  0  0  0  0  0
    3.5747    0.0573   -0.9915 H   0  0  0  0  0  0  0  0  0  0  0  0
  1  2  1  0  0  0  0
  1  5  1  0  0  0  0
  2  3  2  0  0  0  0
  3  4  1  0  0  0  0
  5  4  2  0  0  0  0
  5  6  1  0  0  0  0
  6  7  2  0  0  0  0
  6 11  1  0  0  0  0
  7  8  1  0  0  0  0
  8 19  1  0  0  0  0
  8  9  2  0  0  0  0
  9 20  1  0  0  0  0
 10  9  1  0  0  0  0
 10 21  1  0  0  0  0
 11 10  2  0  0  0  0
 12 11  1  0  0  0  0
 12 13  2  0  0  0  0
 12 15  1  0  0  0  0
 14 12  2  0  0  0  0
 15 16  1  0  0  0  0
 16 24  1  0  0  0  0
 16 25  1  0  0  0  0
 17 27  1  0  0  0  0
 17  2  1  0  0  0  0
 18  7  1  0  0  0  0
 22 15  1  0  0  0  0
 23 16  1  0  0  0  0
 26 17  1  0  0  0  0
M  END
$$$$
