27

S          0.07260       -0.26760        0.04780
C          1.82160       -0.09190        0.05030
N          2.32790        0.11840        1.23640
N          1.38550        0.15630        2.21130
C          0.17140        0.00230        1.78780
C         -1.04030        0.02160        2.63610
C         -1.68730       -1.19410        2.91260
C         -2.82660       -1.23850        3.71520
C         -3.34930       -0.05830        4.25050
C         -2.73380        1.16150        3.97340
C         -1.58830        1.20060        3.17310
S         -0.92850        2.84590        2.82010
O         -0.21520        2.78630        1.54280
O         -2.03340        3.78780        3.02970
N          0.12960        3.14080        4.08370
C          1.56460        2.94160        3.89200
N          2.57580       -0.22970       -1.08090
H         -1.27300       -2.11270        2.49220
H         -3.30740       -2.19710        3.92220
H         -4.24480       -0.08450        4.87510
H         -3.14190        2.09930        4.35130
H         -0.15010        4.02670        4.50260
H          2.00180        3.63000        3.14920
H          1.74880        1.90930        3.56460
H          2.05770        3.09190        4.86330
H          2.15680        0.04110       -1.96240
H          3.54390        0.05390       -0.96330
