rmsd116.gzmat
 OpenBabel08211713383D

 27 28  0  0  0  0  0  0  0  0999 V2000
    0.0000    0.0000    0.0000 S   0  0  0  0  0  0  0  0  0  0  0  0
    1.7964    0.0000    0.0000 C   0  0  0  0  0  0  0  0  0  0  0  0
    2.2995    0.0000    1.2522 N   0  0  0  0  0  0  0  0  0  0  0  0
    1.3652   -0.0038    2.2020 N   0  0  0  0  0  0  0  0  0  0  0  0
    0.1125   -0.0049    1.7789 C   0  0  0  0  0  0  0  0  0  0  0  0
   -1.0609   -0.0108    2.6396 C   0  0  0  0  0  0  0  0  0  0  0  0
   -1.8519    1.1433    2.6734 C   0  0  0  0  0  0  0  0  0  0  0  0
   -2.9849    1.1877    3.4819 C   0  0  0  0  0  0  0  0  0  0  0  0
   -3.3317    0.0844    4.2583 C   0  0  0  0  0  0  0  0  0  0  0  0
   -2.5405   -1.0638    4.2312 C   0  0  0  0  0  0  0  0  0  0  0  0
   -1.4056   -1.1143    3.4259 C   0  0  0  0  0  0  0  0  0  0  0  0
   -0.4352   -2.5985    3.4342 S   0  0  0  0  0  0  0  0  0  0  0  0
   -1.1503   -3.6136    4.1773 O   0  0  0  0  0  0  0  0  0  0  0  0
   -0.0117   -2.8503    2.0761 O   0  0  0  0  0  0  0  0  0  0  0  0
    0.9382   -2.1048    4.3731 N   0  0  0  0  0  0  0  0  0  0  0  0
    1.7057   -3.1595    5.0470 C   0  0  0  0  0  0  0  0  0  0  0  0
    2.5730    0.1005   -1.1154 N   0  0  0  0  0  0  0  0  0  0  0  0
   -1.5755    2.0130    2.0789 H   0  0  0  0  0  0  0  0  0  0  0  0
   -3.5969    2.0885    3.5079 H   0  0  0  0  0  0  0  0  0  0  0  0
   -4.2173    0.1180    4.8899 H   0  0  0  0  0  0  0  0  0  0  0  0
   -2.8264   -1.9239    4.8520 H   0  0  0  0  0  0  0  0  0  0  0  0
    1.5379   -1.4328    3.8825 H   0  0  0  0  0  0  0  0  0  0  0  0
    2.3307   -3.7618    4.3663 H   0  0  0  0  0  0  0  0  0  0  0  0
    1.0297   -3.8398    5.6000 H   0  0  0  0  0  0  0  0  0  0  0  0
    2.3705   -2.6850    5.7924 H   0  0  0  0  0  0  0  0  0  0  0  0
    2.2308   -0.2246   -1.9988 H   0  0  0  0  0  0  0  0  0  0  0  0
    3.5745    0.0504   -0.9955 H   0  0  0  0  0  0  0  0  0  0  0  0
  1  2  1  0  0  0  0
  1  5  1  0  0  0  0
  2  3  2  0  0  0  0
  3  4  1  0  0  0  0
  5  4  2  0  0  0  0
  5  6  1  0  0  0  0
  6  7  2  0  0  0  0
  6 11  1  0  0  0  0
  7  8  1  0  0  0  0
  8 19  1  0  0  0  0
  8  9  2  0  0  0  0
  9 20  1  0  0  0  0
 10  9  1  0  0  0  0
 10 21  1  0  0  0  0
 11 12  1  0  0  0  0
 11 10  2  0  0  0  0
 12 13  2  0  0  0  0
 12 15  1  0  0  0  0
 14 12  2  0  0  0  0
 15 16  1  0  0  0  0
 16 24  1  0  0  0  0
 16 25  1  0  0  0  0
 17 27  1  0  0  0  0
 17  2  1  0  0  0  0
 18  7  1  0  0  0  0
 22 15  1  0  0  0  0
 23 16  1  0  0  0  0
 26 17  1  0  0  0  0
M  END
$$$$
