27
rmsd136.gzmat
S          0.00000        0.00000        0.00000
C          1.79670        0.00000        0.00000
N          2.29960        0.00000        1.25220
N          1.36510        0.01110        2.20190
C          0.11240        0.01630        1.77880
C         -1.06000        0.04910        2.64020
C         -1.88080       -1.08380        2.67950
C         -3.01320       -1.09560        3.49030
C         -3.32950        0.01870        4.26380
C         -2.50910        1.14590        4.23040
C         -1.37520        1.16420        3.42250
S         -0.37180        2.62650        3.42010
O          0.05520        2.85780        2.05930
O         -1.06470        3.66150        4.15680
N          0.99360        2.11420        4.36010
C          1.75520        3.15560        5.06090
N          2.57270       -0.09940       -1.11630
H         -1.62910       -1.96290        2.08790
H         -3.64900       -1.97940        3.52040
H         -4.21430        0.01060        4.89750
H         -2.77150        2.01600        4.84750
H          1.59620        1.44960        3.86230
H          1.07600        3.80110        5.65060
H          2.35540        3.79660        4.39370
H          2.44230        2.66610        5.77570
H          2.23020        0.23110       -1.99770
H          3.57460       -0.05180       -0.99690
