27
rmsd128.gzmat
S          0.00000        0.00000        0.00000
C          1.79620        0.00000        0.00000
N          2.29920        0.00000        1.25180
N          1.36510       -0.01490        2.20170
C          0.11240       -0.02200        1.77790
C         -1.05720       -0.06840        2.64310
C         -1.86610        1.07050        2.72200
C         -2.99520        1.06660        3.53740
C         -3.31930       -0.06900        4.27590
C         -2.50930       -1.20210        4.20420
C         -1.37890       -1.20460        3.39160
S         -0.38640       -2.67300        3.33690
O         -1.08510       -3.72970        4.03590
O          0.03770       -2.85880        1.96790
N          0.98450       -2.20130        4.29170
C          1.77720       -3.27470        4.90460
N          2.57310        0.10280       -1.11680
H         -1.60770        1.96540        2.15760
H         -3.62250        1.95490        3.59820
H         -4.20240       -0.07280        4.91190
H         -2.77700       -2.08880        4.79470
H          1.57030       -1.49810        3.82740
H          2.40380       -3.83120        4.18790
H          1.12050       -3.99310        5.43110
H          2.44300       -2.82570        5.66450
H          2.23950       -0.25420       -1.99230
H          3.57500        0.05940       -0.99180
