
     RDKit          3D

 27 28  0  0  0  0  0  0  0  0999 V2000
    0.0726   -0.2676    0.0478 S   0  0  0  0  0  0  0  0  0  0  0  0
    1.8216   -0.0919    0.0503 C   0  0  0  0  0  0  0  0  0  0  0  0
    2.3279    0.1184    1.2364 N   0  0  0  0  0  0  0  0  0  0  0  0
    1.3855    0.1563    2.2113 N   0  0  0  0  0  0  0  0  0  0  0  0
    0.1714    0.0023    1.7878 C   0  0  0  0  0  0  0  0  0  0  0  0
   -1.0403    0.0216    2.6361 C   0  0  0  0  0  0  0  0  0  0  0  0
   -1.6873   -1.1941    2.9126 C   0  0  0  0  0  0  0  0  0  0  0  0
   -2.8266   -1.2385    3.7152 C   0  0  0  0  0  0  0  0  0  0  0  0
   -3.3493   -0.0583    4.2505 C   0  0  0  0  0  0  0  0  0  0  0  0
   -2.7338    1.1615    3.9734 C   0  0  0  0  0  0  0  0  0  0  0  0
   -1.5883    1.2006    3.1731 C   0  0  0  0  0  0  0  0  0  0  0  0
   -0.9285    2.8459    2.8201 S   0  0  0  0  0  0  0  0  0  0  0  0
   -0.2152    2.7863    1.5428 O   0  0  0  0  0  0  0  0  0  0  0  0
   -2.0334    3.7878    3.0297 O   0  0  0  0  0  0  0  0  0  0  0  0
    0.1296    3.1408    4.0837 N   0  0  0  0  0  0  0  0  0  0  0  0
    1.5646    2.9416    3.8920 C   0  0  0  0  0  0  0  0  0  0  0  0
    2.5758   -0.2297   -1.0809 N   0  0  0  0  0  0  0  0  0  0  0  0
   -1.2730   -2.1127    2.4922 H   0  0  0  0  0  0  0  0  0  0  0  0
   -3.3074   -2.1971    3.9222 H   0  0  0  0  0  0  0  0  0  0  0  0
   -4.2448   -0.0845    4.8751 H   0  0  0  0  0  0  0  0  0  0  0  0
   -3.1419    2.0993    4.3513 H   0  0  0  0  0  0  0  0  0  0  0  0
   -0.1501    4.0267    4.5026 H   0  0  0  0  0  0  0  0  0  0  0  0
    2.0018    3.6300    3.1492 H   0  0  0  0  0  0  0  0  0  0  0  0
    1.7488    1.9093    3.5646 H   0  0  0  0  0  0  0  0  0  0  0  0
    2.0577    3.0919    4.8633 H   0  0  0  0  0  0  0  0  0  0  0  0
    2.1568    0.0411   -1.9624 H   0  0  0  0  0  0  0  0  0  0  0  0
    3.5439    0.0539   -0.9633 H   0  0  0  0  0  0  0  0  0  0  0  0
  1  2  1  0
  1  5  1  0
  2  3  2  0
  2 17  1  0
  3  4  1  0
  4  5  2  0
  5  6  1  0
  6  7  2  0
  6 11  1  0
  7  8  1  0
  7 18  1  0
  8  9  2  0
  8 19  1  0
  9 10  1  0
  9 20  1  0
 10 11  2  0
 10 21  1  0
 11 12  1  0
 12 13  2  0
 12 14  2  0
 12 15  1  0
 15 16  1  0
 15 22  1  0
 16 23  1  0
 16 24  1  0
 16 25  1  0
 17 26  1  0
 17 27  1  0
M  END

