rmsd110.gzmat
 OpenBabel08211713383D

 27 28  0  0  0  0  0  0  0  0999 V2000
    0.0000    0.0000    0.0000 S   0  0  0  0  0  0  0  0  0  0  0  0
    1.7946    0.0000    0.0000 C   0  0  0  0  0  0  0  0  0  0  0  0
    2.2985    0.0000    1.2503 N   0  0  0  0  0  0  0  0  0  0  0  0
    1.3673    0.0113    2.2059 N   0  0  0  0  0  0  0  0  0  0  0  0
    0.1169    0.0320    1.7799 C   0  0  0  0  0  0  0  0  0  0  0  0
   -1.0582    0.0497    2.6378 C   0  0  0  0  0  0  0  0  0  0  0  0
   -1.6219   -1.1845    2.9827 C   0  0  0  0  0  0  0  0  0  0  0  0
   -2.7559   -1.2320    3.7887 C   0  0  0  0  0  0  0  0  0  0  0  0
   -3.3320   -0.0504    4.2498 C   0  0  0  0  0  0  0  0  0  0  0  0
   -2.7664    1.1785    3.9128 C   0  0  0  0  0  0  0  0  0  0  0  0
   -1.6254    1.2335    3.1136 C   0  0  0  0  0  0  0  0  0  0  0  0
   -0.9596    2.8296    2.7443 S   0  0  0  0  0  0  0  0  0  0  0  0
   -0.1802    2.7384    1.5330 O   0  0  0  0  0  0  0  0  0  0  0  0
   -2.0332    3.7934    2.8693 O   0  0  0  0  0  0  0  0  0  0  0  0
    0.0857    3.1751    4.0877 N   0  0  0  0  0  0  0  0  0  0  0  0
    1.5130    2.8537    3.9378 C   0  0  0  0  0  0  0  0  0  0  0  0
    2.5680   -0.1156   -1.1206 N   0  0  0  0  0  0  0  0  0  0  0  0
   -1.1645   -2.1076    2.6277 H   0  0  0  0  0  0  0  0  0  0  0  0
   -3.1907   -2.1937    4.0580 H   0  0  0  0  0  0  0  0  0  0  0  0
   -4.2221   -0.0847    4.8752 H   0  0  0  0  0  0  0  0  0  0  0  0
   -3.2385    2.0989    4.2805 H   0  0  0  0  0  0  0  0  0  0  0  0
   -0.0633    4.0941    4.5016 H   0  0  0  0  0  0  0  0  0  0  0  0
    1.9862    3.3037    3.0477 H   0  0  0  0  0  0  0  0  0  0  0  0
    1.6507    1.7546    3.8693 H   0  0  0  0  0  0  0  0  0  0  0  0
    2.0636    3.1862    4.8328 H   0  0  0  0  0  0  0  0  0  0  0  0
    2.2356    0.2551   -1.9912 H   0  0  0  0  0  0  0  0  0  0  0  0
    3.5700   -0.0785   -0.9979 H   0  0  0  0  0  0  0  0  0  0  0  0
  1  2  1  0  0  0  0
  1  5  1  0  0  0  0
  2  3  2  0  0  0  0
  3  4  1  0  0  0  0
  5  4  2  0  0  0  0
  5  6  1  0  0  0  0
  6  7  2  0  0  0  0
  6 11  1  0  0  0  0
  7  8  1  0  0  0  0
  8 19  1  0  0  0  0
  8  9  2  0  0  0  0
  9 20  1  0  0  0  0
 10  9  1  0  0  0  0
 10 21  1  0  0  0  0
 11 10  2  0  0  0  0
 12 14  2  0  0  0  0
 12 11  1  0  0  0  0
 12 15  1  0  0  0  0
 13 12  2  0  0  0  0
 15 22  1  0  0  0  0
 16 15  1  0  0  0  0
 16 25  1  0  0  0  0
 17 27  1  0  0  0  0
 17  2  1  0  0  0  0
 18  7  1  0  0  0  0
 23 16  1  0  0  0  0
 24 16  1  0  0  0  0
 26 17  1  0  0  0  0
M  END
$$$$
