rmsd79.gzmat
 OpenBabel08211713383D

 27 28  0  0  0  0  0  0  0  0999 V2000
    0.0000    0.0000    0.0000 S   0  0  0  0  0  0  0  0  0  0  0  0
    1.7962    0.0000    0.0000 C   0  0  0  0  0  0  0  0  0  0  0  0
    2.2999    0.0000    1.2517 N   0  0  0  0  0  0  0  0  0  0  0  0
    1.3659    0.0089    2.2021 N   0  0  0  0  0  0  0  0  0  0  0  0
    0.1130    0.0126    1.7793 C   0  0  0  0  0  0  0  0  0  0  0  0
   -1.0601    0.0347    2.6400 C   0  0  0  0  0  0  0  0  0  0  0  0
   -1.8692   -1.1066    2.6777 C   0  0  0  0  0  0  0  0  0  0  0  0
   -3.0025   -1.1301    3.4868 C   0  0  0  0  0  0  0  0  0  0  0  0
   -3.3308   -0.0201    4.2614 C   0  0  0  0  0  0  0  0  0  0  0  0
   -2.5217    1.1157    4.2298 C   0  0  0  0  0  0  0  0  0  0  0  0
   -1.3876    1.1453    3.4228 C   0  0  0  0  0  0  0  0  0  0  0  0
   -0.3925    2.6126    3.4232 S   0  0  0  0  0  0  0  0  0  0  0  0
    0.0466    2.8411    2.0659 O   0  0  0  0  0  0  0  0  0  0  0  0
   -1.0960    3.6471    4.1504 O   0  0  0  0  0  0  0  0  0  0  0  0
    0.9653    2.1048    4.3770 N   0  0  0  0  0  0  0  0  0  0  0  0
    1.7191    3.1484    5.0832 C   0  0  0  0  0  0  0  0  0  0  0  0
    2.5711   -0.1009   -1.1179 N   0  0  0  0  0  0  0  0  0  0  0  0
   -1.6067   -1.9824    2.0858 H   0  0  0  0  0  0  0  0  0  0  0  0
   -3.6293   -2.0201    3.5137 H   0  0  0  0  0  0  0  0  0  0  0  0
   -4.2158   -0.0387    4.8947 H   0  0  0  0  0  0  0  0  0  0  0  0
   -2.7928    1.9827    4.8474 H   0  0  0  0  0  0  0  0  0  0  0  0
    1.5728    1.4402    3.8851 H   0  0  0  0  0  0  0  0  0  0  0  0
    1.0330    3.7920    5.6678 H   0  0  0  0  0  0  0  0  0  0  0  0
    2.3225    3.7913    4.4197 H   0  0  0  0  0  0  0  0  0  0  0  0
    2.4027    2.6615    5.8037 H   0  0  0  0  0  0  0  0  0  0  0  0
    2.2291    0.2419   -1.9955 H   0  0  0  0  0  0  0  0  0  0  0  0
    3.5729   -0.0483   -0.9972 H   0  0  0  0  0  0  0  0  0  0  0  0
  1  2  1  0  0  0  0
  1  5  1  0  0  0  0
  2  3  2  0  0  0  0
  3  4  1  0  0  0  0
  5  4  2  0  0  0  0
  5  6  1  0  0  0  0
  6  7  2  0  0  0  0
  6 11  1  0  0  0  0
  7  8  1  0  0  0  0
  8 19  1  0  0  0  0
  8  9  2  0  0  0  0
  9 20  1  0  0  0  0
 10  9  1  0  0  0  0
 10 21  1  0  0  0  0
 11 12  1  0  0  0  0
 11 10  2  0  0  0  0
 12 14  2  0  0  0  0
 12 15  1  0  0  0  0
 13 12  2  0  0  0  0
 15 16  1  0  0  0  0
 16 23  1  0  0  0  0
 16 25  1  0  0  0  0
 17 27  1  0  0  0  0
 17  2  1  0  0  0  0
 18  7  1  0  0  0  0
 22 15  1  0  0  0  0
 24 16  1  0  0  0  0
 26 17  1  0  0  0  0
M  END
$$$$
