rmsd27.gzmat
 OpenBabel08211713383D

 28 29  0  0  0  0  0  0  0  0999 V2000
    0.0000    0.0000    0.0000 Cl  0  0  0  0  0  0  0  0  0  0  0  0
    1.7101    0.0000    0.0000 C   0  0  0  0  0  0  0  0  0  0  0  0
    2.3794    0.0000    1.2139 C   0  0  0  0  0  0  0  0  0  0  0  0
    3.7755   -0.0165    1.2086 C   0  0  0  0  0  0  0  0  0  0  0  0
    4.4745   -0.0130    0.0022 C   0  0  0  0  0  0  0  0  0  0  0  0
    3.7673   -0.0126   -1.2088 C   0  0  0  0  0  0  0  0  0  0  0  0
    2.3773   -0.0073   -1.2194 C   0  0  0  0  0  0  0  0  0  0  0  0
    5.9814   -0.0438   -0.0843 C   0  0  0  0  0  0  0  0  0  0  0  0
    6.2452   -1.0640   -0.5045 H   0  0  0  0  0  0  0  0  0  0  0  0
    6.4971    1.0212   -1.0221 C   0  0  0  0  0  0  0  0  0  0  0  0
    5.9346    2.3003   -1.0216 C   0  0  0  0  0  0  0  0  0  0  0  0
    6.4506    3.2932   -1.8506 C   0  0  0  0  0  0  0  0  0  0  0  0
    7.5239    2.9734   -2.6715 C   0  0  0  0  0  0  0  0  0  0  0  0
    8.1718    4.1903   -3.6848 Cl  0  0  0  0  0  0  0  0  0  0  0  0
    8.0921    1.7071   -2.7061 C   0  0  0  0  0  0  0  0  0  0  0  0
    7.5654    0.7230   -1.8721 C   0  0  0  0  0  0  0  0  0  0  0  0
    6.6813    0.0842    1.2632 C   0  0  0  0  0  0  0  0  0  0  0  0
    8.4250   -0.1399    1.0347 Cl  0  0  0  0  0  0  0  0  0  0  0  0
    6.4318    1.6886    1.9581 Cl  0  0  0  0  0  0  0  0  0  0  0  0
    1.8359    0.0120    2.1592 H   0  0  0  0  0  0  0  0  0  0  0  0
    4.2898   -0.0336    2.1682 H   0  0  0  0  0  0  0  0  0  0  0  0
    4.3127   -0.0095   -2.1547 H   0  0  0  0  0  0  0  0  0  0  0  0
    1.8303   -0.0088   -2.1627 H   0  0  0  0  0  0  0  0  0  0  0  0
    5.0860    2.5284   -0.3732 H   0  0  0  0  0  0  0  0  0  0  0  0
    6.0183    4.2939   -1.8445 H   0  0  0  0  0  0  0  0  0  0  0  0
    8.9326    1.4813   -3.3622 H   0  0  0  0  0  0  0  0  0  0  0  0
    8.0000   -0.2769   -1.8851 H   0  0  0  0  0  0  0  0  0  0  0  0
    6.3599   -0.6622    2.0170 H   0  0  0  0  0  0  0  0  0  0  0  0
  1  2  1  0  0  0  0
  2  3  2  0  0  0  0
  3 20  1  0  0  0  0
  4  3  1  0  0  0  0
  4 21  1  0  0  0  0
  5  4  2  0  0  0  0
  6  5  1  0  0  0  0
  7  6  2  0  0  0  0
  7  2  1  0  0  0  0
  8  5  1  0  0  0  0
  8 17  1  0  0  0  0
  9  8  1  0  0  0  0
 10 11  1  0  0  0  0
 10  8  1  0  0  0  0
 11 24  1  0  0  0  0
 12 25  1  0  0  0  0
 12 11  2  0  0  0  0
 13 12  1  0  0  0  0
 14 13  1  0  0  0  0
 15 13  2  0  0  0  0
 15 16  1  0  0  0  0
 16 10  2  0  0  0  0
 17 19  1  0  0  0  0
 17 28  1  0  0  0  0
 18 17  1  0  0  0  0
 22  6  1  0  0  0  0
 23  7  1  0  0  0  0
 26 15  1  0  0  0  0
 27 16  1  0  0  0  0
M  END
$$$$
