rmsd26.gzmat
 OpenBabel08211713383D

 28 29  0  0  0  0  0  0  0  0999 V2000
    0.0000    0.0000    0.0000 Cl  0  0  0  0  0  0  0  0  0  0  0  0
    1.7098    0.0000    0.0000 C   0  0  0  0  0  0  0  0  0  0  0  0
    2.3796    0.0000    1.2143 C   0  0  0  0  0  0  0  0  0  0  0  0
    3.7748    0.0090    1.2073 C   0  0  0  0  0  0  0  0  0  0  0  0
    4.4737    0.0320   -0.0003 C   0  0  0  0  0  0  0  0  0  0  0  0
    3.7671    0.0092   -1.2098 C   0  0  0  0  0  0  0  0  0  0  0  0
    2.3763   -0.0023   -1.2194 C   0  0  0  0  0  0  0  0  0  0  0  0
    5.9819    0.0384   -0.0643 C   0  0  0  0  0  0  0  0  0  0  0  0
    6.2866   -1.0327   -0.2781 H   0  0  0  0  0  0  0  0  0  0  0  0
    6.4930    0.9220   -1.1772 C   0  0  0  0  0  0  0  0  0  0  0  0
    5.9384    2.1855   -1.3980 C   0  0  0  0  0  0  0  0  0  0  0  0
    6.4478    3.0089   -2.3987 C   0  0  0  0  0  0  0  0  0  0  0  0
    7.5044    2.5374   -3.1667 C   0  0  0  0  0  0  0  0  0  0  0  0
    8.1305    3.5436   -4.4007 Cl  0  0  0  0  0  0  0  0  0  0  0  0
    8.0677    1.2826   -2.9783 C   0  0  0  0  0  0  0  0  0  0  0  0
    7.5496    0.4701   -1.9720 C   0  0  0  0  0  0  0  0  0  0  0  0
    6.6427    0.4484    1.2471 C   0  0  0  0  0  0  0  0  0  0  0  0
    8.4029    0.3958    1.0534 Cl  0  0  0  0  0  0  0  0  0  0  0  0
    6.1933    2.0970    1.6934 Cl  0  0  0  0  0  0  0  0  0  0  0  0
    1.8379   -0.0060    2.1605 H   0  0  0  0  0  0  0  0  0  0  0  0
    4.2935   -0.0013    2.1647 H   0  0  0  0  0  0  0  0  0  0  0  0
    4.3097    0.0089   -2.1581 H   0  0  0  0  0  0  0  0  0  0  0  0
    1.8315   -0.0095   -2.1638 H   0  0  0  0  0  0  0  0  0  0  0  0
    5.0985    2.5327   -0.7921 H   0  0  0  0  0  0  0  0  0  0  0  0
    6.0224    3.9985   -2.5665 H   0  0  0  0  0  0  0  0  0  0  0  0
    8.8975    0.9356   -3.5933 H   0  0  0  0  0  0  0  0  0  0  0  0
    7.9811   -0.5173   -1.8063 H   0  0  0  0  0  0  0  0  0  0  0  0
    6.3978   -0.2063    2.1070 H   0  0  0  0  0  0  0  0  0  0  0  0
  1  2  1  0  0  0  0
  2  3  2  0  0  0  0
  3 20  1  0  0  0  0
  4  3  1  0  0  0  0
  4 21  1  0  0  0  0
  5  4  2  0  0  0  0
  6  5  1  0  0  0  0
  7  6  2  0  0  0  0
  7  2  1  0  0  0  0
  8  5  1  0  0  0  0
  8 17  1  0  0  0  0
  9  8  1  0  0  0  0
 10  8  1  0  0  0  0
 11 10  1  0  0  0  0
 11 24  1  0  0  0  0
 12 11  2  0  0  0  0
 13 15  2  0  0  0  0
 13 12  1  0  0  0  0
 14 13  1  0  0  0  0
 15 16  1  0  0  0  0
 16 27  1  0  0  0  0
 16 10  2  0  0  0  0
 17 19  1  0  0  0  0
 17 28  1  0  0  0  0
 18 17  1  0  0  0  0
 22  6  1  0  0  0  0
 23  7  1  0  0  0  0
 25 12  1  0  0  0  0
 26 15  1  0  0  0  0
M  END
$$$$
