28

Cl        -0.13310       -0.03360        0.05000
C          1.61390       -0.04160        0.03690
C          2.31370       -0.07680        1.24610
C          3.70760       -0.07790        1.22880
C          4.41500       -0.04820        0.01870
C          3.69160       -0.00800       -1.18000
C          2.29570       -0.00470       -1.18070
C          5.93580       -0.07900       -0.00020
H          6.25640        0.35170       -0.96270
C          6.55110        0.80330        1.08190
C          7.32910        0.33320        2.14680
C          7.86300        1.21310        3.09420
C          7.61650        2.58010        2.98080
Cl         8.27740        3.68430        4.16120
C          6.84070        3.07510        1.92730
C          6.31780        2.18620        0.99250
C          6.51270       -1.50520       -0.04620
Cl         5.91440       -2.56500        1.27760
Cl         6.17560       -2.27780       -1.63520
H          1.76600       -0.10010        2.18910
H          4.25370       -0.09760        2.17290
H          4.22520        0.01470       -2.13230
H          1.73620        0.02890       -2.11640
H          7.51730       -0.73280        2.27070
H          8.46590        0.83670        3.92160
H          6.65360        4.14680        1.84740
H          5.70510        2.57380        0.17470
H          7.60350       -1.48290        0.04800
