28
rmsd56.gzmat
Cl         0.00000        0.00000        0.00000
C          1.71100        0.00000        0.00000
C          2.37690        0.00000        1.21840
C          3.76970       -0.01140        1.20870
C          4.46540       -0.02450       -0.00330
C          3.76870       -0.00800       -1.21410
C          2.37540       -0.00020       -1.21900
C          5.97370       -0.09350       -0.02180
H          6.34830        0.36640       -0.98880
C          6.56560        0.73730        1.09100
C          7.36850        0.21410        2.10310
C          7.87960        1.04890        3.09880
C          7.57480        2.40050        3.05450
Cl         8.19700        3.42590        4.27350
C          6.78190        2.95380        2.05570
C          6.27940        2.11010        1.07160
C          6.41990       -1.55010       -0.01300
Cl         5.63640       -2.45020        1.28970
Cl         5.94410       -2.30660       -1.54510
H          1.83380        0.00500        2.16340
H          4.31260       -0.01320        2.15640
H          4.30410       -0.00940       -2.16370
H          1.82900        0.00090       -2.16230
H          7.61410       -0.84540        2.14960
H          8.50380        0.63630        3.89250
H          6.55450        4.01990        2.03900
H          5.64720        2.52040        0.28240
H          7.51450       -1.69340        0.08740
