rmsd14.gzmat
 OpenBabel08211713383D

 28 29  0  0  0  0  0  0  0  0999 V2000
    0.0000    0.0000    0.0000 Cl  0  0  0  0  0  0  0  0  0  0  0  0
    1.7109    0.0000    0.0000 C   0  0  0  0  0  0  0  0  0  0  0  0
    2.3767    0.0000    1.2186 C   0  0  0  0  0  0  0  0  0  0  0  0
    3.7695    0.0079    1.2108 C   0  0  0  0  0  0  0  0  0  0  0  0
    4.4666    0.0059   -0.0003 C   0  0  0  0  0  0  0  0  0  0  0  0
    3.7693    0.0080   -1.2115 C   0  0  0  0  0  0  0  0  0  0  0  0
    2.3759    0.0026   -1.2187 C   0  0  0  0  0  0  0  0  0  0  0  0
    5.9762   -0.0290   -0.0226 C   0  0  0  0  0  0  0  0  0  0  0  0
    6.3355    0.3565   -1.0273 H   0  0  0  0  0  0  0  0  0  0  0  0
    6.5742    0.8982    1.0076 C   0  0  0  0  0  0  0  0  0  0  0  0
    7.6676    0.5427    1.7975 C   0  0  0  0  0  0  0  0  0  0  0  0
    8.1971    1.4481    2.7180 C   0  0  0  0  0  0  0  0  0  0  0  0
    7.6188    2.7040    2.8226 C   0  0  0  0  0  0  0  0  0  0  0  0
    8.2624    3.8166    3.9507 Cl  0  0  0  0  0  0  0  0  0  0  0  0
    6.5365    3.0931    2.0422 C   0  0  0  0  0  0  0  0  0  0  0  0
    6.0199    2.1801    1.1291 C   0  0  0  0  0  0  0  0  0  0  0  0
    6.4519   -1.4716    0.1046 C   0  0  0  0  0  0  0  0  0  0  0  0
    5.9187   -2.1836    1.6303 Cl  0  0  0  0  0  0  0  0  0  0  0  0
    5.7565   -2.4284   -1.2150 Cl  0  0  0  0  0  0  0  0  0  0  0  0
    1.8316   -0.0101    2.1628 H   0  0  0  0  0  0  0  0  0  0  0  0
    4.3119    0.0200    2.1587 H   0  0  0  0  0  0  0  0  0  0  0  0
    4.3070    0.0046   -2.1601 H   0  0  0  0  0  0  0  0  0  0  0  0
    1.8302   -0.0043   -2.1621 H   0  0  0  0  0  0  0  0  0  0  0  0
    8.1307   -0.4398    1.7207 H   0  0  0  0  0  0  0  0  0  0  0  0
    9.0473    1.1617    3.3376 H   0  0  0  0  0  0  0  0  0  0  0  0
    6.0958    4.0854    2.1398 H   0  0  0  0  0  0  0  0  0  0  0  0
    5.1682    2.4651    0.5079 H   0  0  0  0  0  0  0  0  0  0  0  0
    7.5514   -1.5985    0.0432 H   0  0  0  0  0  0  0  0  0  0  0  0
  2  1  1  0  0  0  0
  2  3  2  0  0  0  0
  3 20  1  0  0  0  0
  4  3  1  0  0  0  0
  4 21  1  0  0  0  0
  5  4  2  0  0  0  0
  6  5  1  0  0  0  0
  7  6  2  0  0  0  0
  7  2  1  0  0  0  0
  8  5  1  0  0  0  0
  8 17  1  0  0  0  0
  8 10  1  0  0  0  0
  9  8  1  0  0  0  0
 10 16  2  0  0  0  0
 10 11  1  0  0  0  0
 11 12  2  0  0  0  0
 12 13  1  0  0  0  0
 12 25  1  0  0  0  0
 13 14  1  0  0  0  0
 15 26  1  0  0  0  0
 15 13  2  0  0  0  0
 16 15  1  0  0  0  0
 17 18  1  0  0  0  0
 19 17  1  0  0  0  0
 22  6  1  0  0  0  0
 23  7  1  0  0  0  0
 24 11  1  0  0  0  0
 27 16  1  0  0  0  0
 28 17  1  0  0  0  0
M  END
$$$$
