28
rmsd55.gzmat
Cl         0.00000        0.00000        0.00000
C          1.71090        0.00000        0.00000
C          2.37790        0.00000        1.21790
C          3.77070       -0.01240        1.20820
C          4.46550       -0.03040       -0.00420
C          3.76720       -0.00920       -1.21450
C          2.37440        0.00260       -1.21950
C          5.97310       -0.11020       -0.03260
H          6.34160        0.25600       -1.04020
C          6.60860        0.79520        0.99410
C          7.75560        0.42690        1.69890
C          8.31050        1.29090        2.64280
C          7.70580        2.52120        2.85250
Cl         8.37290        3.57780        4.01960
C          6.58080        2.92960        2.14700
C          6.03930        2.05710        1.20830
C          6.39830       -1.56900        0.10780
Cl         5.91950       -2.21270        1.68160
Cl         5.59790       -2.53600       -1.14240
H          1.83550        0.00630        2.16360
H          4.31350       -0.00200        2.15620
H          4.30580       -0.00950       -2.16240
H          1.82750        0.00840       -2.16180
H          8.24060       -0.53370        1.53300
H          9.19970        0.99410        3.19960
H          6.12730        3.90600        2.32050
H          5.15750        2.36160        0.64080
H          7.48740       -1.74190       -0.00630
