
     RDKit          3D

 28 29  0  0  0  0  0  0  0  0999 V2000
   -0.0835    0.0829   -0.0142 Cl  0  0  0  0  0  0  0  0  0  0  0  0
    1.6621    0.0352   -0.0075 C   0  0  0  0  0  0  0  0  0  0  0  0
    2.3456   -0.0861    1.2055 C   0  0  0  0  0  0  0  0  0  0  0  0
    3.7397   -0.1170    1.2031 C   0  0  0  0  0  0  0  0  0  0  0  0
    4.4635   -0.0382    0.0056 C   0  0  0  0  0  0  0  0  0  0  0  0
    3.7561    0.0822   -1.1966 C   0  0  0  0  0  0  0  0  0  0  0  0
    2.3615    0.1232   -1.2130 C   0  0  0  0  0  0  0  0  0  0  0  0
    5.9866   -0.0998    0.0010 C   0  0  0  0  0  0  0  0  0  0  0  0
    6.3320    0.1511   -1.0127 H   0  0  0  0  0  0  0  0  0  0  0  0
    6.5764    0.9268    0.9574 C   0  0  0  0  0  0  0  0  0  0  0  0
    6.9131    0.6375    2.2865 C   0  0  0  0  0  0  0  0  0  0  0  0
    7.3865    1.6317    3.1444 C   0  0  0  0  0  0  0  0  0  0  0  0
    7.5262    2.9374    2.6710 C   0  0  0  0  0  0  0  0  0  0  0  0
    8.1186    4.1869    3.7376 Cl  0  0  0  0  0  0  0  0  0  0  0  0
    7.2009    3.2513    1.3491 C   0  0  0  0  0  0  0  0  0  0  0  0
    6.7305    2.2449    0.5068 C   0  0  0  0  0  0  0  0  0  0  0  0
    6.4748   -1.5335    0.2594 C   0  0  0  0  0  0  0  0  0  0  0  0
    5.7847   -2.6702   -0.9483 Cl  0  0  0  0  0  0  0  0  0  0  0  0
    8.2697   -1.6222    0.2257 Cl  0  0  0  0  0  0  0  0  0  0  0  0
    1.7857   -0.1473    2.1396 H   0  0  0  0  0  0  0  0  0  0  0  0
    4.2676   -0.1881    2.1564 H   0  0  0  0  0  0  0  0  0  0  0  0
    4.3034    0.1360   -2.1404 H   0  0  0  0  0  0  0  0  0  0  0  0
    1.8148    0.2192   -2.1520 H   0  0  0  0  0  0  0  0  0  0  0  0
    6.8282   -0.3792    2.6735 H   0  0  0  0  0  0  0  0  0  0  0  0
    7.6521    1.3974    4.1760 H   0  0  0  0  0  0  0  0  0  0  0  0
    7.3189    4.2740    0.9887 H   0  0  0  0  0  0  0  0  0  0  0  0
    6.4713    2.4926   -0.5257 H   0  0  0  0  0  0  0  0  0  0  0  0
    6.1582   -1.9111    1.2375 H   0  0  0  0  0  0  0  0  0  0  0  0
  1  2  1  0
  2  3  2  0
  2  7  1  0
  3  4  1  0
  3 20  1  0
  4  5  2  0
  4 21  1  0
  5  6  1  0
  5  8  1  0
  6  7  2  0
  6 22  1  0
  7 23  1  0
  8  9  1  0
  8 10  1  0
  8 17  1  0
 10 11  2  0
 10 16  1  0
 11 12  1  0
 11 24  1  0
 12 13  2  0
 12 25  1  0
 13 14  1  0
 13 15  1  0
 15 16  2  0
 15 26  1  0
 16 27  1  0
 17 18  1  0
 17 19  1  0
 17 28  1  0
M  END

