rmsd7.gzmat
 OpenBabel08211713363D

 27 28  0  0  1  0  0  0  0  0999 V2000
    0.0000    0.0000    0.0000 N   0  0  0  0  0  0  0  0  0  0  0  0
    1.3411    0.0000    0.0000 C   0  0  0  0  0  0  0  0  0  0  0  0
    2.1005    0.0000    1.1839 C   0  0  2  0  0  0  0  0  0  0  0  0
    1.4168    0.0349    2.4047 C   0  0  0  0  0  0  0  0  0  0  0  0
    0.0269    0.0570    2.4066 C   0  0  0  0  0  0  0  0  0  0  0  0
   -0.6513    0.0315    1.1779 C   0  0  0  0  0  0  0  0  0  0  0  0
    3.5904   -0.0151    1.1501 C   0  0  1  0  0  0  0  0  0  0  0  0
    4.0231    0.0817    2.1823 H   0  0  0  0  0  0  0  0  0  0  0  0
    4.0547   -1.3757    0.5699 N   0  0  0  0  0  0  0  0  0  0  0  0
    3.3339   -1.6943   -0.1264 H   0  0  0  0  0  0  0  0  0  0  0  0
    5.3628   -1.0918   -0.1507 C   0  0  0  0  0  0  0  0  0  0  0  0
    5.2024    0.3252   -0.7062 C   0  0  0  0  0  0  0  0  0  0  0  0
    4.2200    1.0467    0.2288 C   0  0  0  0  0  0  0  0  0  0  0  0
    4.2076   -2.4153    1.6329 C   0  0  0  0  0  0  0  0  0  0  0  0
    1.8078    0.0095   -0.9940 H   0  0  0  0  0  0  0  0  0  0  0  0
    1.9636    0.0541    3.3505 H   0  0  0  0  0  0  0  0  0  0  0  0
   -0.5331    0.1001    3.3426 H   0  0  0  0  0  0  0  0  0  0  0  0
   -1.7526    0.0385    1.1150 H   0  0  0  0  0  0  0  0  0  0  0  0
    6.2151   -1.1539    0.5623 H   0  0  0  0  0  0  0  0  0  0  0  0
    5.5410   -1.8538   -0.9383 H   0  0  0  0  0  0  0  0  0  0  0  0
    6.1776    0.8533   -0.7543 H   0  0  0  0  0  0  0  0  0  0  0  0
    4.8331    0.3203   -1.7510 H   0  0  0  0  0  0  0  0  0  0  0  0
    4.7340    1.8256    0.8295 H   0  0  0  0  0  0  0  0  0  0  0  0
    3.4550    1.6075   -0.3443 H   0  0  0  0  0  0  0  0  0  0  0  0
    4.9383   -2.1109    2.4059 H   0  0  0  0  0  0  0  0  0  0  0  0
    4.5520   -3.3769    1.2033 H   0  0  0  0  0  0  0  0  0  0  0  0
    3.2401   -2.6009    2.1416 H   0  0  0  0  0  0  0  0  0  0  0  0
  1  2  2  0  0  0  0
  1  6  2  0  0  0  0
  3  2  1  6  0  0  0
  3  4  1  0  0  0  0
  4  5  2  0  0  0  0
  4 16  1  0  0  0  0
  5 17  1  0  0  0  0
  6  5  1  0  0  0  0
  7  3  1  0  0  0  0
  7  8  1  1  0  0  0
  9  7  1  0  0  0  0
  9 14  1  0  0  0  0
 10  9  1  0  0  0  0
 11 19  1  0  0  0  0
 11  9  1  0  0  0  0
 12 11  1  0  0  0  0
 12 13  1  0  0  0  0
 13 23  1  0  0  0  0
 13  7  1  0  0  0  0
 14 27  1  0  0  0  0
 14 25  1  0  0  0  0
 15  2  1  0  0  0  0
 18  6  1  0  0  0  0
 20 11  1  0  0  0  0
 21 12  1  0  0  0  0
 22 12  1  0  0  0  0
 24 13  1  0  0  0  0
 26 14  1  0  0  0  0
M  RAD  1   3   2
M  END
$$$$
