27
rmsd4.gzmat
N          0.00000        0.00000        0.00000
C          1.34070        0.00000        0.00000
C          2.10070        0.00000        1.18380
C          1.41760        0.01790        2.40500
C          0.02740        0.03130        2.40760
C         -0.65050        0.02220        1.17870
C          3.59010        0.01090        1.14610
H          4.03000        0.09330        2.17690
N          4.08020       -1.32420        0.52920
H          3.34760       -1.65570       -0.14760
C          5.36650       -1.02050       -0.22760
C          5.46180        0.50400       -0.36680
C          4.18930        1.09890        0.24530
C          4.27800       -2.37070        1.58110
H          1.80580        0.00900       -0.99460
H          1.96410        0.03290        3.35090
H         -0.53190        0.05460        3.34520
H         -1.75150        0.03680        1.11500
H          6.24500       -1.42980        0.31710
H          5.33840       -1.52730       -1.21750
H          6.36690        0.89430        0.14360
H          5.57790        0.81140       -1.42680
H          4.40720        2.01770        0.82990
H          3.48190        1.43750       -0.53810
H          5.07440       -2.09040        2.29680
H          4.55630       -3.34320        1.12970
H          3.34590       -2.52580        2.16100
