rmsd3.gzmat
 OpenBabel08211713363D

 27 28  0  0  1  0  0  0  0  0999 V2000
    0.0000    0.0000    0.0000 N   0  0  0  0  0  0  0  0  0  0  0  0
    1.3408    0.0000    0.0000 C   0  0  0  0  0  0  0  0  0  0  0  0
    2.1001    0.0000    1.1842 C   0  0  2  0  0  0  0  0  0  0  0  0
    1.4163    0.0315    2.4047 C   0  0  0  0  0  0  0  0  0  0  0  0
    0.0262    0.0545    2.4065 C   0  0  0  0  0  0  0  0  0  0  0  0
   -0.6513    0.0331    1.1778 C   0  0  0  0  0  0  0  0  0  0  0  0
    3.5896   -0.0018    1.1501 C   0  0  1  0  0  0  0  0  0  0  0  0
    4.0270    0.0488    2.1842 H   0  0  0  0  0  0  0  0  0  0  0  0
    4.0713   -1.3248    0.4980 N   0  0  0  0  0  0  0  0  0  0  0  0
    3.3201   -1.6534   -0.1596 H   0  0  0  0  0  0  0  0  0  0  0  0
    5.3319   -1.0041   -0.2971 C   0  0  0  0  0  0  0  0  0  0  0  0
    5.4940    0.5209   -0.2952 C   0  0  0  0  0  0  0  0  0  0  0  0
    4.1997    1.1039    0.2795 C   0  0  0  0  0  0  0  0  0  0  0  0
    4.3087   -2.3845    1.5280 C   0  0  0  0  0  0  0  0  0  0  0  0
    1.8048    0.0108   -0.9953 H   0  0  0  0  0  0  0  0  0  0  0  0
    1.9631    0.0493    3.3504 H   0  0  0  0  0  0  0  0  0  0  0  0
   -0.5339    0.0956    3.3427 H   0  0  0  0  0  0  0  0  0  0  0  0
   -1.7523    0.0480    1.1132 H   0  0  0  0  0  0  0  0  0  0  0  0
    6.2170   -1.5059    0.1500 H   0  0  0  0  0  0  0  0  0  0  0  0
    5.2218   -1.4076   -1.3281 H   0  0  0  0  0  0  0  0  0  0  0  0
    6.3735    0.8296    0.3068 H   0  0  0  0  0  0  0  0  0  0  0  0
    5.6934    0.9127   -1.3140 H   0  0  0  0  0  0  0  0  0  0  0  0
    4.3892    2.0215    0.8749 H   0  0  0  0  0  0  0  0  0  0  0  0
    3.5115    1.4382   -0.5224 H   0  0  0  0  0  0  0  0  0  0  0  0
    5.1108   -2.0989    2.2351 H   0  0  0  0  0  0  0  0  0  0  0  0
    4.6002   -3.3426    1.0543 H   0  0  0  0  0  0  0  0  0  0  0  0
    3.3887   -2.5700    2.1181 H   0  0  0  0  0  0  0  0  0  0  0  0
  1  2  2  0  0  0  0
  1  6  2  0  0  0  0
  3  2  1  6  0  0  0
  3  4  1  0  0  0  0
  4  5  2  0  0  0  0
  4 16  1  0  0  0  0
  5 17  1  0  0  0  0
  6  5  1  0  0  0  0
  7  3  1  0  0  0  0
  7  8  1  1  0  0  0
  9  7  1  0  0  0  0
  9 14  1  0  0  0  0
 10  9  1  0  0  0  0
 11 12  1  0  0  0  0
 11 19  1  0  0  0  0
 11  9  1  0  0  0  0
 12 13  1  0  0  0  0
 12 21  1  0  0  0  0
 13 23  1  0  0  0  0
 13  7  1  0  0  0  0
 14 27  1  0  0  0  0
 14 25  1  0  0  0  0
 15  2  1  0  0  0  0
 18  6  1  0  0  0  0
 20 11  1  0  0  0  0
 22 12  1  0  0  0  0
 24 13  1  0  0  0  0
 26 14  1  0  0  0  0
M  RAD  1   3   2
M  END
$$$$
