rmsd8.gzmat
 OpenBabel08211713363D

 27 28  0  0  1  0  0  0  0  0999 V2000
    0.0000    0.0000    0.0000 N   0  0  0  0  0  0  0  0  0  0  0  0
    1.3423    0.0000    0.0000 C   0  0  0  0  0  0  0  0  0  0  0  0
    2.0984    0.0000    1.1855 C   0  0  1  0  0  0  0  0  0  0  0  0
    1.4109   -0.0328    2.4051 C   0  0  0  0  0  0  0  0  0  0  0  0
    0.0223   -0.0383    2.4068 C   0  0  0  0  0  0  0  0  0  0  0  0
   -0.6530   -0.0168    1.1750 C   0  0  0  0  0  0  0  0  0  0  0  0
    3.5848    0.0263    1.1033 C   0  0  1  0  0  0  0  0  0  0  0  0
    3.9371   -0.1074    0.0430 H   0  0  0  0  0  0  0  0  0  0  0  0
    4.0831    1.4111    1.5856 N   0  0  0  0  0  0  0  0  0  0  0  0
    3.4901    1.7093    2.3997 H   0  0  0  0  0  0  0  0  0  0  0  0
    5.5118    1.1885    2.0552 C   0  0  0  0  0  0  0  0  0  0  0  0
    5.5669   -0.2625    2.5490 C   0  0  0  0  0  0  0  0  0  0  0  0
    4.3159   -0.9745    2.0110 C   0  0  0  0  0  0  0  0  0  0  0  0
    3.9937    2.4449    0.5088 C   0  0  0  0  0  0  0  0  0  0  0  0
    1.8119   -0.0078   -0.9943 H   0  0  0  0  0  0  0  0  0  0  0  0
    1.9512   -0.0669    3.3526 H   0  0  0  0  0  0  0  0  0  0  0  0
   -0.5398   -0.0666    3.3421 H   0  0  0  0  0  0  0  0  0  0  0  0
   -1.7540   -0.0164    1.1108 H   0  0  0  0  0  0  0  0  0  0  0  0
    6.2217    1.3569    1.2151 H   0  0  0  0  0  0  0  0  0  0  0  0
    5.7695    1.9215    2.8486 H   0  0  0  0  0  0  0  0  0  0  0  0
    6.4935   -0.7656    2.2024 H   0  0  0  0  0  0  0  0  0  0  0  0
    5.6134   -0.3187    3.6549 H   0  0  0  0  0  0  0  0  0  0  0  0
    4.5808   -1.8927    1.4460 H   0  0  0  0  0  0  0  0  0  0  0  0
    3.6765   -1.3429    2.8366 H   0  0  0  0  0  0  0  0  0  0  0  0
    4.6650    2.2184   -0.3409 H   0  0  0  0  0  0  0  0  0  0  0  0
    4.2641    3.4464    0.8957 H   0  0  0  0  0  0  0  0  0  0  0  0
    2.9603    2.5088    0.1108 H   0  0  0  0  0  0  0  0  0  0  0  0
  1  6  2  0  0  0  0
  2  1  2  0  0  0  0
  3  2  1  6  0  0  0
  3  4  1  0  0  0  0
  4  5  2  0  0  0  0
  4 16  1  0  0  0  0
  5 17  1  0  0  0  0
  6  5  1  0  0  0  0
  7  8  1  6  0  0  0
  7  3  1  0  0  0  0
  7  9  1  0  0  0  0
  7 13  1  0  0  0  0
  9 11  1  0  0  0  0
  9 10  1  0  0  0  0
 11 12  1  0  0  0  0
 11 20  1  0  0  0  0
 12 22  1  0  0  0  0
 13 12  1  0  0  0  0
 13 24  1  0  0  0  0
 14 26  1  0  0  0  0
 14  9  1  0  0  0  0
 15  2  1  0  0  0  0
 18  6  1  0  0  0  0
 19 11  1  0  0  0  0
 21 12  1  0  0  0  0
 23 13  1  0  0  0  0
 25 14  1  0  0  0  0
 27 14  1  0  0  0  0
M  RAD  1   3   2
M  END
$$$$
