rmsd4.gzmat
 OpenBabel08211713363D

 27 28  0  0  1  0  0  0  0  0999 V2000
    0.0000    0.0000    0.0000 N   0  0  0  0  0  0  0  0  0  0  0  0
    1.3407    0.0000    0.0000 C   0  0  0  0  0  0  0  0  0  0  0  0
    2.1007    0.0000    1.1838 C   0  0  2  0  0  0  0  0  0  0  0  0
    1.4176    0.0179    2.4050 C   0  0  0  0  0  0  0  0  0  0  0  0
    0.0274    0.0313    2.4076 C   0  0  0  0  0  0  0  0  0  0  0  0
   -0.6505    0.0222    1.1787 C   0  0  0  0  0  0  0  0  0  0  0  0
    3.5901    0.0109    1.1461 C   0  0  1  0  0  0  0  0  0  0  0  0
    4.0300    0.0933    2.1769 H   0  0  0  0  0  0  0  0  0  0  0  0
    4.0802   -1.3242    0.5292 N   0  0  0  0  0  0  0  0  0  0  0  0
    3.3476   -1.6557   -0.1476 H   0  0  0  0  0  0  0  0  0  0  0  0
    5.3665   -1.0205   -0.2276 C   0  0  0  0  0  0  0  0  0  0  0  0
    5.4618    0.5040   -0.3668 C   0  0  0  0  0  0  0  0  0  0  0  0
    4.1893    1.0989    0.2453 C   0  0  0  0  0  0  0  0  0  0  0  0
    4.2780   -2.3707    1.5811 C   0  0  0  0  0  0  0  0  0  0  0  0
    1.8058    0.0090   -0.9946 H   0  0  0  0  0  0  0  0  0  0  0  0
    1.9641    0.0329    3.3509 H   0  0  0  0  0  0  0  0  0  0  0  0
   -0.5319    0.0546    3.3452 H   0  0  0  0  0  0  0  0  0  0  0  0
   -1.7515    0.0368    1.1150 H   0  0  0  0  0  0  0  0  0  0  0  0
    6.2450   -1.4298    0.3171 H   0  0  0  0  0  0  0  0  0  0  0  0
    5.3384   -1.5273   -1.2175 H   0  0  0  0  0  0  0  0  0  0  0  0
    6.3669    0.8943    0.1436 H   0  0  0  0  0  0  0  0  0  0  0  0
    5.5779    0.8114   -1.4268 H   0  0  0  0  0  0  0  0  0  0  0  0
    4.4072    2.0177    0.8299 H   0  0  0  0  0  0  0  0  0  0  0  0
    3.4819    1.4375   -0.5381 H   0  0  0  0  0  0  0  0  0  0  0  0
    5.0744   -2.0904    2.2968 H   0  0  0  0  0  0  0  0  0  0  0  0
    4.5563   -3.3432    1.1297 H   0  0  0  0  0  0  0  0  0  0  0  0
    3.3459   -2.5258    2.1610 H   0  0  0  0  0  0  0  0  0  0  0  0
  1  2  2  0  0  0  0
  1  6  2  0  0  0  0
  3  2  1  6  0  0  0
  3  4  1  0  0  0  0
  4  5  2  0  0  0  0
  4 16  1  0  0  0  0
  5 17  1  0  0  0  0
  6  5  1  0  0  0  0
  7  3  1  0  0  0  0
  7  8  1  1  0  0  0
  9  7  1  0  0  0  0
  9 14  1  0  0  0  0
 10  9  1  0  0  0  0
 11 19  1  0  0  0  0
 11  9  1  0  0  0  0
 12 11  1  0  0  0  0
 12 21  1  0  0  0  0
 12 13  1  0  0  0  0
 13 23  1  0  0  0  0
 13  7  1  0  0  0  0
 14 27  1  0  0  0  0
 14 25  1  0  0  0  0
 15  2  1  0  0  0  0
 18  6  1  0  0  0  0
 20 11  1  0  0  0  0
 22 12  1  0  0  0  0
 24 13  1  0  0  0  0
 26 14  1  0  0  0  0
M  RAD  1   3   2
M  END
$$$$
