27
rmsd12.gzmat
N          0.00000        0.00000        0.00000
C          1.34300        0.00000        0.00000
C          2.09860        0.00000        1.18510
C          1.40960       -0.03020        2.40470
C          0.02150       -0.03550        2.40720
C         -0.65400       -0.01560        1.17400
C          3.58640       -0.00290        1.11160
H          3.94410       -0.06560        0.04670
N          4.12620        1.32190        1.70770
H          3.46240        1.64050        2.45670
C          5.47950        1.00870        2.33540
C          5.59720       -0.51840        2.41750
C          4.26190       -1.10120        1.94290
C          4.23100        2.38900        0.66310
H          1.81170       -0.01130       -0.99430
H          1.94930       -0.06410        3.35220
H         -0.54020       -0.06250        3.34250
H         -1.75530       -0.01610        1.11010
H          6.30270        1.44320        1.72710
H          5.53690        1.48730        3.33740
H          6.43760       -0.88750        1.79380
H          5.83720       -0.85500        3.44640
H          4.40580       -2.02200        1.33900
H          3.63660       -1.43040        2.79600
H          4.96390        2.12340       -0.12280
H          4.54490        3.35360        1.10790
H          3.25320        2.55350        0.16760
