27
rmsd9.gzmat
N          0.00000        0.00000        0.00000
C          1.34440        0.00000        0.00000
C          2.10240        0.00000        1.17850
C          1.41020       -0.01520        2.39910
C          0.02200       -0.01350        2.40350
C         -0.65450       -0.00370        1.17250
C          3.59760        0.01010        1.23120
H          3.96700       -0.94520        1.69980
N          4.25800        0.13420       -0.15240
H          3.69800        0.81270       -0.72800
C          5.63910        0.72430        0.10780
C          5.49800        1.58260        1.36980
C          4.14170        1.23180        1.99710
C          4.34120       -1.18040       -0.86140
H          1.78510       -0.00230       -1.00250
H          1.95650       -0.02750        3.34500
H         -0.53830       -0.01960        3.34100
H         -1.75500       -0.00070        1.10790
H          6.38110       -0.09160        0.25540
H          5.97060        1.31030       -0.77550
H          6.33040        1.38890        2.07800
H          5.56690        2.66590        1.14360
H          4.23730        1.01210        3.07900
H          3.43950        2.08900        1.94250
H          4.98760       -1.90050       -0.32350
H          4.75030       -1.05470       -1.88340
H          3.34070       -1.65110       -0.95290
