rmsd6.gzmat
 OpenBabel08211713363D

 27 28  0  0  1  0  0  0  0  0999 V2000
    0.0000    0.0000    0.0000 N   0  0  0  0  0  0  0  0  0  0  0  0
    1.3429    0.0000    0.0000 C   0  0  0  0  0  0  0  0  0  0  0  0
    2.0978    0.0000    1.1854 C   0  0  1  0  0  0  0  0  0  0  0  0
    1.4097   -0.0233    2.4053 C   0  0  0  0  0  0  0  0  0  0  0  0
    0.0216   -0.0226    2.4073 C   0  0  0  0  0  0  0  0  0  0  0  0
   -0.6535   -0.0103    1.1745 C   0  0  0  0  0  0  0  0  0  0  0  0
    3.5854    0.0014    1.1109 C   0  0  1  0  0  0  0  0  0  0  0  0
    3.9397   -0.0904    0.0473 H   0  0  0  0  0  0  0  0  0  0  0  0
    4.1133    1.3497    1.6611 N   0  0  0  0  0  0  0  0  0  0  0  0
    3.4884    1.6538    2.4493 H   0  0  0  0  0  0  0  0  0  0  0  0
    5.5001    1.0482    2.2075 C   0  0  0  0  0  0  0  0  0  0  0  0
    5.4050   -0.3798    2.7518 C   0  0  0  0  0  0  0  0  0  0  0  0
    4.2755   -1.0715    1.9724 C   0  0  0  0  0  0  0  0  0  0  0  0
    4.1361    2.4137    0.6113 C   0  0  0  0  0  0  0  0  0  0  0  0
    1.8129   -0.0099   -0.9942 H   0  0  0  0  0  0  0  0  0  0  0  0
    1.9515   -0.0552    3.3514 H   0  0  0  0  0  0  0  0  0  0  0  0
   -0.5406   -0.0398    3.3427 H   0  0  0  0  0  0  0  0  0  0  0  0
   -1.7546   -0.0121    1.1108 H   0  0  0  0  0  0  0  0  0  0  0  0
    6.2565    1.1237    1.3942 H   0  0  0  0  0  0  0  0  0  0  0  0
    5.7793    1.7925    2.9823 H   0  0  0  0  0  0  0  0  0  0  0  0
    6.3665   -0.9213    2.6361 H   0  0  0  0  0  0  0  0  0  0  0  0
    5.2036   -0.3930    3.8414 H   0  0  0  0  0  0  0  0  0  0  0  0
    4.6678   -1.8897    1.3332 H   0  0  0  0  0  0  0  0  0  0  0  0
    3.5659   -1.5776    2.6564 H   0  0  0  0  0  0  0  0  0  0  0  0
    4.7749    2.1334   -0.2477 H   0  0  0  0  0  0  0  0  0  0  0  0
    4.5211    3.3687    1.0199 H   0  0  0  0  0  0  0  0  0  0  0  0
    3.1153    2.6026    0.2214 H   0  0  0  0  0  0  0  0  0  0  0  0
  1  6  2  0  0  0  0
  2  1  2  0  0  0  0
  3  2  1  6  0  0  0
  3  4  1  0  0  0  0
  4  5  2  0  0  0  0
  4 16  1  0  0  0  0
  5 17  1  0  0  0  0
  6  5  1  0  0  0  0
  7  8  1  6  0  0  0
  7  3  1  0  0  0  0
  7  9  1  0  0  0  0
  7 13  1  0  0  0  0
  9 11  1  0  0  0  0
  9 10  1  0  0  0  0
 11 12  1  0  0  0  0
 11 20  1  0  0  0  0
 12 22  1  0  0  0  0
 13 24  1  0  0  0  0
 13 12  1  0  0  0  0
 14 26  1  0  0  0  0
 14  9  1  0  0  0  0
 15  2  1  0  0  0  0
 18  6  1  0  0  0  0
 19 11  1  0  0  0  0
 21 12  1  0  0  0  0
 23 13  1  0  0  0  0
 25 14  1  0  0  0  0
 27 14  1  0  0  0  0
M  RAD  1   3   2
M  END
$$$$
