27
rmsd11.gzmat
N          0.00000        0.00000        0.00000
C          1.34270        0.00000        0.00000
C          2.09760        0.00000        1.18590
C          1.40890       -0.00670        2.40570
C          0.02070       -0.00690        2.40740
C         -0.65400       -0.00720        1.17450
C          3.58420       -0.03010        1.11080
H          3.93650       -0.16010        0.05040
N          4.14260        1.32210        1.62780
H          3.44860        1.72790        2.30370
C          5.44610        1.02180        2.36210
C          5.60220       -0.50290        2.40300
C          4.24910       -1.09170        1.99550
C          4.34910        2.29200        0.50540
H          1.81280       -0.00950       -0.99410
H          1.94950       -0.02580        3.35310
H         -0.54050       -0.01580        3.34320
H         -1.75520       -0.01720        1.11060
H          6.30630        1.50420        1.84940
H          5.39490        1.45900        3.38340
H          6.40740       -0.84390        1.72070
H          5.91090       -0.85610        3.40820
H          4.36230       -2.04990        1.44600
H          3.63740       -1.35420        2.88060
H          5.09530        1.92270       -0.22400
H          4.70230        3.27050        0.88530
H          3.40310        2.46980       -0.04400
