27
rmsd3.gzmat
N          0.00000        0.00000        0.00000
C          1.34080        0.00000        0.00000
C          2.10010        0.00000        1.18420
C          1.41630        0.03150        2.40470
C          0.02620        0.05450        2.40650
C         -0.65130        0.03310        1.17780
C          3.58960       -0.00180        1.15010
H          4.02700        0.04880        2.18420
N          4.07130       -1.32480        0.49800
H          3.32010       -1.65340       -0.15960
C          5.33190       -1.00410       -0.29710
C          5.49400        0.52090       -0.29520
C          4.19970        1.10390        0.27950
C          4.30870       -2.38450        1.52800
H          1.80480        0.01080       -0.99530
H          1.96310        0.04930        3.35040
H         -0.53390        0.09560        3.34270
H         -1.75230        0.04800        1.11320
H          6.21700       -1.50590        0.15000
H          5.22180       -1.40760       -1.32810
H          6.37350        0.82960        0.30680
H          5.69340        0.91270       -1.31400
H          4.38920        2.02150        0.87490
H          3.51150        1.43820       -0.52240
H          5.11080       -2.09890        2.23510
H          4.60020       -3.34260        1.05430
H          3.38870       -2.57000        2.11810
