rmsd11.gzmat
 OpenBabel08211713363D

 27 28  0  0  1  0  0  0  0  0999 V2000
    0.0000    0.0000    0.0000 N   0  0  0  0  0  0  0  0  0  0  0  0
    1.3427    0.0000    0.0000 C   0  0  0  0  0  0  0  0  0  0  0  0
    2.0976    0.0000    1.1859 C   0  0  1  0  0  0  0  0  0  0  0  0
    1.4089   -0.0067    2.4057 C   0  0  0  0  0  0  0  0  0  0  0  0
    0.0207   -0.0069    2.4074 C   0  0  0  0  0  0  0  0  0  0  0  0
   -0.6540   -0.0072    1.1745 C   0  0  0  0  0  0  0  0  0  0  0  0
    3.5842   -0.0301    1.1108 C   0  0  1  0  0  0  0  0  0  0  0  0
    3.9365   -0.1601    0.0504 H   0  0  0  0  0  0  0  0  0  0  0  0
    4.1426    1.3221    1.6278 N   0  0  0  0  0  0  0  0  0  0  0  0
    3.4486    1.7279    2.3037 H   0  0  0  0  0  0  0  0  0  0  0  0
    5.4461    1.0218    2.3621 C   0  0  0  0  0  0  0  0  0  0  0  0
    5.6022   -0.5029    2.4030 C   0  0  0  0  0  0  0  0  0  0  0  0
    4.2491   -1.0917    1.9955 C   0  0  0  0  0  0  0  0  0  0  0  0
    4.3491    2.2920    0.5054 C   0  0  0  0  0  0  0  0  0  0  0  0
    1.8128   -0.0095   -0.9941 H   0  0  0  0  0  0  0  0  0  0  0  0
    1.9495   -0.0258    3.3531 H   0  0  0  0  0  0  0  0  0  0  0  0
   -0.5405   -0.0158    3.3432 H   0  0  0  0  0  0  0  0  0  0  0  0
   -1.7552   -0.0172    1.1106 H   0  0  0  0  0  0  0  0  0  0  0  0
    6.3063    1.5042    1.8494 H   0  0  0  0  0  0  0  0  0  0  0  0
    5.3949    1.4590    3.3834 H   0  0  0  0  0  0  0  0  0  0  0  0
    6.4074   -0.8439    1.7207 H   0  0  0  0  0  0  0  0  0  0  0  0
    5.9109   -0.8561    3.4082 H   0  0  0  0  0  0  0  0  0  0  0  0
    4.3623   -2.0499    1.4460 H   0  0  0  0  0  0  0  0  0  0  0  0
    3.6374   -1.3542    2.8806 H   0  0  0  0  0  0  0  0  0  0  0  0
    5.0953    1.9227   -0.2240 H   0  0  0  0  0  0  0  0  0  0  0  0
    4.7023    3.2705    0.8853 H   0  0  0  0  0  0  0  0  0  0  0  0
    3.4031    2.4698   -0.0440 H   0  0  0  0  0  0  0  0  0  0  0  0
  1  2  2  0  0  0  0
  1  6  2  0  0  0  0
  3  2  1  6  0  0  0
  3  4  1  0  0  0  0
  4  5  2  0  0  0  0
  4 16  1  0  0  0  0
  5 17  1  0  0  0  0
  6  5  1  0  0  0  0
  7  8  1  6  0  0  0
  7  3  1  0  0  0  0
  7  9  1  0  0  0  0
  7 13  1  0  0  0  0
  9 10  1  0  0  0  0
  9 11  1  0  0  0  0
 11 12  1  0  0  0  0
 11 20  1  0  0  0  0
 12 22  1  0  0  0  0
 13 12  1  0  0  0  0
 13 24  1  0  0  0  0
 14 26  1  0  0  0  0
 14  9  1  0  0  0  0
 15  2  1  0  0  0  0
 18  6  1  0  0  0  0
 19 11  1  0  0  0  0
 21 12  1  0  0  0  0
 23 13  1  0  0  0  0
 25 14  1  0  0  0  0
 27 14  1  0  0  0  0
M  RAD  1   3   2
M  END
$$$$
