rmsd12.gzmat
 OpenBabel08211713363D

 27 28  0  0  1  0  0  0  0  0999 V2000
    0.0000    0.0000    0.0000 N   0  0  0  0  0  0  0  0  0  0  0  0
    1.3430    0.0000    0.0000 C   0  0  0  0  0  0  0  0  0  0  0  0
    2.0986    0.0000    1.1851 C   0  0  1  0  0  0  0  0  0  0  0  0
    1.4096   -0.0302    2.4047 C   0  0  0  0  0  0  0  0  0  0  0  0
    0.0215   -0.0355    2.4072 C   0  0  0  0  0  0  0  0  0  0  0  0
   -0.6540   -0.0156    1.1740 C   0  0  0  0  0  0  0  0  0  0  0  0
    3.5864   -0.0029    1.1116 C   0  0  1  0  0  0  0  0  0  0  0  0
    3.9441   -0.0656    0.0467 H   0  0  0  0  0  0  0  0  0  0  0  0
    4.1262    1.3219    1.7077 N   0  0  0  0  0  0  0  0  0  0  0  0
    3.4624    1.6405    2.4567 H   0  0  0  0  0  0  0  0  0  0  0  0
    5.4795    1.0087    2.3354 C   0  0  0  0  0  0  0  0  0  0  0  0
    5.5972   -0.5184    2.4175 C   0  0  0  0  0  0  0  0  0  0  0  0
    4.2619   -1.1012    1.9429 C   0  0  0  0  0  0  0  0  0  0  0  0
    4.2310    2.3890    0.6631 C   0  0  0  0  0  0  0  0  0  0  0  0
    1.8117   -0.0113   -0.9943 H   0  0  0  0  0  0  0  0  0  0  0  0
    1.9493   -0.0641    3.3522 H   0  0  0  0  0  0  0  0  0  0  0  0
   -0.5402   -0.0625    3.3425 H   0  0  0  0  0  0  0  0  0  0  0  0
   -1.7553   -0.0161    1.1101 H   0  0  0  0  0  0  0  0  0  0  0  0
    6.3027    1.4432    1.7271 H   0  0  0  0  0  0  0  0  0  0  0  0
    5.5369    1.4873    3.3374 H   0  0  0  0  0  0  0  0  0  0  0  0
    6.4376   -0.8875    1.7938 H   0  0  0  0  0  0  0  0  0  0  0  0
    5.8372   -0.8550    3.4464 H   0  0  0  0  0  0  0  0  0  0  0  0
    4.4058   -2.0220    1.3390 H   0  0  0  0  0  0  0  0  0  0  0  0
    3.6366   -1.4304    2.7960 H   0  0  0  0  0  0  0  0  0  0  0  0
    4.9639    2.1234   -0.1228 H   0  0  0  0  0  0  0  0  0  0  0  0
    4.5449    3.3536    1.1079 H   0  0  0  0  0  0  0  0  0  0  0  0
    3.2532    2.5535    0.1676 H   0  0  0  0  0  0  0  0  0  0  0  0
  1  6  2  0  0  0  0
  2  1  2  0  0  0  0
  3  2  1  6  0  0  0
  3  4  1  0  0  0  0
  4  5  2  0  0  0  0
  4 16  1  0  0  0  0
  5 17  1  0  0  0  0
  6  5  1  0  0  0  0
  7  8  1  6  0  0  0
  7  3  1  0  0  0  0
  7  9  1  0  0  0  0
  7 13  1  0  0  0  0
  9 11  1  0  0  0  0
  9 10  1  0  0  0  0
 11 12  1  0  0  0  0
 11 20  1  0  0  0  0
 12 22  1  0  0  0  0
 13 12  1  0  0  0  0
 13 24  1  0  0  0  0
 14 26  1  0  0  0  0
 14  9  1  0  0  0  0
 15  2  1  0  0  0  0
 18  6  1  0  0  0  0
 19 11  1  0  0  0  0
 21 12  1  0  0  0  0
 23 13  1  0  0  0  0
 25 14  1  0  0  0  0
 27 14  1  0  0  0  0
M  RAD  1   3   2
M  END
$$$$
