27
rmsd5.gzmat
N          0.00000        0.00000        0.00000
C          1.34260        0.00000        0.00000
C          2.09880        0.00000        1.18560
C          1.41140       -0.01680        2.40570
C          0.02290       -0.01780        2.40770
C         -0.65300       -0.01030        1.17500
C          3.58480       -0.01360        1.10490
H          3.93460       -0.11340        0.03980
N          4.14300        1.32280        1.65150
H          3.58500        1.59270        2.49920
C          5.57630        1.02130        2.06360
C          5.59930       -0.46410        2.44930
C          4.27580       -1.07970        1.96830
C          4.06290        2.41980        0.63840
H          1.81250       -0.00920       -0.99400
H          1.95300       -0.04300        3.35230
H         -0.53940       -0.03400        3.34310
H         -1.75420       -0.01750        1.11170
H          6.26900        1.22920        1.21760
H          5.87890        1.68550        2.90040
H          6.46960       -0.97800        1.99020
H          5.73060       -0.60500        3.54050
H          4.44440       -2.00880        1.38460
H          3.64800       -1.40520        2.82050
H          4.62200        2.17240       -0.28370
H          4.47530        3.36600        1.04050
H          3.00950        2.60830        0.34720
