31
rmsd221.gzmat
C          0.00000        0.00000        0.00000
O          1.35880        0.00000        0.00000
C          2.09460        0.00000        1.20550
C          1.64210       -1.08810        2.14280
O          0.77550       -1.90140        1.98090
O          2.38810       -1.04420        3.27350
C         -0.88180        0.44960        0.98290
Cl        -0.34490        1.05370        2.47650
C         -2.25130        0.39850        0.73460
Cl        -3.34430        0.95740        1.91310
C         -2.75360       -0.08050       -0.46540
C         -1.86020       -0.49000       -1.46370
C         -0.49540       -0.46210       -1.23590
C         -4.21300       -0.16890       -0.75240
O         -4.65140        0.25280       -1.79460
C         -5.08230       -0.80680        0.27110
C         -6.24220       -0.23210        0.59430
C         -4.58510       -2.08290        0.87000
C         -4.37420       -3.14850       -0.20790
H          2.09730        1.00560        1.67100
H          3.12540       -0.20420        0.82750
H          2.12870       -1.72420        3.94600
H         -2.25350       -0.83290       -2.42670
H          0.21110       -0.79770       -1.99600
H         -6.59430        0.68710        0.14310
H         -6.92540       -0.62950        1.32940
H         -5.29400       -2.46050        1.63600
H         -3.63400       -1.91190        1.41960
H         -5.29710       -3.33410       -0.77020
H         -4.05570       -4.09940        0.23470
H         -3.60250       -2.85000       -0.92760
