rmsd169.gzmat
 OpenBabel08211713433D

 31 31  0  0  0  0  0  0  0  0999 V2000
    0.0000    0.0000    0.0000 C   0  0  0  0  0  0  0  0  0  0  0  0
    1.3573    0.0000    0.0000 O   0  0  0  0  0  0  0  0  0  0  0  0
    2.1021    0.0000    1.1994 C   0  0  0  0  0  0  0  0  0  0  0  0
    1.7309   -1.1591    2.0870 C   0  0  0  0  0  0  0  0  0  0  0  0
    0.9604   -2.0519    1.8696 O   0  0  0  0  0  0  0  0  0  0  0  0
    2.4329   -1.0779    3.2442 O   0  0  0  0  0  0  0  0  0  0  0  0
   -0.8913    0.3441    1.0161 C   0  0  0  0  0  0  0  0  0  0  0  0
   -0.3690    0.7906    2.5695 Cl  0  0  0  0  0  0  0  0  0  0  0  0
   -2.2599    0.3163    0.7542 C   0  0  0  0  0  0  0  0  0  0  0  0
   -3.3539    0.7596    1.9796 Cl  0  0  0  0  0  0  0  0  0  0  0  0
   -2.7552   -0.0438   -0.4896 C   0  0  0  0  0  0  0  0  0  0  0  0
   -1.8505   -0.3618   -1.5131 C   0  0  0  0  0  0  0  0  0  0  0  0
   -0.4881   -0.3497   -1.2761 C   0  0  0  0  0  0  0  0  0  0  0  0
   -4.2074   -0.0931   -0.8167 C   0  0  0  0  0  0  0  0  0  0  0  0
   -4.5962    0.3127   -1.8850 O   0  0  0  0  0  0  0  0  0  0  0  0
   -5.1365   -0.6790    0.1848 C   0  0  0  0  0  0  0  0  0  0  0  0
   -6.2413   -0.0160    0.5302 C   0  0  0  0  0  0  0  0  0  0  0  0
   -4.7656   -2.0265    0.7159 C   0  0  0  0  0  0  0  0  0  0  0  0
   -5.0634   -3.1056   -0.3280 C   0  0  0  0  0  0  0  0  0  0  0  0
    2.0475    0.9813    1.7097 H   0  0  0  0  0  0  0  0  0  0  0  0
    3.1398   -0.1228    0.8043 H   0  0  0  0  0  0  0  0  0  0  0  0
    2.2248   -1.8047    3.8854 H   0  0  0  0  0  0  0  0  0  0  0  0
   -2.2370   -0.6191   -2.5058 H   0  0  0  0  0  0  0  0  0  0  0  0
    0.2230   -0.6106   -2.0608 H   0  0  0  0  0  0  0  0  0  0  0  0
   -6.5117    0.9459    0.1146 H   0  0  0  0  0  0  0  0  0  0  0  0
   -6.9568   -0.3806    1.2515 H   0  0  0  0  0  0  0  0  0  0  0  0
   -5.3169   -2.2457    1.6538 H   0  0  0  0  0  0  0  0  0  0  0  0
   -3.6924   -2.0636    0.9990 H   0  0  0  0  0  0  0  0  0  0  0  0
   -6.1306   -3.1346   -0.5781 H   0  0  0  0  0  0  0  0  0  0  0  0
   -4.7787   -4.0979    0.0387 H   0  0  0  0  0  0  0  0  0  0  0  0
   -4.5158   -2.9278   -1.2610 H   0  0  0  0  0  0  0  0  0  0  0  0
  1  2  1  0  0  0  0
  1  7  2  0  0  0  0
  2  3  1  0  0  0  0
  3 20  1  0  0  0  0
  3  4  1  0  0  0  0
  4  6  1  0  0  0  0
  5  4  2  0  0  0  0
  6 22  1  0  0  0  0
  7  8  1  0  0  0  0
  9  7  1  0  0  0  0
  9 10  1  0  0  0  0
 11  9  2  0  0  0  0
 12 13  2  0  0  0  0
 12 11  1  0  0  0  0
 13  1  1  0  0  0  0
 14 11  1  0  0  0  0
 14 16  1  0  0  0  0
 15 14  2  0  0  0  0
 16 17  2  0  0  0  0
 16 18  1  0  0  0  0
 17 26  1  0  0  0  0
 18 28  1  0  0  0  0
 18 27  1  0  0  0  0
 19 30  1  0  0  0  0
 19 18  1  0  0  0  0
 21  3  1  0  0  0  0
 23 12  1  0  0  0  0
 24 13  1  0  0  0  0
 25 17  1  0  0  0  0
 29 19  1  0  0  0  0
 31 19  1  0  0  0  0
M  END
$$$$
