31

C         -0.07290        0.34360        0.18250
O          1.25560        0.51720        0.44720
C          1.80130       -0.17760        1.54080
C          2.07600       -1.63920        1.22320
O          1.86130       -2.18870        0.17560
O          2.60690       -2.25400        2.29570
C         -1.05550        0.97340        0.97040
Cl        -0.56450        1.97520        2.30400
C         -2.41430        0.81600        0.65040
Cl        -3.62000        1.64740        1.59670
C         -2.80050        0.04050       -0.45190
C         -1.80450       -0.53400       -1.25350
C         -0.45780       -0.40440       -0.93330
C         -4.24070       -0.15570       -0.86890
O         -4.56380        0.13010       -2.00460
C         -5.20940       -0.76550        0.10990
C         -6.51620       -0.57150       -0.12380
C         -4.68970       -1.62800        1.23650
C         -4.07700       -2.94480        0.74150
H          1.16540       -0.12170        2.44060
H          2.75670        0.30660        1.79480
H          2.77310       -3.17920        2.04470
H         -2.11020       -1.10370       -2.13270
H          0.32590       -0.88210       -1.51950
H         -6.84080        0.02580       -0.97910
H         -7.28100       -0.99840        0.53060
H         -5.52210       -1.84270        1.92510
H         -3.94220       -1.07390        1.82420
H         -4.81770       -3.53950        0.18430
H         -3.71650       -3.55160        1.58710
H         -3.21970       -2.76490        0.07370
