
     RDKit          3D

 31 31  0  0  0  0  0  0  0  0999 V2000
   -0.0729    0.3436    0.1825 C   0  0  0  0  0  0  0  0  0  0  0  0
    1.2556    0.5172    0.4472 O   0  0  0  0  0  0  0  0  0  0  0  0
    1.8013   -0.1776    1.5408 C   0  0  0  0  0  0  0  0  0  0  0  0
    2.0760   -1.6392    1.2232 C   0  0  0  0  0  0  0  0  0  0  0  0
    1.8613   -2.1887    0.1756 O   0  0  0  0  0  0  0  0  0  0  0  0
    2.6069   -2.2540    2.2957 O   0  0  0  0  0  0  0  0  0  0  0  0
   -1.0555    0.9734    0.9704 C   0  0  0  0  0  0  0  0  0  0  0  0
   -0.5645    1.9752    2.3040 Cl  0  0  0  0  0  0  0  0  0  0  0  0
   -2.4143    0.8160    0.6504 C   0  0  0  0  0  0  0  0  0  0  0  0
   -3.6200    1.6474    1.5967 Cl  0  0  0  0  0  0  0  0  0  0  0  0
   -2.8005    0.0405   -0.4519 C   0  0  0  0  0  0  0  0  0  0  0  0
   -1.8045   -0.5340   -1.2535 C   0  0  0  0  0  0  0  0  0  0  0  0
   -0.4578   -0.4044   -0.9333 C   0  0  0  0  0  0  0  0  0  0  0  0
   -4.2407   -0.1557   -0.8689 C   0  0  0  0  0  0  0  0  0  0  0  0
   -4.5638    0.1301   -2.0046 O   0  0  0  0  0  0  0  0  0  0  0  0
   -5.2094   -0.7655    0.1099 C   0  0  0  0  0  0  0  0  0  0  0  0
   -6.5162   -0.5715   -0.1238 C   0  0  0  0  0  0  0  0  0  0  0  0
   -4.6897   -1.6280    1.2365 C   0  0  0  0  0  0  0  0  0  0  0  0
   -4.0770   -2.9448    0.7415 C   0  0  0  0  0  0  0  0  0  0  0  0
    1.1654   -0.1217    2.4406 H   0  0  0  0  0  0  0  0  0  0  0  0
    2.7567    0.3066    1.7948 H   0  0  0  0  0  0  0  0  0  0  0  0
    2.7731   -3.1792    2.0447 H   0  0  0  0  0  0  0  0  0  0  0  0
   -2.1102   -1.1037   -2.1327 H   0  0  0  0  0  0  0  0  0  0  0  0
    0.3259   -0.8821   -1.5195 H   0  0  0  0  0  0  0  0  0  0  0  0
   -6.8408    0.0258   -0.9791 H   0  0  0  0  0  0  0  0  0  0  0  0
   -7.2810   -0.9984    0.5306 H   0  0  0  0  0  0  0  0  0  0  0  0
   -5.5221   -1.8427    1.9251 H   0  0  0  0  0  0  0  0  0  0  0  0
   -3.9422   -1.0739    1.8242 H   0  0  0  0  0  0  0  0  0  0  0  0
   -4.8177   -3.5395    0.1843 H   0  0  0  0  0  0  0  0  0  0  0  0
   -3.7165   -3.5516    1.5871 H   0  0  0  0  0  0  0  0  0  0  0  0
   -3.2197   -2.7649    0.0737 H   0  0  0  0  0  0  0  0  0  0  0  0
  1  2  1  0
  1  7  2  0
  1 13  1  0
  2  3  1  0
  3  4  1  0
  3 20  1  0
  3 21  1  0
  4  5  2  0
  4  6  1  0
  6 22  1  0
  7  8  1  0
  7  9  1  0
  9 10  1  0
  9 11  2  0
 11 12  1  0
 11 14  1  0
 12 13  2  0
 12 23  1  0
 13 24  1  0
 14 15  2  0
 14 16  1  0
 16 17  2  3
 16 18  1  0
 17 25  1  0
 17 26  1  0
 18 19  1  0
 18 27  1  0
 18 28  1  0
 19 29  1  0
 19 30  1  0
 19 31  1  0
M  END

