31

C          0.00740        0.43080        0.35250
O          1.33760        0.62610        0.59390
C          1.97510       -0.24620        1.49310
C          2.31760       -1.58590        0.86010
O          2.08120       -1.91560       -0.27170
O          2.93840       -2.37560        1.75530
C         -0.96300        0.82640        1.29330
Cl        -0.45280        1.55690        2.78650
C         -2.32740        0.66250        1.00130
Cl        -3.52260        1.21350        2.14460
C         -2.72890        0.11280       -0.22470
C         -1.75040       -0.23250       -1.16520
C         -0.39650       -0.09510       -0.87730
C         -4.18160       -0.05850       -0.60300
O         -4.61830        0.51620       -1.58130
C         -5.03750       -0.99580        0.19180
C         -4.47280       -1.94800        0.95120
C         -6.52470       -0.82940        0.01910
C         -7.05720        0.43200        0.71220
H          1.38160       -0.42460        2.40590
H          2.91240        0.23540        1.81130
H          3.14490       -3.21350        1.30600
H         -2.06990       -0.62950       -2.13050
H          0.37910       -0.39790       -1.57950
H         -3.38870       -2.03280        1.05540
H         -5.08470       -2.67980        1.48610
H         -7.03730       -1.72210        0.41080
H         -6.74180       -0.76600       -1.05910
H         -6.86970        0.39640        1.79680
H         -8.14190        0.53550        0.55390
H         -6.57070        1.33530        0.31480
