rmsd81.gzmat
 OpenBabel08211713433D

 31 31  0  0  0  0  0  0  0  0999 V2000
    0.0000    0.0000    0.0000 C   0  0  0  0  0  0  0  0  0  0  0  0
    1.3587    0.0000    0.0000 O   0  0  0  0  0  0  0  0  0  0  0  0
    2.0981    0.0000    1.2028 C   0  0  0  0  0  0  0  0  0  0  0  0
    1.6518   -1.0894    2.1416 C   0  0  0  0  0  0  0  0  0  0  0  0
    0.7260   -1.8434    2.0279 O   0  0  0  0  0  0  0  0  0  0  0  0
    2.4866   -1.1275    3.2088 O   0  0  0  0  0  0  0  0  0  0  0  0
   -0.8810    0.4792    0.9691 C   0  0  0  0  0  0  0  0  0  0  0  0
   -0.3338    1.1232    2.4423 Cl  0  0  0  0  0  0  0  0  0  0  0  0
   -2.2518    0.4233    0.7248 C   0  0  0  0  0  0  0  0  0  0  0  0
   -3.3288    1.0309    1.8917 Cl  0  0  0  0  0  0  0  0  0  0  0  0
   -2.7572   -0.0935   -0.4591 C   0  0  0  0  0  0  0  0  0  0  0  0
   -1.8607   -0.5290   -1.4463 C   0  0  0  0  0  0  0  0  0  0  0  0
   -0.4960   -0.4945   -1.2225 C   0  0  0  0  0  0  0  0  0  0  0  0
   -4.2096   -0.2118   -0.7665 C   0  0  0  0  0  0  0  0  0  0  0  0
   -4.6081    0.0451   -1.8775 O   0  0  0  0  0  0  0  0  0  0  0  0
   -5.1269   -0.7110    0.2925 C   0  0  0  0  0  0  0  0  0  0  0  0
   -4.7574   -1.6882    1.1221 C   0  0  0  0  0  0  0  0  0  0  0  0
   -6.4866   -0.0892    0.2833 C   0  0  0  0  0  0  0  0  0  0  0  0
   -6.4237    1.4232    0.5078 C   0  0  0  0  0  0  0  0  0  0  0  0
    2.1025    1.0034    1.6720 H   0  0  0  0  0  0  0  0  0  0  0  0
    3.1269   -0.2006    0.8172 H   0  0  0  0  0  0  0  0  0  0  0  0
    2.2458   -1.8186    3.8773 H   0  0  0  0  0  0  0  0  0  0  0  0
   -2.2559   -0.8998   -2.3993 H   0  0  0  0  0  0  0  0  0  0  0  0
    0.2105   -0.8510   -1.9730 H   0  0  0  0  0  0  0  0  0  0  0  0
   -3.7776   -2.1467    1.1168 H   0  0  0  0  0  0  0  0  0  0  0  0
   -5.4043   -2.1043    1.8806 H   0  0  0  0  0  0  0  0  0  0  0  0
   -7.1417   -0.5534    1.0477 H   0  0  0  0  0  0  0  0  0  0  0  0
   -6.9720   -0.2974   -0.6983 H   0  0  0  0  0  0  0  0  0  0  0  0
   -6.0326    1.6698    1.5002 H   0  0  0  0  0  0  0  0  0  0  0  0
   -7.4190    1.8741    0.4265 H   0  0  0  0  0  0  0  0  0  0  0  0
   -5.7859    1.9144   -0.2383 H   0  0  0  0  0  0  0  0  0  0  0  0
  1  2  1  0  0  0  0
  1  7  2  0  0  0  0
  2  3  1  0  0  0  0
  3 20  1  0  0  0  0
  3  4  1  0  0  0  0
  4  6  1  0  0  0  0
  5  4  2  0  0  0  0
  6 22  1  0  0  0  0
  7  8  1  0  0  0  0
  9  7  1  0  0  0  0
  9 10  1  0  0  0  0
 11  9  2  0  0  0  0
 12 13  2  0  0  0  0
 12 11  1  0  0  0  0
 13  1  1  0  0  0  0
 14 11  1  0  0  0  0
 14 16  1  0  0  0  0
 15 14  2  0  0  0  0
 16 17  2  0  0  0  0
 17 26  1  0  0  0  0
 18 16  1  0  0  0  0
 18 19  1  0  0  0  0
 18 27  1  0  0  0  0
 19 29  1  0  0  0  0
 21  3  1  0  0  0  0
 23 12  1  0  0  0  0
 24 13  1  0  0  0  0
 25 17  1  0  0  0  0
 28 18  1  0  0  0  0
 30 19  1  0  0  0  0
 31 19  1  0  0  0  0
M  END
$$$$
