rmsd28.gzmat
 OpenBabel08211713433D

 31 31  0  0  0  0  0  0  0  0999 V2000
    0.0000    0.0000    0.0000 C   0  0  0  0  0  0  0  0  0  0  0  0
    1.3588    0.0000    0.0000 O   0  0  0  0  0  0  0  0  0  0  0  0
    2.0935    0.0000    1.2065 C   0  0  0  0  0  0  0  0  0  0  0  0
    1.6349   -1.0836    2.1466 C   0  0  0  0  0  0  0  0  0  0  0  0
    0.7830   -1.9104    1.9744 O   0  0  0  0  0  0  0  0  0  0  0  0
    2.3558   -1.0182    3.2929 O   0  0  0  0  0  0  0  0  0  0  0  0
   -0.8815    0.4476    0.9839 C   0  0  0  0  0  0  0  0  0  0  0  0
   -0.3421    1.0633    2.4720 Cl  0  0  0  0  0  0  0  0  0  0  0  0
   -2.2519    0.3859    0.7410 C   0  0  0  0  0  0  0  0  0  0  0  0
   -3.3427    0.9304    1.9262 Cl  0  0  0  0  0  0  0  0  0  0  0  0
   -2.7556   -0.0947   -0.4577 C   0  0  0  0  0  0  0  0  0  0  0  0
   -1.8615   -0.4988   -1.4587 C   0  0  0  0  0  0  0  0  0  0  0  0
   -0.4963   -0.4644   -1.2346 C   0  0  0  0  0  0  0  0  0  0  0  0
   -4.2138   -0.1910   -0.7493 C   0  0  0  0  0  0  0  0  0  0  0  0
   -4.6479    0.2446   -1.7881 O   0  0  0  0  0  0  0  0  0  0  0  0
   -5.0840   -0.8848    0.2368 C   0  0  0  0  0  0  0  0  0  0  0  0
   -4.6324   -1.9122    0.9591 C   0  0  0  0  0  0  0  0  0  0  0  0
   -6.4903   -0.3797    0.3078 C   0  0  0  0  0  0  0  0  0  0  0  0
   -6.6154    0.7497    1.3337 C   0  0  0  0  0  0  0  0  0  0  0  0
    2.1011    1.0070    1.6684 H   0  0  0  0  0  0  0  0  0  0  0  0
    3.1233   -0.2116    0.8298 H   0  0  0  0  0  0  0  0  0  0  0  0
    2.0902   -1.6957    3.9664 H   0  0  0  0  0  0  0  0  0  0  0  0
   -2.2551   -0.8456   -2.4203 H   0  0  0  0  0  0  0  0  0  0  0  0
    0.2097   -0.7970   -1.9968 H   0  0  0  0  0  0  0  0  0  0  0  0
   -3.6190   -2.2868    0.9129 H   0  0  0  0  0  0  0  0  0  0  0  0
   -5.2459   -2.4585    1.6614 H   0  0  0  0  0  0  0  0  0  0  0  0
   -7.1893   -1.2020    0.5645 H   0  0  0  0  0  0  0  0  0  0  0  0
   -6.8204   -0.0169   -0.6921 H   0  0  0  0  0  0  0  0  0  0  0  0
   -6.2855    0.4270    2.3279 H   0  0  0  0  0  0  0  0  0  0  0  0
   -7.6542    1.0874    1.4224 H   0  0  0  0  0  0  0  0  0  0  0  0
   -6.0139    1.6213    1.0473 H   0  0  0  0  0  0  0  0  0  0  0  0
  1  7  2  0  0  0  0
  2  1  1  0  0  0  0
  2  3  1  0  0  0  0
  3 20  1  0  0  0  0
  3  4  1  0  0  0  0
  4  6  1  0  0  0  0
  5  4  2  0  0  0  0
  6 22  1  0  0  0  0
  7  8  1  0  0  0  0
  9  7  1  0  0  0  0
  9 10  1  0  0  0  0
 11  9  2  0  0  0  0
 12 13  2  0  0  0  0
 12 11  1  0  0  0  0
 13  1  1  0  0  0  0
 14 11  1  0  0  0  0
 14 16  1  0  0  0  0
 15 14  2  0  0  0  0
 16 18  1  0  0  0  0
 16 17  2  0  0  0  0
 17 26  1  0  0  0  0
 18 27  1  0  0  0  0
 18 19  1  0  0  0  0
 19 30  1  0  0  0  0
 19 29  1  0  0  0  0
 21  3  1  0  0  0  0
 23 12  1  0  0  0  0
 24 13  1  0  0  0  0
 25 17  1  0  0  0  0
 28 18  1  0  0  0  0
 31 19  1  0  0  0  0
M  END
$$$$
