rmsd249.gzmat
 OpenBabel08211713433D

 31 31  0  0  0  0  0  0  0  0999 V2000
    0.0000    0.0000    0.0000 C   0  0  0  0  0  0  0  0  0  0  0  0
    1.3564    0.0000    0.0000 O   0  0  0  0  0  0  0  0  0  0  0  0
    2.1048    0.0000    1.1968 C   0  0  0  0  0  0  0  0  0  0  0  0
    1.8181   -1.2231    2.0296 C   0  0  0  0  0  0  0  0  0  0  0  0
    1.1223   -2.1633    1.7689 O   0  0  0  0  0  0  0  0  0  0  0  0
    2.5079   -1.1350    3.1949 O   0  0  0  0  0  0  0  0  0  0  0  0
   -0.8967    0.2353    1.0416 C   0  0  0  0  0  0  0  0  0  0  0  0
   -0.3922    0.5030    2.6410 Cl  0  0  0  0  0  0  0  0  0  0  0  0
   -2.2634    0.2448    0.7669 C   0  0  0  0  0  0  0  0  0  0  0  0
   -3.3746    0.4840    2.0316 Cl  0  0  0  0  0  0  0  0  0  0  0  0
   -2.7486    0.0506   -0.5164 C   0  0  0  0  0  0  0  0  0  0  0  0
   -1.8427   -0.2190   -1.5522 C   0  0  0  0  0  0  0  0  0  0  0  0
   -0.4823   -0.2370   -1.3054 C   0  0  0  0  0  0  0  0  0  0  0  0
   -4.1973    0.1030   -0.8589 C   0  0  0  0  0  0  0  0  0  0  0  0
   -4.6934   -0.7694   -1.5289 O   0  0  0  0  0  0  0  0  0  0  0  0
   -4.9769    1.2892   -0.4108 C   0  0  0  0  0  0  0  0  0  0  0  0
   -4.4124    2.4947   -0.3186 C   0  0  0  0  0  0  0  0  0  0  0  0
   -6.4235    1.0288   -0.1379 C   0  0  0  0  0  0  0  0  0  0  0  0
   -6.6124    0.2950    1.1914 C   0  0  0  0  0  0  0  0  0  0  0  0
    1.9857    0.9493    1.7530 H   0  0  0  0  0  0  0  0  0  0  0  0
    3.1463   -0.0341    0.7952 H   0  0  0  0  0  0  0  0  0  0  0  0
    2.3564   -1.9020    3.8039 H   0  0  0  0  0  0  0  0  0  0  0  0
   -2.2249   -0.4215   -2.5585 H   0  0  0  0  0  0  0  0  0  0  0  0
    0.2335   -0.4436   -2.1022 H   0  0  0  0  0  0  0  0  0  0  0  0
   -3.3704    2.6919   -0.5245 H   0  0  0  0  0  0  0  0  0  0  0  0
   -4.9526    3.3828   -0.0250 H   0  0  0  0  0  0  0  0  0  0  0  0
   -6.8556    0.4200   -0.9649 H   0  0  0  0  0  0  0  0  0  0  0  0
   -7.0026    1.9741   -0.1299 H   0  0  0  0  0  0  0  0  0  0  0  0
   -6.0843   -0.6670    1.1976 H   0  0  0  0  0  0  0  0  0  0  0  0
   -7.6721    0.0852    1.3765 H   0  0  0  0  0  0  0  0  0  0  0  0
   -6.2414    0.8883    2.0345 H   0  0  0  0  0  0  0  0  0  0  0  0
  1  2  1  0  0  0  0
  1  7  2  0  0  0  0
  2  3  1  0  0  0  0
  3 20  1  0  0  0  0
  3  4  1  0  0  0  0
  4  6  1  0  0  0  0
  5  4  2  0  0  0  0
  6 22  1  0  0  0  0
  7  8  1  0  0  0  0
  9  7  1  0  0  0  0
  9 10  1  0  0  0  0
 11  9  2  0  0  0  0
 12 13  2  0  0  0  0
 12 11  1  0  0  0  0
 13  1  1  0  0  0  0
 14 11  1  0  0  0  0
 14 16  1  0  0  0  0
 15 14  2  0  0  0  0
 16 17  2  0  0  0  0
 16 18  1  0  0  0  0
 17 26  1  0  0  0  0
 18 28  1  0  0  0  0
 18 19  1  0  0  0  0
 19 29  1  0  0  0  0
 19 30  1  0  0  0  0
 19 31  1  0  0  0  0
 21  3  1  0  0  0  0
 23 12  1  0  0  0  0
 24 13  1  0  0  0  0
 25 17  1  0  0  0  0
 27 18  1  0  0  0  0
M  END
$$$$
