31
rmsd81.gzmat
C          0.00000        0.00000        0.00000
O          1.35870        0.00000        0.00000
C          2.09810        0.00000        1.20280
C          1.65180       -1.08940        2.14160
O          0.72600       -1.84340        2.02790
O          2.48660       -1.12750        3.20880
C         -0.88100        0.47920        0.96910
Cl        -0.33380        1.12320        2.44230
C         -2.25180        0.42330        0.72480
Cl        -3.32880        1.03090        1.89170
C         -2.75720       -0.09350       -0.45910
C         -1.86070       -0.52900       -1.44630
C         -0.49600       -0.49450       -1.22250
C         -4.20960       -0.21180       -0.76650
O         -4.60810        0.04510       -1.87750
C         -5.12690       -0.71100        0.29250
C         -4.75740       -1.68820        1.12210
C         -6.48660       -0.08920        0.28330
C         -6.42370        1.42320        0.50780
H          2.10250        1.00340        1.67200
H          3.12690       -0.20060        0.81720
H          2.24580       -1.81860        3.87730
H         -2.25590       -0.89980       -2.39930
H          0.21050       -0.85100       -1.97300
H         -3.77760       -2.14670        1.11680
H         -5.40430       -2.10430        1.88060
H         -7.14170       -0.55340        1.04770
H         -6.97200       -0.29740       -0.69830
H         -6.03260        1.66980        1.50020
H         -7.41900        1.87410        0.42650
H         -5.78590        1.91440       -0.23830
