rmsd52.gzmat
 OpenBabel08211713433D

 31 31  0  0  0  0  0  0  0  0999 V2000
    0.0000    0.0000    0.0000 C   0  0  0  0  0  0  0  0  0  0  0  0
    1.3563    0.0000    0.0000 O   0  0  0  0  0  0  0  0  0  0  0  0
    2.1061    0.0000    1.1949 C   0  0  0  0  0  0  0  0  0  0  0  0
    1.9397    1.2996    1.9403 C   0  0  0  0  0  0  0  0  0  0  0  0
    1.3720    2.2976    1.5963 O   0  0  0  0  0  0  0  0  0  0  0  0
    2.5801    1.2095    3.1335 O   0  0  0  0  0  0  0  0  0  0  0  0
   -0.9024   -0.0886    1.0589 C   0  0  0  0  0  0  0  0  0  0  0  0
   -0.4101   -0.1431    2.6828 Cl  0  0  0  0  0  0  0  0  0  0  0  0
   -2.2688   -0.1149    0.7810 C   0  0  0  0  0  0  0  0  0  0  0  0
   -3.3859   -0.2892    2.0526 Cl  0  0  0  0  0  0  0  0  0  0  0  0
   -2.7487   -0.0301   -0.5154 C   0  0  0  0  0  0  0  0  0  0  0  0
   -1.8358    0.0515   -1.5761 C   0  0  0  0  0  0  0  0  0  0  0  0
   -0.4761    0.0721   -1.3275 C   0  0  0  0  0  0  0  0  0  0  0  0
   -4.2024   -0.0388   -0.8394 C   0  0  0  0  0  0  0  0  0  0  0  0
   -4.6390   -0.8041   -1.6626 O   0  0  0  0  0  0  0  0  0  0  0  0
   -5.0642    0.9526   -0.1448 C   0  0  0  0  0  0  0  0  0  0  0  0
   -6.1571    0.5464    0.5024 C   0  0  0  0  0  0  0  0  0  0  0  0
   -4.6405    2.3835   -0.2534 C   0  0  0  0  0  0  0  0  0  0  0  0
   -4.0475    2.8930    1.0623 C   0  0  0  0  0  0  0  0  0  0  0  0
    3.1448   -0.0886    0.7930 H   0  0  0  0  0  0  0  0  0  0  0  0
    1.9054   -0.8955    1.8135 H   0  0  0  0  0  0  0  0  0  0  0  0
    2.5038    2.0270    3.6875 H   0  0  0  0  0  0  0  0  0  0  0  0
   -2.2108    0.0924   -2.6041 H   0  0  0  0  0  0  0  0  0  0  0  0
    0.2460    0.1433   -2.1424 H   0  0  0  0  0  0  0  0  0  0  0  0
   -6.4644   -0.4889    0.5637 H   0  0  0  0  0  0  0  0  0  0  0  0
   -6.8241    1.2183    1.0226 H   0  0  0  0  0  0  0  0  0  0  0  0
   -5.5134    3.0095   -0.5383 H   0  0  0  0  0  0  0  0  0  0  0  0
   -3.9051    2.5251   -1.0723 H   0  0  0  0  0  0  0  0  0  0  0  0
   -4.6996    2.6639    1.9133 H   0  0  0  0  0  0  0  0  0  0  0  0
   -3.9025    3.9788    1.0385 H   0  0  0  0  0  0  0  0  0  0  0  0
   -3.0682    2.4455    1.2662 H   0  0  0  0  0  0  0  0  0  0  0  0
  1  2  1  0  0  0  0
  1  7  2  0  0  0  0
  2  3  1  0  0  0  0
  3 21  1  0  0  0  0
  3  4  1  0  0  0  0
  4  6  1  0  0  0  0
  5  4  2  0  0  0  0
  6 22  1  0  0  0  0
  7  8  1  0  0  0  0
  9  7  1  0  0  0  0
  9 10  1  0  0  0  0
 11  9  2  0  0  0  0
 12 13  2  0  0  0  0
 12 11  1  0  0  0  0
 13  1  1  0  0  0  0
 14 11  1  0  0  0  0
 14 16  1  0  0  0  0
 15 14  2  0  0  0  0
 16 17  2  0  0  0  0
 17 25  1  0  0  0  0
 17 26  1  0  0  0  0
 18 16  1  0  0  0  0
 18 19  1  0  0  0  0
 19 31  1  0  0  0  0
 19 29  1  0  0  0  0
 20  3  1  0  0  0  0
 23 12  1  0  0  0  0
 24 13  1  0  0  0  0
 27 18  1  0  0  0  0
 28 18  1  0  0  0  0
 30 19  1  0  0  0  0
M  END
$$$$
