31

C          0.02360        0.35010        0.20620
O          1.38030        0.33250        0.36660
C          1.90120       -0.39040        1.45360
C          1.94360       -1.88770        1.19070
O          1.57660       -2.44180        0.18870
O          2.46160       -2.52980        2.25360
C         -0.78970        1.15900        1.02300
Cl        -0.05330        2.12960        2.26350
C         -2.17710        1.20070        0.80510
Cl        -3.17350        2.24060        1.78610
C         -2.75600        0.44660       -0.22490
C         -1.92640       -0.32030       -1.05220
C         -0.55420       -0.38490       -0.83200
C         -4.23780        0.48410       -0.52730
O         -4.61760        0.94010       -1.58870
C         -5.20010       -0.10210        0.45580
C         -4.75870       -0.86800        1.46700
C         -6.66350        0.14600        0.18260
C         -7.23110       -0.75060       -0.92660
H          1.34710       -0.20850        2.39020
H          2.93140       -0.03970        1.61950
H          2.47760       -3.47820        2.03750
H         -2.37740       -0.88350       -1.87120
H          0.10130       -1.00710       -1.43980
H         -3.69470       -1.05790        1.62440
H         -5.45730       -1.33260        2.16870
H         -6.79330        1.20140       -0.10600
H         -7.22870       -0.01040        1.11530
H         -6.70020       -0.57740       -1.87310
H         -8.29970       -0.53890       -1.08930
H         -7.13110       -1.81530       -0.66130
