
     RDKit          3D

 31 31  0  0  0  0  0  0  0  0999 V2000
    0.0273    0.4599    0.4730 C   0  0  0  0  0  0  0  0  0  0  0  0
    1.3672    0.6703    0.6378 O   0  0  0  0  0  0  0  0  0  0  0  0
    2.0387   -0.1231    1.5847 C   0  0  0  0  0  0  0  0  0  0  0  0
    2.3974   -1.4987    1.0430 C   0  0  0  0  0  0  0  0  0  0  0  0
    2.1585   -1.9101   -0.0613 O   0  0  0  0  0  0  0  0  0  0  0  0
    3.0399   -2.2129    1.9845 O   0  0  0  0  0  0  0  0  0  0  0  0
   -0.8985    0.9965    1.3883 C   0  0  0  0  0  0  0  0  0  0  0  0
   -0.3151    1.8719    2.7723 Cl  0  0  0  0  0  0  0  0  0  0  0  0
   -2.2758    0.8289    1.1686 C   0  0  0  0  0  0  0  0  0  0  0  0
   -3.4150    1.4467    2.3349 Cl  0  0  0  0  0  0  0  0  0  0  0  0
   -2.7340    0.1366    0.0387 C   0  0  0  0  0  0  0  0  0  0  0  0
   -1.7980   -0.4130   -0.8458 C   0  0  0  0  0  0  0  0  0  0  0  0
   -0.4317   -0.2472   -0.6412 C   0  0  0  0  0  0  0  0  0  0  0  0
   -4.2036   -0.0975   -0.2270 C   0  0  0  0  0  0  0  0  0  0  0  0
   -4.6330   -1.2344   -0.2603 O   0  0  0  0  0  0  0  0  0  0  0  0
   -5.0872    1.0759   -0.5153 C   0  0  0  0  0  0  0  0  0  0  0  0
   -4.5536    2.2467   -0.8988 C   0  0  0  0  0  0  0  0  0  0  0  0
   -6.5680    0.8233   -0.4021 C   0  0  0  0  0  0  0  0  0  0  0  0
   -7.0285    0.6884    1.0557 C   0  0  0  0  0  0  0  0  0  0  0  0
    1.4643   -0.2462    2.5186 H   0  0  0  0  0  0  0  0  0  0  0  0
    2.9723    0.3964    1.8501 H   0  0  0  0  0  0  0  0  0  0  0  0
    3.2544   -3.0778    1.5942 H   0  0  0  0  0  0  0  0  0  0  0  0
   -2.1599   -0.9797   -1.7057 H   0  0  0  0  0  0  0  0  0  0  0  0
    0.3117   -0.6740   -1.3133 H   0  0  0  0  0  0  0  0  0  0  0  0
   -3.4729    2.3938   -0.9615 H   0  0  0  0  0  0  0  0  0  0  0  0
   -5.1890    3.0941   -1.1708 H   0  0  0  0  0  0  0  0  0  0  0  0
   -6.8020   -0.1088   -0.9408 H   0  0  0  0  0  0  0  0  0  0  0  0
   -7.1142    1.6412   -0.8977 H   0  0  0  0  0  0  0  0  0  0  0  0
   -6.5082   -0.1407    1.5580 H   0  0  0  0  0  0  0  0  0  0  0  0
   -8.1102    0.4883    1.1062 H   0  0  0  0  0  0  0  0  0  0  0  0
   -6.8223    1.6099    1.6222 H   0  0  0  0  0  0  0  0  0  0  0  0
  1  2  1  0
  1  7  2  0
  1 13  1  0
  2  3  1  0
  3  4  1  0
  3 20  1  0
  3 21  1  0
  4  5  2  0
  4  6  1  0
  6 22  1  0
  7  8  1  0
  7  9  1  0
  9 10  1  0
  9 11  2  0
 11 12  1  0
 11 14  1  0
 12 13  2  0
 12 23  1  0
 13 24  1  0
 14 15  2  0
 14 16  1  0
 16 17  2  3
 16 18  1  0
 17 25  1  0
 17 26  1  0
 18 19  1  0
 18 27  1  0
 18 28  1  0
 19 29  1  0
 19 30  1  0
 19 31  1  0
M  END

