42
rmsd80.gzmat
O          0.00000        0.00000        0.00000
C          1.35170        0.00000        0.00000
O          1.98800        0.00000        1.01980
C          1.89110       -0.05630       -1.37810
C          2.81190       -1.07290       -1.64550
C          3.39390       -1.16890       -2.90680
C          3.07180       -0.24070       -3.89620
C          2.16430        0.78050       -3.62610
C          1.56380        0.86720       -2.36820
C          0.62250        2.01000       -2.16790
O          0.99200        3.16940       -2.24780
N         -0.70950        1.68330       -2.03550
C         -1.69170        2.74940       -1.81860
C         -2.09960        2.88250       -0.33640
C         -0.93240        2.94800        0.57180
N          0.16100        3.80130        0.39050
H          0.38640        4.28830       -0.45720
C          1.04470        3.54690        1.43710
C          0.43980        2.57610        2.24340
N         -0.77810        2.20830        1.69270
H         -0.40660        0.22830        0.89490
C          1.05370        2.02770        3.47000
C          2.56590        2.33090        3.43480
C          2.83970        3.80250        3.08210
C          2.37770        4.13990        1.64780
H          3.07830       -1.78490       -0.86110
H          4.10690       -1.96480       -3.11700
H          3.53480       -0.30890       -4.87970
H          1.92470        1.52150       -4.39150
H         -0.96450        0.75520       -1.70940
H         -2.59110        2.51850       -2.43610
H         -1.28740        3.71720       -2.20000
H         -2.74350        2.02220       -0.03610
H         -2.74110        3.78160       -0.20430
H          0.58230        2.47300        4.36950
H          0.88440        0.93310        3.54520
H          3.02150        2.08090        4.40810
H          3.04780        1.66860        2.68570
H          3.91710        4.02260        3.18570
H          2.31450        4.45850        3.80180
H          3.10320        3.73240        0.90920
H          2.37350        5.23710        1.49410
