rmsd80.gzmat
 OpenBabel08211713363D

 42 44  0  0  1  0  0  0  0  0999 V2000
    0.0000    0.0000    0.0000 O   0  0  0  0  0  0  0  0  0  0  0  0
    1.3517    0.0000    0.0000 C   0  0  0  0  0  0  0  0  0  0  0  0
    1.9880    0.0000    1.0198 O   0  0  0  0  0  0  0  0  0  0  0  0
    1.8911   -0.0563   -1.3781 C   0  0  0  0  0  0  0  0  0  0  0  0
    2.8119   -1.0729   -1.6455 C   0  0  0  0  0  0  0  0  0  0  0  0
    3.3939   -1.1689   -2.9068 C   0  0  0  0  0  0  0  0  0  0  0  0
    3.0718   -0.2407   -3.8962 C   0  0  0  0  0  0  0  0  0  0  0  0
    2.1643    0.7805   -3.6261 C   0  0  0  0  0  0  0  0  0  0  0  0
    1.5638    0.8672   -2.3682 C   0  0  0  0  0  0  0  0  0  0  0  0
    0.6225    2.0100   -2.1679 C   0  0  0  0  0  0  0  0  0  0  0  0
    0.9920    3.1694   -2.2478 O   0  0  0  0  0  0  0  0  0  0  0  0
   -0.7095    1.6833   -2.0355 N   0  0  0  0  0  0  0  0  0  0  0  0
   -1.6917    2.7494   -1.8186 C   0  0  0  0  0  0  0  0  0  0  0  0
   -2.0996    2.8825   -0.3364 C   0  0  0  0  0  0  0  0  0  0  0  0
   -0.9324    2.9480    0.5718 C   0  0  0  0  0  0  0  0  0  0  0  0
    0.1610    3.8013    0.3905 N   0  0  0  0  0  0  0  0  0  0  0  0
    0.3864    4.2883   -0.4572 H   0  0  0  0  0  0  0  0  0  0  0  0
    1.0447    3.5469    1.4371 C   0  0  1  0  0  0  0  0  0  0  0  0
    0.4398    2.5761    2.2434 C   0  0  0  0  0  0  0  0  0  0  0  0
   -0.7781    2.2083    1.6927 N   0  0  0  0  0  0  0  0  0  0  0  0
   -0.4066    0.2283    0.8949 H   0  0  0  0  0  0  0  0  0  0  0  0
    1.0537    2.0277    3.4700 C   0  0  0  0  0  0  0  0  0  0  0  0
    2.5659    2.3309    3.4348 C   0  0  0  0  0  0  0  0  0  0  0  0
    2.8397    3.8025    3.0821 C   0  0  0  0  0  0  0  0  0  0  0  0
    2.3777    4.1399    1.6478 C   0  0  0  0  0  0  0  0  0  0  0  0
    3.0783   -1.7849   -0.8611 H   0  0  0  0  0  0  0  0  0  0  0  0
    4.1069   -1.9648   -3.1170 H   0  0  0  0  0  0  0  0  0  0  0  0
    3.5348   -0.3089   -4.8797 H   0  0  0  0  0  0  0  0  0  0  0  0
    1.9247    1.5215   -4.3915 H   0  0  0  0  0  0  0  0  0  0  0  0
   -0.9645    0.7552   -1.7094 H   0  0  0  0  0  0  0  0  0  0  0  0
   -2.5911    2.5185   -2.4361 H   0  0  0  0  0  0  0  0  0  0  0  0
   -1.2874    3.7172   -2.2000 H   0  0  0  0  0  0  0  0  0  0  0  0
   -2.7435    2.0222   -0.0361 H   0  0  0  0  0  0  0  0  0  0  0  0
   -2.7411    3.7816   -0.2043 H   0  0  0  0  0  0  0  0  0  0  0  0
    0.5823    2.4730    4.3695 H   0  0  0  0  0  0  0  0  0  0  0  0
    0.8844    0.9331    3.5452 H   0  0  0  0  0  0  0  0  0  0  0  0
    3.0215    2.0809    4.4081 H   0  0  0  0  0  0  0  0  0  0  0  0
    3.0478    1.6686    2.6857 H   0  0  0  0  0  0  0  0  0  0  0  0
    3.9171    4.0226    3.1857 H   0  0  0  0  0  0  0  0  0  0  0  0
    2.3145    4.4585    3.8018 H   0  0  0  0  0  0  0  0  0  0  0  0
    3.1032    3.7324    0.9092 H   0  0  0  0  0  0  0  0  0  0  0  0
    2.3735    5.2371    1.4941 H   0  0  0  0  0  0  0  0  0  0  0  0
  1  2  1  0  0  0  0
  1 21  1  0  0  0  0
  2  3  2  0  0  0  0
  4  2  1  0  0  0  0
  5  4  1  0  0  0  0
  5 26  1  0  0  0  0
  6  5  2  0  0  0  0
  7  8  2  0  0  0  0
  7  6  1  0  0  0  0
  8  9  1  0  0  0  0
  9 10  1  0  0  0  0
  9  4  2  0  0  0  0
 10 12  1  0  0  0  0
 11 10  2  0  0  0  0
 12 13  1  0  0  0  0
 12 30  1  0  0  0  0
 13 14  1  0  0  0  0
 14 34  1  0  0  0  0
 14 33  1  0  0  0  0
 14 15  1  0  0  0  0
 15 20  2  0  0  0  0
 16 15  1  0  0  0  0
 16 18  1  0  0  0  0
 17 16  1  0  0  0  0
 18 25  1  0  0  0  0
 18 19  1  6  0  0  0
 19 22  1  0  0  0  0
 20 19  2  0  0  0  0
 22 36  1  0  0  0  0
 22 35  1  0  0  0  0
 23 22  1  0  0  0  0
 23 37  1  0  0  0  0
 24 39  1  0  0  0  0
 24 23  1  0  0  0  0
 24 40  1  0  0  0  0
 25 24  1  0  0  0  0
 27  6  1  0  0  0  0
 28  7  1  0  0  0  0
 29  8  1  0  0  0  0
 31 13  1  0  0  0  0
 32 13  1  0  0  0  0
 38 23  1  0  0  0  0
 41 25  1  0  0  0  0
 42 25  1  0  0  0  0
M  RAD  1  18   2
M  END
$$$$
