rmsd71.gzmat
 OpenBabel08211713363D

 42 44  0  0  1  0  0  0  0  0999 V2000
    0.0000    0.0000    0.0000 O   0  0  0  0  0  0  0  0  0  0  0  0
    1.3518    0.0000    0.0000 C   0  0  0  0  0  0  0  0  0  0  0  0
    1.9873    0.0000    1.0202 O   0  0  0  0  0  0  0  0  0  0  0  0
    1.8899   -0.0587   -1.3783 C   0  0  0  0  0  0  0  0  0  0  0  0
    2.8161   -1.0709   -1.6429 C   0  0  0  0  0  0  0  0  0  0  0  0
    3.3918   -1.1724   -2.9065 C   0  0  0  0  0  0  0  0  0  0  0  0
    3.0567   -0.2558   -3.9024 C   0  0  0  0  0  0  0  0  0  0  0  0
    2.1426    0.7608   -3.6363 C   0  0  0  0  0  0  0  0  0  0  0  0
    1.5517    0.8542   -2.3743 C   0  0  0  0  0  0  0  0  0  0  0  0
    0.6033    1.9893   -2.1692 C   0  0  0  0  0  0  0  0  0  0  0  0
    0.9662    3.1518   -2.2260 O   0  0  0  0  0  0  0  0  0  0  0  0
   -0.7272    1.6501   -2.0543 N   0  0  0  0  0  0  0  0  0  0  0  0
   -1.7188    2.7042   -1.8238 C   0  0  0  0  0  0  0  0  0  0  0  0
   -2.1521    2.7926   -0.3465 C   0  0  0  0  0  0  0  0  0  0  0  0
   -1.0060    2.8794    0.5869 C   0  0  0  0  0  0  0  0  0  0  0  0
    0.0934    3.7274    0.4174 N   0  0  0  0  0  0  0  0  0  0  0  0
    0.3392    4.2043   -0.4309 H   0  0  0  0  0  0  0  0  0  0  0  0
    0.9452    3.4979    1.4952 C   0  0  1  0  0  0  0  0  0  0  0  0
    0.3143    2.5487    2.3083 C   0  0  0  0  0  0  0  0  0  0  0  0
   -0.8853    2.1665    1.7294 N   0  0  0  0  0  0  0  0  0  0  0  0
   -0.4067    0.2027    0.9008 H   0  0  0  0  0  0  0  0  0  0  0  0
    0.8835    2.0362    3.5717 C   0  0  0  0  0  0  0  0  0  0  0  0
    2.3926    2.3546    3.5937 C   0  0  0  0  0  0  0  0  0  0  0  0
    2.6689    3.8152    3.1985 C   0  0  0  0  0  0  0  0  0  0  0  0
    2.2771    4.0851    1.7290 C   0  0  0  0  0  0  0  0  0  0  0  0
    3.0902   -1.7752   -0.8545 H   0  0  0  0  0  0  0  0  0  0  0  0
    4.1099   -1.9645   -3.1139 H   0  0  0  0  0  0  0  0  0  0  0  0
    3.5147   -0.3297   -4.8880 H   0  0  0  0  0  0  0  0  0  0  0  0
    1.8907    1.4921   -4.4072 H   0  0  0  0  0  0  0  0  0  0  0  0
   -0.9781    0.7137   -1.7509 H   0  0  0  0  0  0  0  0  0  0  0  0
   -2.6062    2.4860   -2.4631 H   0  0  0  0  0  0  0  0  0  0  0  0
   -1.3126    3.6844   -2.1711 H   0  0  0  0  0  0  0  0  0  0  0  0
   -2.7717    1.9057   -0.0730 H   0  0  0  0  0  0  0  0  0  0  0  0
   -2.8258    3.6671   -0.2070 H   0  0  0  0  0  0  0  0  0  0  0  0
    0.3708    2.4954    4.4419 H   0  0  0  0  0  0  0  0  0  0  0  0
    0.7203    0.9424    3.6676 H   0  0  0  0  0  0  0  0  0  0  0  0
    2.8053    2.1461    4.5953 H   0  0  0  0  0  0  0  0  0  0  0  0
    2.9150    1.6718    2.8917 H   0  0  0  0  0  0  0  0  0  0  0  0
    3.7366    4.0526    3.3491 H   0  0  0  0  0  0  0  0  0  0  0  0
    2.0998    4.4938    3.8618 H   0  0  0  0  0  0  0  0  0  0  0  0
    3.0249    3.6243    1.0458 H   0  0  0  0  0  0  0  0  0  0  0  0
    2.3000    5.1714    1.5168 H   0  0  0  0  0  0  0  0  0  0  0  0
  1  2  1  0  0  0  0
  1 21  1  0  0  0  0
  2  3  2  0  0  0  0
  4  2  1  0  0  0  0
  5  4  1  0  0  0  0
  5 26  1  0  0  0  0
  6  5  2  0  0  0  0
  7  8  2  0  0  0  0
  7  6  1  0  0  0  0
  8  9  1  0  0  0  0
  9 10  1  0  0  0  0
  9  4  2  0  0  0  0
 10 12  1  0  0  0  0
 11 10  2  0  0  0  0
 12 13  1  0  0  0  0
 12 30  1  0  0  0  0
 13 14  1  0  0  0  0
 14 34  1  0  0  0  0
 14 33  1  0  0  0  0
 14 15  1  0  0  0  0
 15 20  2  0  0  0  0
 16 15  1  0  0  0  0
 16 18  1  0  0  0  0
 17 16  1  0  0  0  0
 18 25  1  0  0  0  0
 18 19  1  6  0  0  0
 19 22  1  0  0  0  0
 20 19  2  0  0  0  0
 22 23  1  0  0  0  0
 22 36  1  0  0  0  0
 22 35  1  0  0  0  0
 23 37  1  0  0  0  0
 24 39  1  0  0  0  0
 24 23  1  0  0  0  0
 24 40  1  0  0  0  0
 25 24  1  0  0  0  0
 27  6  1  0  0  0  0
 28  7  1  0  0  0  0
 29  8  1  0  0  0  0
 31 13  1  0  0  0  0
 32 13  1  0  0  0  0
 38 23  1  0  0  0  0
 41 25  1  0  0  0  0
 42 25  1  0  0  0  0
M  RAD  1  18   2
M  END
$$$$
