rmsd129.gzmat
 OpenBabel08211713363D

 42 44  0  0  1  0  0  0  0  0999 V2000
    0.0000    0.0000    0.0000 O   0  0  0  0  0  0  0  0  0  0  0  0
    1.3521    0.0000    0.0000 C   0  0  0  0  0  0  0  0  0  0  0  0
    1.9871    0.0000    1.0206 O   0  0  0  0  0  0  0  0  0  0  0  0
    1.8922   -0.0592   -1.3775 C   0  0  0  0  0  0  0  0  0  0  0  0
    2.8296   -1.0635   -1.6341 C   0  0  0  0  0  0  0  0  0  0  0  0
    3.4118   -1.1665   -2.8947 C   0  0  0  0  0  0  0  0  0  0  0  0
    3.0708   -0.2587   -3.8966 C   0  0  0  0  0  0  0  0  0  0  0  0
    2.1474    0.7511   -3.6376 C   0  0  0  0  0  0  0  0  0  0  0  0
    1.5502    0.8470   -2.3785 C   0  0  0  0  0  0  0  0  0  0  0  0
    0.6004    1.9844   -2.1902 C   0  0  0  0  0  0  0  0  0  0  0  0
    0.9616    3.1447   -2.2915 O   0  0  0  0  0  0  0  0  0  0  0  0
   -0.7283    1.6532   -2.0396 N   0  0  0  0  0  0  0  0  0  0  0  0
   -1.7110    2.7197   -1.8271 C   0  0  0  0  0  0  0  0  0  0  0  0
   -2.0995    2.8777   -0.3422 C   0  0  0  0  0  0  0  0  0  0  0  0
   -0.9211    2.9522    0.5511 C   0  0  0  0  0  0  0  0  0  0  0  0
    0.1710    3.8019    0.3484 N   0  0  0  0  0  0  0  0  0  0  0  0
    0.3859    4.2835   -0.5056 H   0  0  0  0  0  0  0  0  0  0  0  0
    1.0657    3.5584    1.3881 C   0  0  1  0  0  0  0  0  0  0  0  0
    0.4688    2.5976    2.2122 C   0  0  0  0  0  0  0  0  0  0  0  0
   -0.7552    2.2250    1.6787 N   0  0  0  0  0  0  0  0  0  0  0  0
   -0.4061    0.2337    0.8938 H   0  0  0  0  0  0  0  0  0  0  0  0
    1.0921    2.0626    3.4401 C   0  0  0  0  0  0  0  0  0  0  0  0
    2.5997    2.3885    3.4097 C   0  0  0  0  0  0  0  0  0  0  0  0
    2.8579    3.8554    3.0263 C   0  0  0  0  0  0  0  0  0  0  0  0
    2.4020    4.1503    1.5800 C   0  0  0  0  0  0  0  0  0  0  0  0
    3.1090   -1.7603   -0.8409 H   0  0  0  0  0  0  0  0  0  0  0  0
    4.1391   -1.9520   -3.0946 H   0  0  0  0  0  0  0  0  0  0  0  0
    3.5309   -0.3323   -4.8813 H   0  0  0  0  0  0  0  0  0  0  0  0
    1.8932    1.4770   -4.4127 H   0  0  0  0  0  0  0  0  0  0  0  0
   -0.9763    0.7292   -1.6976 H   0  0  0  0  0  0  0  0  0  0  0  0
   -2.6175    2.4752   -2.4286 H   0  0  0  0  0  0  0  0  0  0  0  0
   -1.3138    3.6822   -2.2299 H   0  0  0  0  0  0  0  0  0  0  0  0
   -2.7439    2.0259   -0.0208 H   0  0  0  0  0  0  0  0  0  0  0  0
   -2.7355    3.7820   -0.2166 H   0  0  0  0  0  0  0  0  0  0  0  0
    0.6111    2.4988    4.3393 H   0  0  0  0  0  0  0  0  0  0  0  0
    0.9407    0.9648    3.5153 H   0  0  0  0  0  0  0  0  0  0  0  0
    3.0508    2.1656    4.3919 H   0  0  0  0  0  0  0  0  0  0  0  0
    3.0971    1.7184    2.6780 H   0  0  0  0  0  0  0  0  0  0  0  0
    3.9317    4.0905    3.1328 H   0  0  0  0  0  0  0  0  0  0  0  0
    2.3197    4.5225    3.7256 H   0  0  0  0  0  0  0  0  0  0  0  0
    3.1249    3.7113    0.8573 H   0  0  0  0  0  0  0  0  0  0  0  0
    2.4056    5.2413    1.3894 H   0  0  0  0  0  0  0  0  0  0  0  0
  1  2  1  0  0  0  0
  1 21  1  0  0  0  0
  2  3  2  0  0  0  0
  4  2  1  0  0  0  0
  5  4  1  0  0  0  0
  5 26  1  0  0  0  0
  6  5  2  0  0  0  0
  7  8  2  0  0  0  0
  7  6  1  0  0  0  0
  8  9  1  0  0  0  0
  9 10  1  0  0  0  0
  9  4  2  0  0  0  0
 10 12  1  0  0  0  0
 11 10  2  0  0  0  0
 12 13  1  0  0  0  0
 12 30  1  0  0  0  0
 13 14  1  0  0  0  0
 14 34  1  0  0  0  0
 14 33  1  0  0  0  0
 14 15  1  0  0  0  0
 15 20  2  0  0  0  0
 16 15  1  0  0  0  0
 16 18  1  0  0  0  0
 17 16  1  0  0  0  0
 18 25  1  0  0  0  0
 18 19  1  6  0  0  0
 19 22  1  0  0  0  0
 20 19  2  0  0  0  0
 22 36  1  0  0  0  0
 22 35  1  0  0  0  0
 23 22  1  0  0  0  0
 23 37  1  0  0  0  0
 24 39  1  0  0  0  0
 24 23  1  0  0  0  0
 24 40  1  0  0  0  0
 25 24  1  0  0  0  0
 27  6  1  0  0  0  0
 28  7  1  0  0  0  0
 29  8  1  0  0  0  0
 31 13  1  0  0  0  0
 32 13  1  0  0  0  0
 38 23  1  0  0  0  0
 41 25  1  0  0  0  0
 42 25  1  0  0  0  0
M  RAD  1  18   2
M  END
$$$$
