42
rmsd71.gzmat
O          0.00000        0.00000        0.00000
C          1.35180        0.00000        0.00000
O          1.98730        0.00000        1.02020
C          1.88990       -0.05870       -1.37830
C          2.81610       -1.07090       -1.64290
C          3.39180       -1.17240       -2.90650
C          3.05670       -0.25580       -3.90240
C          2.14260        0.76080       -3.63630
C          1.55170        0.85420       -2.37430
C          0.60330        1.98930       -2.16920
O          0.96620        3.15180       -2.22600
N         -0.72720        1.65010       -2.05430
C         -1.71880        2.70420       -1.82380
C         -2.15210        2.79260       -0.34650
C         -1.00600        2.87940        0.58690
N          0.09340        3.72740        0.41740
H          0.33920        4.20430       -0.43090
C          0.94520        3.49790        1.49520
C          0.31430        2.54870        2.30830
N         -0.88530        2.16650        1.72940
H         -0.40670        0.20270        0.90080
C          0.88350        2.03620        3.57170
C          2.39260        2.35460        3.59370
C          2.66890        3.81520        3.19850
C          2.27710        4.08510        1.72900
H          3.09020       -1.77520       -0.85450
H          4.10990       -1.96450       -3.11390
H          3.51470       -0.32970       -4.88800
H          1.89070        1.49210       -4.40720
H         -0.97810        0.71370       -1.75090
H         -2.60620        2.48600       -2.46310
H         -1.31260        3.68440       -2.17110
H         -2.77170        1.90570       -0.07300
H         -2.82580        3.66710       -0.20700
H          0.37080        2.49540        4.44190
H          0.72030        0.94240        3.66760
H          2.80530        2.14610        4.59530
H          2.91500        1.67180        2.89170
H          3.73660        4.05260        3.34910
H          2.09980        4.49380        3.86180
H          3.02490        3.62430        1.04580
H          2.30000        5.17140        1.51680
