rmsd23.gzmat
 OpenBabel08211713363D

 42 44  0  0  1  0  0  0  0  0999 V2000
    0.0000    0.0000    0.0000 O   0  0  0  0  0  0  0  0  0  0  0  0
    1.3517    0.0000    0.0000 C   0  0  0  0  0  0  0  0  0  0  0  0
    1.9883    0.0000    1.0192 O   0  0  0  0  0  0  0  0  0  0  0  0
    1.8907    0.0455   -1.3790 C   0  0  0  0  0  0  0  0  0  0  0  0
    2.7473    1.1046   -1.6888 C   0  0  0  0  0  0  0  0  0  0  0  0
    3.3309    1.1785   -2.9513 C   0  0  0  0  0  0  0  0  0  0  0  0
    3.0815    0.1825   -3.8948 C   0  0  0  0  0  0  0  0  0  0  0  0
    2.2341   -0.8782   -3.5831 C   0  0  0  0  0  0  0  0  0  0  0  0
    1.6223   -0.9371   -2.3295 C   0  0  0  0  0  0  0  0  0  0  0  0
    0.7116   -2.0977   -2.0929 C   0  0  0  0  0  0  0  0  0  0  0  0
    1.1026   -3.2514   -2.1168 O   0  0  0  0  0  0  0  0  0  0  0  0
   -0.6289   -1.7878   -1.9960 N   0  0  0  0  0  0  0  0  0  0  0  0
   -1.5988   -2.8579   -1.7487 C   0  0  0  0  0  0  0  0  0  0  0  0
   -2.0216   -2.9310   -0.2671 C   0  0  0  0  0  0  0  0  0  0  0  0
   -0.8613   -2.9808    0.6512 C   0  0  0  0  0  0  0  0  0  0  0  0
   -0.6994   -2.1955    1.7398 N   0  0  0  0  0  0  0  0  0  0  0  0
   -0.4049   -0.2363    0.8948 H   0  0  0  0  0  0  0  0  0  0  0  0
    0.4976   -2.5761    2.3264 C   0  0  0  0  0  0  0  0  0  0  0  0
    1.0831   -3.6005    1.5738 C   0  0  2  0  0  0  0  0  0  0  0  0
    0.2081   -3.8728    0.5238 N   0  0  0  0  0  0  0  0  0  0  0  0
    0.4353   -4.3960   -0.3012 H   0  0  0  0  0  0  0  0  0  0  0  0
    2.3751   -4.2510    1.8587 C   0  0  0  0  0  0  0  0  0  0  0  0
    3.1491   -3.3585    2.8542 C   0  0  0  0  0  0  0  0  0  0  0  0
    2.2515   -2.8979    4.0163 C   0  0  0  0  0  0  0  0  0  0  0  0
    1.1198   -1.9742    3.5231 C   0  0  0  0  0  0  0  0  0  0  0  0
    2.9618    1.8687   -0.9391 H   0  0  0  0  0  0  0  0  0  0  0  0
    3.9886    2.0109   -3.1985 H   0  0  0  0  0  0  0  0  0  0  0  0
    3.5520    0.2307   -4.8761 H   0  0  0  0  0  0  0  0  0  0  0  0
    2.0494   -1.6694   -4.3127 H   0  0  0  0  0  0  0  0  0  0  0  0
   -0.9022   -0.8515   -1.7099 H   0  0  0  0  0  0  0  0  0  0  0  0
   -1.1760   -3.8352   -2.0834 H   0  0  0  0  0  0  0  0  0  0  0  0
   -2.4930   -2.6651   -2.3870 H   0  0  0  0  0  0  0  0  0  0  0  0
   -2.6772   -3.8154   -0.1072 H   0  0  0  0  0  0  0  0  0  0  0  0
   -2.6548   -2.0513   -0.0027 H   0  0  0  0  0  0  0  0  0  0  0  0
    2.2178   -5.2610    2.2928 H   0  0  0  0  0  0  0  0  0  0  0  0
    2.9737   -4.4009    0.9368 H   0  0  0  0  0  0  0  0  0  0  0  0
    4.0245   -3.9065    3.2438 H   0  0  0  0  0  0  0  0  0  0  0  0
    3.5442   -2.4706    2.3204 H   0  0  0  0  0  0  0  0  0  0  0  0
    2.8567   -2.3694    4.7744 H   0  0  0  0  0  0  0  0  0  0  0  0
    1.8159   -3.7792    4.5229 H   0  0  0  0  0  0  0  0  0  0  0  0
    1.5285   -0.9699    3.2637 H   0  0  0  0  0  0  0  0  0  0  0  0
    0.3745   -1.8006    4.3238 H   0  0  0  0  0  0  0  0  0  0  0  0
  1  2  1  0  0  0  0
  1 17  1  0  0  0  0
  2  3  2  0  0  0  0
  4  2  1  0  0  0  0
  5  4  1  0  0  0  0
  5 26  1  0  0  0  0
  6  5  2  0  0  0  0
  7  8  2  0  0  0  0
  7  6  1  0  0  0  0
  8  9  1  0  0  0  0
  9 10  1  0  0  0  0
  9  4  2  0  0  0  0
 10 12  1  0  0  0  0
 11 10  2  0  0  0  0
 12 13  1  0  0  0  0
 12 30  1  0  0  0  0
 13 14  1  0  0  0  0
 14 33  1  0  0  0  0
 14 34  1  0  0  0  0
 14 15  1  0  0  0  0
 15 16  2  0  0  0  0
 16 18  2  0  0  0  0
 18 25  1  0  0  0  0
 19 22  1  0  0  0  0
 19 18  1  1  0  0  0
 20 15  1  0  0  0  0
 20 19  1  0  0  0  0
 21 20  1  0  0  0  0
 22 35  1  0  0  0  0
 22 23  1  0  0  0  0
 23 37  1  0  0  0  0
 23 24  1  0  0  0  0
 24 40  1  0  0  0  0
 24 39  1  0  0  0  0
 25 24  1  0  0  0  0
 25 42  1  0  0  0  0
 27  6  1  0  0  0  0
 28  7  1  0  0  0  0
 29  8  1  0  0  0  0
 31 13  1  0  0  0  0
 32 13  1  0  0  0  0
 36 22  1  0  0  0  0
 38 23  1  0  0  0  0
 41 25  1  0  0  0  0
M  RAD  1  19   2
M  END
$$$$
