rmsd82.gzmat
 OpenBabel08211713363D

 42 44  0  0  1  0  0  0  0  0999 V2000
    0.0000    0.0000    0.0000 O   0  0  0  0  0  0  0  0  0  0  0  0
    1.3517    0.0000    0.0000 C   0  0  0  0  0  0  0  0  0  0  0  0
    1.9884    0.0000    1.0193 O   0  0  0  0  0  0  0  0  0  0  0  0
    1.8856    0.0545   -1.3804 C   0  0  0  0  0  0  0  0  0  0  0  0
    2.7677    1.0975   -1.6732 C   0  0  0  0  0  0  0  0  0  0  0  0
    3.3278    1.1957   -2.9446 C   0  0  0  0  0  0  0  0  0  0  0  0
    3.0233    0.2437   -3.9170 C   0  0  0  0  0  0  0  0  0  0  0  0
    2.1568   -0.8056   -3.6198 C   0  0  0  0  0  0  0  0  0  0  0  0
    1.5786   -0.8955   -2.3521 C   0  0  0  0  0  0  0  0  0  0  0  0
    0.6687   -2.0568   -2.1150 C   0  0  0  0  0  0  0  0  0  0  0  0
    1.0624   -3.2095   -2.1378 O   0  0  0  0  0  0  0  0  0  0  0  0
   -0.6720   -1.7510   -2.0107 N   0  0  0  0  0  0  0  0  0  0  0  0
   -1.6349   -2.8248   -1.7515 C   0  0  0  0  0  0  0  0  0  0  0  0
   -2.0628   -2.8786   -0.2712 C   0  0  0  0  0  0  0  0  0  0  0  0
   -0.9070   -2.9396    0.6518 C   0  0  0  0  0  0  0  0  0  0  0  0
   -0.7486   -2.1664    1.7495 N   0  0  0  0  0  0  0  0  0  0  0  0
   -0.4058   -0.2211    0.8981 H   0  0  0  0  0  0  0  0  0  0  0  0
    0.4424   -2.5594    2.3403 C   0  0  0  0  0  0  0  0  0  0  0  0
    1.0281   -3.5785    1.5808 C   0  0  2  0  0  0  0  0  0  0  0  0
    0.1597   -3.8349    0.5213 N   0  0  0  0  0  0  0  0  0  0  0  0
    0.3904   -4.3499   -0.3073 H   0  0  0  0  0  0  0  0  0  0  0  0
    2.3106   -4.2457    1.8691 C   0  0  0  0  0  0  0  0  0  0  0  0
    3.0696   -3.4002    2.9157 C   0  0  0  0  0  0  0  0  0  0  0  0
    2.1467   -2.9483    4.0611 C   0  0  0  0  0  0  0  0  0  0  0  0
    1.0564   -1.9833    3.5537 C   0  0  0  0  0  0  0  0  0  0  0  0
    3.0198    1.8284   -0.9019 H   0  0  0  0  0  0  0  0  0  0  0  0
    4.0096    2.0126   -3.1769 H   0  0  0  0  0  0  0  0  0  0  0  0
    3.4662    0.3173   -4.9096 H   0  0  0  0  0  0  0  0  0  0  0  0
    1.9307   -1.5626   -4.3730 H   0  0  0  0  0  0  0  0  0  0  0  0
   -0.9455   -0.8158   -1.7222 H   0  0  0  0  0  0  0  0  0  0  0  0
   -1.2041   -3.8041   -2.0701 H   0  0  0  0  0  0  0  0  0  0  0  0
   -2.5279   -2.6493   -2.3959 H   0  0  0  0  0  0  0  0  0  0  0  0
   -2.7329   -3.7510   -0.1056 H   0  0  0  0  0  0  0  0  0  0  0  0
   -2.6831   -1.9870   -0.0169 H   0  0  0  0  0  0  0  0  0  0  0  0
    2.1388   -5.2722    2.2561 H   0  0  0  0  0  0  0  0  0  0  0  0
    2.9280   -4.3607    0.9546 H   0  0  0  0  0  0  0  0  0  0  0  0
    3.9187   -3.9792    3.3178 H   0  0  0  0  0  0  0  0  0  0  0  0
    3.5035   -2.5081    2.4213 H   0  0  0  0  0  0  0  0  0  0  0  0
    2.7399   -2.4563    4.8522 H   0  0  0  0  0  0  0  0  0  0  0  0
    1.6725   -3.8312    4.5287 H   0  0  0  0  0  0  0  0  0  0  0  0
    1.5030   -0.9911    3.3115 H   0  0  0  0  0  0  0  0  0  0  0  0
    0.2996   -1.7925    4.3394 H   0  0  0  0  0  0  0  0  0  0  0  0
  1  2  1  0  0  0  0
  1 17  1  0  0  0  0
  2  3  2  0  0  0  0
  4  2  1  0  0  0  0
  5  4  1  0  0  0  0
  5 26  1  0  0  0  0
  6  5  2  0  0  0  0
  7  8  2  0  0  0  0
  7  6  1  0  0  0  0
  8  9  1  0  0  0  0
  9 10  1  0  0  0  0
  9  4  2  0  0  0  0
 10 12  1  0  0  0  0
 11 10  2  0  0  0  0
 12 13  1  0  0  0  0
 12 30  1  0  0  0  0
 13 14  1  0  0  0  0
 14 33  1  0  0  0  0
 14 34  1  0  0  0  0
 14 15  1  0  0  0  0
 15 16  2  0  0  0  0
 16 18  2  0  0  0  0
 18 25  1  0  0  0  0
 19 22  1  0  0  0  0
 19 18  1  1  0  0  0
 20 15  1  0  0  0  0
 20 19  1  0  0  0  0
 21 20  1  0  0  0  0
 22 35  1  0  0  0  0
 22 23  1  0  0  0  0
 23 37  1  0  0  0  0
 23 24  1  0  0  0  0
 24 40  1  0  0  0  0
 24 39  1  0  0  0  0
 25 24  1  0  0  0  0
 25 42  1  0  0  0  0
 27  6  1  0  0  0  0
 28  7  1  0  0  0  0
 29  8  1  0  0  0  0
 31 13  1  0  0  0  0
 32 13  1  0  0  0  0
 36 22  1  0  0  0  0
 38 23  1  0  0  0  0
 41 25  1  0  0  0  0
M  RAD  1  19   2
M  END
$$$$
