rmsd139.gzmat
 OpenBabel08211713413D

 43 45  0  0  1  0  0  0  0  0999 V2000
    0.0000    0.0000    0.0000 C   0  0  1  0  0  0  0  0  0  0  0  0
    1.1263    0.0000    0.0000 H   0  0  0  0  0  0  0  0  0  0  0  0
   -0.4862    0.0000   -1.4936 C   0  0  2  0  0  0  0  0  0  0  0  0
   -1.9791    0.3407   -1.6384 C   0  0  0  0  0  0  0  0  0  0  0  0
   -2.3316    1.6225   -0.8865 C   0  0  0  0  0  0  0  0  0  0  0  0
   -2.0059    1.4777    0.6033 C   0  0  0  0  0  0  0  0  0  0  0  0
   -0.5141    1.2030    0.8124 C   0  0  0  0  0  0  0  0  0  0  0  0
   -0.4114   -1.3397   -1.9519 O   0  0  0  0  0  0  0  0  0  0  0  0
    0.3594    0.8605   -2.4072 C   0  0  0  0  0  0  0  0  0  0  0  0
    0.5902    0.3988   -3.7070 C   0  0  0  0  0  0  0  0  0  0  0  0
    1.3450    1.1544   -4.5993 C   0  0  0  0  0  0  0  0  0  0  0  0
    1.8682    2.3846   -4.2038 C   0  0  0  0  0  0  0  0  0  0  0  0
    1.6324    2.8521   -2.9139 C   0  0  0  0  0  0  0  0  0  0  0  0
    0.8799    2.0927   -2.0193 C   0  0  0  0  0  0  0  0  0  0  0  0
   -0.4546   -1.2284    0.6664 N   0  0  0  0  0  0  0  0  0  0  0  0
    0.2304   -2.4099    0.4607 C   0  0  0  0  0  0  0  0  0  0  0  0
    1.3065   -2.4349   -0.1051 O   0  0  0  0  0  0  0  0  0  0  0  0
   -0.4257   -3.6179    1.0364 C   0  0  0  0  0  0  0  0  0  0  0  0
   -1.3791   -4.2895    0.2710 C   0  0  0  0  0  0  0  0  0  0  0  0
   -1.9923   -5.4305    0.7838 C   0  0  0  0  0  0  0  0  0  0  0  0
   -1.6246   -5.8603    2.0532 C   0  0  0  0  0  0  0  0  0  0  0  0
   -0.6711   -5.2101    2.8262 C   0  0  0  0  0  0  0  0  0  0  0  0
   -0.0613   -4.0709    2.3025 C   0  0  0  0  0  0  0  0  0  0  0  0
   -2.3796   -7.2570    2.6928 Cl  0  0  0  0  0  0  0  0  0  0  0  0
   -2.2336    0.4319   -2.7124 H   0  0  0  0  0  0  0  0  0  0  0  0
   -2.5814   -0.5132   -1.2692 H   0  0  0  0  0  0  0  0  0  0  0  0
   -1.7816    2.4813   -1.3189 H   0  0  0  0  0  0  0  0  0  0  0  0
   -3.4045    1.8563   -1.0220 H   0  0  0  0  0  0  0  0  0  0  0  0
   -2.2942    2.3987    1.1458 H   0  0  0  0  0  0  0  0  0  0  0  0
   -2.6168    0.6701    1.0470 H   0  0  0  0  0  0  0  0  0  0  0  0
    0.0719    2.1060    0.5493 H   0  0  0  0  0  0  0  0  0  0  0  0
   -0.3078    1.0295    1.8884 H   0  0  0  0  0  0  0  0  0  0  0  0
    0.5090   -1.6881   -1.8767 H   0  0  0  0  0  0  0  0  0  0  0  0
    0.1708   -0.5584   -4.0255 H   0  0  0  0  0  0  0  0  0  0  0  0
    1.5258    0.7834   -5.6064 H   0  0  0  0  0  0  0  0  0  0  0  0
    2.4575    2.9762   -4.9003 H   0  0  0  0  0  0  0  0  0  0  0  0
    2.0352    3.8126   -2.5997 H   0  0  0  0  0  0  0  0  0  0  0  0
    0.7031    2.4807   -1.0176 H   0  0  0  0  0  0  0  0  0  0  0  0
   -1.4124   -1.2382    0.9812 H   0  0  0  0  0  0  0  0  0  0  0  0
   -1.6369   -3.9259   -0.7272 H   0  0  0  0  0  0  0  0  0  0  0  0
   -2.7368   -5.9678    0.1966 H   0  0  0  0  0  0  0  0  0  0  0  0
   -0.3967   -5.5775    3.8149 H   0  0  0  0  0  0  0  0  0  0  0  0
    0.7007   -3.5424    2.8777 H   0  0  0  0  0  0  0  0  0  0  0  0
  1  3  1  0  0  0  0
  1  2  1  1  0  0  0
  1 15  1  0  0  0  0
  1  7  1  0  0  0  0
  3  8  1  6  0  0  0
  4  3  1  0  0  0  0
  4 26  1  0  0  0  0
  4  5  1  0  0  0  0
  5  6  1  0  0  0  0
  6  7  1  0  0  0  0
  6 30  1  0  0  0  0
  6 29  1  0  0  0  0
  7 32  1  0  0  0  0
  8 33  1  0  0  0  0
  9 14  1  0  0  0  0
  9  3  1  0  0  0  0
 10  9  2  0  0  0  0
 11 12  2  0  0  0  0
 11 10  1  0  0  0  0
 12 13  1  0  0  0  0
 13 37  1  0  0  0  0
 13 14  2  0  0  0  0
 14 38  1  0  0  0  0
 15 39  1  0  0  0  0
 16 15  1  0  0  0  0
 16 18  1  0  0  0  0
 17 16  2  0  0  0  0
 18 23  2  0  0  0  0
 19 20  2  0  0  0  0
 19 18  1  0  0  0  0
 20 21  1  0  0  0  0
 21 24  1  0  0  0  0
 21 22  2  0  0  0  0
 22 42  1  0  0  0  0
 23 22  1  0  0  0  0
 23 43  1  0  0  0  0
 25  4  1  0  0  0  0
 27  5  1  0  0  0  0
 28  5  1  0  0  0  0
 31  7  1  0  0  0  0
 34 10  1  0  0  0  0
 35 11  1  0  0  0  0
 36 12  1  0  0  0  0
 40 19  1  0  0  0  0
 41 20  1  0  0  0  0
M  END
$$$$
