rmsd60.gzmat
 OpenBabel08211713413D

 43 45  0  0  1  0  0  0  0  0999 V2000
    0.0000    0.0000    0.0000 C   0  0  1  0  0  0  0  0  0  0  0  0
    1.1269    0.0000    0.0000 H   0  0  0  0  0  0  0  0  0  0  0  0
   -0.4855    0.0000   -1.4924 C   0  0  2  0  0  0  0  0  0  0  0  0
   -1.9785    0.3419   -1.6354 C   0  0  0  0  0  0  0  0  0  0  0  0
   -2.3256    1.6282   -0.8894 C   0  0  0  0  0  0  0  0  0  0  0  0
   -2.0061    1.4777    0.6010 C   0  0  0  0  0  0  0  0  0  0  0  0
   -0.5121    1.2104    0.8039 C   0  0  0  0  0  0  0  0  0  0  0  0
   -0.4119   -1.3390   -1.9555 O   0  0  0  0  0  0  0  0  0  0  0  0
    0.3641    0.8465   -2.4160 C   0  0  0  0  0  0  0  0  0  0  0  0
    1.1241    1.9326   -1.9912 C   0  0  0  0  0  0  0  0  0  0  0  0
    1.8839    2.6582   -2.9091 C   0  0  0  0  0  0  0  0  0  0  0  0
    1.8877    2.3019   -4.2547 C   0  0  0  0  0  0  0  0  0  0  0  0
    1.1270    1.2153   -4.6855 C   0  0  0  0  0  0  0  0  0  0  0  0
    0.3683    0.4928   -3.7706 C   0  0  0  0  0  0  0  0  0  0  0  0
   -0.4453   -1.2299    0.6714 N   0  0  0  0  0  0  0  0  0  0  0  0
    0.2640   -2.3990    0.4612 C   0  0  0  0  0  0  0  0  0  0  0  0
    1.3366   -2.3928   -0.1148 O   0  0  0  0  0  0  0  0  0  0  0  0
   -0.3377   -3.6394    1.0239 C   0  0  0  0  0  0  0  0  0  0  0  0
   -0.7663   -3.7010    2.3492 C   0  0  0  0  0  0  0  0  0  0  0  0
   -1.3232   -4.8807    2.8404 C   0  0  0  0  0  0  0  0  0  0  0  0
   -1.4299   -5.9664    1.9800 C   0  0  0  0  0  0  0  0  0  0  0  0
   -0.9949   -5.9322    0.6610 C   0  0  0  0  0  0  0  0  0  0  0  0
   -0.4351   -4.7493    0.1825 C   0  0  0  0  0  0  0  0  0  0  0  0
   -2.1247   -7.4136    2.5742 Cl  0  0  0  0  0  0  0  0  0  0  0  0
   -2.2387    0.4271   -2.7083 H   0  0  0  0  0  0  0  0  0  0  0  0
   -2.5810   -0.5089   -1.2593 H   0  0  0  0  0  0  0  0  0  0  0  0
   -1.7635    2.4813   -1.3178 H   0  0  0  0  0  0  0  0  0  0  0  0
   -3.3952    1.8708   -1.0312 H   0  0  0  0  0  0  0  0  0  0  0  0
   -2.3020    2.3933    1.1475 H   0  0  0  0  0  0  0  0  0  0  0  0
   -2.6111    0.6636    1.0402 H   0  0  0  0  0  0  0  0  0  0  0  0
    0.0662    2.1126    0.5215 H   0  0  0  0  0  0  0  0  0  0  0  0
   -0.2975    1.0512    1.8800 H   0  0  0  0  0  0  0  0  0  0  0  0
    0.5135   -1.6764   -1.9058 H   0  0  0  0  0  0  0  0  0  0  0  0
    1.1401    2.2292   -0.9445 H   0  0  0  0  0  0  0  0  0  0  0  0
    2.4788    3.5030   -2.5692 H   0  0  0  0  0  0  0  0  0  0  0  0
    2.4835    2.8669   -4.9678 H   0  0  0  0  0  0  0  0  0  0  0  0
    1.1282    0.9315   -5.7358 H   0  0  0  0  0  0  0  0  0  0  0  0
   -0.2261   -0.3602   -4.1060 H   0  0  0  0  0  0  0  0  0  0  0  0
   -1.4139   -1.2610    0.9483 H   0  0  0  0  0  0  0  0  0  0  0  0
   -0.6576   -2.8358    3.0042 H   0  0  0  0  0  0  0  0  0  0  0  0
   -1.6624   -4.9433    3.8739 H   0  0  0  0  0  0  0  0  0  0  0  0
   -1.0824   -6.8036    0.0120 H   0  0  0  0  0  0  0  0  0  0  0  0
   -0.0660   -4.6873   -0.8451 H   0  0  0  0  0  0  0  0  0  0  0  0
  1  3  1  0  0  0  0
  1  2  1  1  0  0  0
  1 15  1  0  0  0  0
  1  7  1  0  0  0  0
  3  8  1  6  0  0  0
  4  3  1  0  0  0  0
  4 26  1  0  0  0  0
  4  5  1  0  0  0  0
  5  6  1  0  0  0  0
  6  7  1  0  0  0  0
  6 30  1  0  0  0  0
  6 29  1  0  0  0  0
  7 32  1  0  0  0  0
  8 33  1  0  0  0  0
  9 10  1  0  0  0  0
  9  3  1  0  0  0  0
 10 34  1  0  0  0  0
 11 35  1  0  0  0  0
 11 10  2  0  0  0  0
 12 11  1  0  0  0  0
 13 12  2  0  0  0  0
 13 14  1  0  0  0  0
 14  9  2  0  0  0  0
 15 39  1  0  0  0  0
 16 15  1  0  0  0  0
 16 18  1  0  0  0  0
 17 16  2  0  0  0  0
 18 19  2  0  0  0  0
 19 20  1  0  0  0  0
 19 40  1  0  0  0  0
 20 41  1  0  0  0  0
 21 24  1  0  0  0  0
 21 20  2  0  0  0  0
 22 21  1  0  0  0  0
 23 22  2  0  0  0  0
 23 18  1  0  0  0  0
 25  4  1  0  0  0  0
 27  5  1  0  0  0  0
 28  5  1  0  0  0  0
 31  7  1  0  0  0  0
 36 12  1  0  0  0  0
 37 13  1  0  0  0  0
 38 14  1  0  0  0  0
 42 22  1  0  0  0  0
 43 23  1  0  0  0  0
M  END
$$$$
