43
rmsd60.gzmat
C          0.00000        0.00000        0.00000
H          1.12690        0.00000        0.00000
C         -0.48550        0.00000       -1.49240
C         -1.97850        0.34190       -1.63540
C         -2.32560        1.62820       -0.88940
C         -2.00610        1.47770        0.60100
C         -0.51210        1.21040        0.80390
O         -0.41190       -1.33900       -1.95550
C          0.36410        0.84650       -2.41600
C          1.12410        1.93260       -1.99120
C          1.88390        2.65820       -2.90910
C          1.88770        2.30190       -4.25470
C          1.12700        1.21530       -4.68550
C          0.36830        0.49280       -3.77060
N         -0.44530       -1.22990        0.67140
C          0.26400       -2.39900        0.46120
O          1.33660       -2.39280       -0.11480
C         -0.33770       -3.63940        1.02390
C         -0.76630       -3.70100        2.34920
C         -1.32320       -4.88070        2.84040
C         -1.42990       -5.96640        1.98000
C         -0.99490       -5.93220        0.66100
C         -0.43510       -4.74930        0.18250
Cl        -2.12470       -7.41360        2.57420
H         -2.23870        0.42710       -2.70830
H         -2.58100       -0.50890       -1.25930
H         -1.76350        2.48130       -1.31780
H         -3.39520        1.87080       -1.03120
H         -2.30200        2.39330        1.14750
H         -2.61110        0.66360        1.04020
H          0.06620        2.11260        0.52150
H         -0.29750        1.05120        1.88000
H          0.51350       -1.67640       -1.90580
H          1.14010        2.22920       -0.94450
H          2.47880        3.50300       -2.56920
H          2.48350        2.86690       -4.96780
H          1.12820        0.93150       -5.73580
H         -0.22610       -0.36020       -4.10600
H         -1.41390       -1.26100        0.94830
H         -0.65760       -2.83580        3.00420
H         -1.66240       -4.94330        3.87390
H         -1.08240       -6.80360        0.01200
H         -0.06600       -4.68730       -0.84510
