43
rmsd159.gzmat
C          0.00000        0.00000        0.00000
H          1.12670        0.00000        0.00000
C         -0.48330        0.00000       -1.49360
C         -1.97620        0.34220       -1.63950
C         -2.31600        1.63410       -0.89920
C         -2.00130        1.48970        0.59310
C         -0.51210        1.20680        0.80880
O         -0.40590       -1.33770       -1.95590
C          0.35660        0.86290       -2.41030
C          0.97860        2.03800       -1.99670
C          1.71510        2.80030       -2.90280
C          1.83490        2.39070       -4.22790
C          1.21150        1.21610       -4.64780
C          0.47440        0.45780       -3.74370
N         -0.45040       -1.23000        0.66610
C          0.25310       -2.40220        0.46960
O          1.33370       -2.40790       -0.08980
C         -0.36970       -3.62270        1.05460
C         -1.54130       -4.13230        0.49460
C         -2.11500       -5.28480        1.02760
C         -1.48870       -5.89020        2.11050
C         -0.31240       -5.40860        2.67130
C          0.25520       -4.25710        2.12730
Cl        -2.19790       -7.29580        2.78230
H         -2.23310        0.42400       -2.71360
H         -2.58110       -0.50470       -1.26040
H         -1.74790        2.48130       -1.33150
H         -3.38300        1.88520       -1.04410
H         -2.28750        2.41320        1.13170
H         -2.61950        0.68610        1.03390
H          0.07870        2.10640        0.54330
H         -0.30800        1.03760        1.88600
H          0.51620       -1.68250       -1.88830
H          0.89700        2.37950       -0.96650
H          2.19620        3.71740       -2.57020
H          2.41210        2.98460       -4.93280
H          1.29920        0.89180       -5.68290
H         -0.01820       -0.45910       -4.07540
H         -1.40680       -1.24590        0.98270
H         -1.99900       -3.63880       -0.36570
H         -3.02740       -5.69760        0.59750
H          0.16360       -5.91530        3.51040
H          1.18710       -3.85750        2.53250
