43

C          0.00980       -0.14430       -0.17980
H          1.10450       -0.24010       -0.18250
C         -0.46370       -0.05530       -1.66840
C         -1.96250        0.29920       -1.70240
C         -2.30870        1.55690       -0.90850
C         -1.89700        1.39810        0.55650
C         -0.40470        1.07230        0.66460
O         -0.37250       -1.32840       -2.28840
C          0.36870        0.94390       -2.49210
C          1.44670        1.69060       -1.99830
C          2.17630        2.54700       -2.83180
C          1.84520        2.66850       -4.18030
C          0.78580        1.91250       -4.69380
C          0.06510        1.05970       -3.86030
N         -0.47480       -1.36200        0.45580
C          0.16310       -2.55360        0.30380
O          1.16880       -2.67750       -0.39290
C         -0.42500       -3.72220        1.03610
C         -1.25620       -3.59140        2.15850
C         -1.76700       -4.71750        2.80350
C         -1.43920       -5.98730        2.32010
C         -0.60010       -6.13990        1.21130
C         -0.09260       -5.00650        0.58140
Cl        -2.07790       -7.40060        3.11810
H         -2.28580        0.38670       -2.74930
H         -2.49990       -0.57070       -1.28820
H         -1.78650        2.42640       -1.34460
H         -3.38770        1.76590       -0.98610
H         -2.11990        2.31110        1.13150
H         -2.50260        0.59570        1.01970
H          0.16410        1.95020        0.32730
H         -0.11150        0.88690        1.71070
H          0.46890       -1.73920       -2.02190
H          1.75010        1.61310       -0.95490
H          3.01170        3.11700       -2.41770
H          2.41300        3.33810       -4.83080
H          0.52600        1.98210       -5.75310
H         -0.73490        0.44690       -4.27860
H         -1.40380       -1.35840        0.85570
H         -1.49040       -2.60410        2.56280
H         -2.40680       -4.61980        3.68130
H         -0.35130       -7.14020        0.85460
H          0.57400       -5.09360       -0.27790
