43
rmsd43.gzmat
C          0.00000        0.00000        0.00000
H          1.12650        0.00000        0.00000
C         -0.48050        0.00000       -1.49490
C         -1.96710        0.35960       -1.65350
C         -2.31670        1.63800       -0.89520
C         -2.00570        1.47340        0.59590
C         -0.51300        1.20720        0.80700
O         -0.41840       -1.34030       -1.95160
C          0.38740        0.84390       -2.40420
C          0.60050        0.38130       -3.70660
C          1.39120        1.10780       -4.59180
C          1.96890        2.31000       -4.18600
C          1.74240        2.78370       -2.89660
C          0.95440        2.05270       -2.00840
N         -0.45050       -1.22380        0.67780
C          0.24440       -2.40240        0.48630
O          1.29950       -2.42540       -0.12160
C         -0.35300       -3.61030        1.11970
C         -0.53410       -4.74350        0.32560
C         -1.08890       -5.89440        0.88220
C         -1.43550       -5.87280        2.22750
C         -1.24860       -4.76080        3.03960
C         -0.69830       -3.61370        2.47070
Cl        -2.12680       -7.27920        2.91570
H         -2.20840        0.46110       -2.72950
H         -2.58180       -0.49150       -1.29770
H         -1.75370        2.49630       -1.31190
H         -3.38580        1.88230       -1.03950
H         -2.30700        2.38240        1.14990
H         -2.61090        0.65210        1.02120
H          0.06890        2.10960        0.53250
H         -0.30240        1.04460        1.88330
H          0.49420       -1.70330       -1.85420
H          0.14190       -0.55590       -4.03100
H          1.55710        0.73590       -5.60080
H          2.59350        2.87540       -4.87340
H          2.18120        3.72660       -2.57830
H          0.78950        2.44350       -1.00610
H         -1.41090       -1.23760        0.98420
H         -0.23600       -4.72510       -0.72620
H         -1.23990       -6.78460        0.27180
H         -1.52040       -4.77730        4.09460
H         -0.53160       -2.72730        3.08410
