rmsd52.gzmat
 OpenBabel08211713413D

 43 45  0  0  1  0  0  0  0  0999 V2000
    0.0000    0.0000    0.0000 C   0  0  1  0  0  0  0  0  0  0  0  0
    1.1276    0.0000    0.0000 H   0  0  0  0  0  0  0  0  0  0  0  0
   -0.4818    0.0000   -1.4933 C   0  0  2  0  0  0  0  0  0  0  0  0
   -1.9675    0.3659   -1.6480 C   0  0  0  0  0  0  0  0  0  0  0  0
   -2.2956    1.6597   -0.9072 C   0  0  0  0  0  0  0  0  0  0  0  0
   -1.9909    1.5089    0.5863 C   0  0  0  0  0  0  0  0  0  0  0  0
   -0.5065    1.2098    0.8091 C   0  0  0  0  0  0  0  0  0  0  0  0
   -0.4248   -1.3401   -1.9519 O   0  0  0  0  0  0  0  0  0  0  0  0
    0.3826    0.8403   -2.4096 C   0  0  0  0  0  0  0  0  0  0  0  0
    0.4867    0.4306   -3.7431 C   0  0  0  0  0  0  0  0  0  0  0  0
    1.2595    1.1559   -4.6444 C   0  0  0  0  0  0  0  0  0  0  0  0
    1.9335    2.3010   -4.2216 C   0  0  0  0  0  0  0  0  0  0  0  0
    1.8285    2.7147   -2.8964 C   0  0  0  0  0  0  0  0  0  0  0  0
    1.0531    1.9876   -1.9936 C   0  0  0  0  0  0  0  0  0  0  0  0
   -0.4470   -1.2259    0.6776 N   0  0  0  0  0  0  0  0  0  0  0  0
    0.2704   -2.3924    0.4924 C   0  0  0  0  0  0  0  0  0  0  0  0
    1.3260   -2.3896   -0.1178 O   0  0  0  0  0  0  0  0  0  0  0  0
   -0.2754   -3.6241    1.1244 C   0  0  0  0  0  0  0  0  0  0  0  0
   -0.8697   -3.6021    2.3861 C   0  0  0  0  0  0  0  0  0  0  0  0
   -1.3524   -4.7853    2.9424 C   0  0  0  0  0  0  0  0  0  0  0  0
   -1.2153   -5.9604    2.2140 C   0  0  0  0  0  0  0  0  0  0  0  0
   -0.6137   -6.0092    0.9626 C   0  0  0  0  0  0  0  0  0  0  0  0
   -0.1347   -4.8200    0.4170 C   0  0  0  0  0  0  0  0  0  0  0  0
   -1.8112   -7.4132    2.8941 Cl  0  0  0  0  0  0  0  0  0  0  0  0
   -2.2159    0.4545   -2.7236 H   0  0  0  0  0  0  0  0  0  0  0  0
   -2.5877   -0.4738   -1.2763 H   0  0  0  0  0  0  0  0  0  0  0  0
   -1.7155    2.5004   -1.3359 H   0  0  0  0  0  0  0  0  0  0  0  0
   -3.3596    1.9220   -1.0567 H   0  0  0  0  0  0  0  0  0  0  0  0
   -2.2723    2.4335    1.1250 H   0  0  0  0  0  0  0  0  0  0  0  0
   -2.6174    0.7097    1.0227 H   0  0  0  0  0  0  0  0  0  0  0  0
    0.0958    2.1033    0.5499 H   0  0  0  0  0  0  0  0  0  0  0  0
   -0.3129    1.0334    1.8870 H   0  0  0  0  0  0  0  0  0  0  0  0
    0.4894   -1.7011   -1.8657 H   0  0  0  0  0  0  0  0  0  0  0  0
   -0.0423   -0.4659   -4.0753 H   0  0  0  0  0  0  0  0  0  0  0  0
    1.3378    0.8277   -5.6789 H   0  0  0  0  0  0  0  0  0  0  0  0
    2.5389    2.8682   -4.9246 H   0  0  0  0  0  0  0  0  0  0  0  0
    2.3551    3.6059   -2.5614 H   0  0  0  0  0  0  0  0  0  0  0  0
    0.9823    2.3326   -0.9640 H   0  0  0  0  0  0  0  0  0  0  0  0
   -1.4131   -1.2520    0.9629 H   0  0  0  0  0  0  0  0  0  0  0  0
   -0.9463   -2.6693    2.9464 H   0  0  0  0  0  0  0  0  0  0  0  0
   -1.8214   -4.7819    3.9257 H   0  0  0  0  0  0  0  0  0  0  0  0
   -0.5115   -6.9477    0.4171 H   0  0  0  0  0  0  0  0  0  0  0  0
    0.3597   -4.8177   -0.5594 H   0  0  0  0  0  0  0  0  0  0  0  0
  1  3  1  0  0  0  0
  1  2  1  1  0  0  0
  1 15  1  0  0  0  0
  1  7  1  0  0  0  0
  3  8  1  6  0  0  0
  4  3  1  0  0  0  0
  4 26  1  0  0  0  0
  4  5  1  0  0  0  0
  5  6  1  0  0  0  0
  6  7  1  0  0  0  0
  6 30  1  0  0  0  0
  6 29  1  0  0  0  0
  7 32  1  0  0  0  0
  8 33  1  0  0  0  0
  9 14  1  0  0  0  0
  9  3  1  0  0  0  0
 10  9  2  0  0  0  0
 11 12  2  0  0  0  0
 11 10  1  0  0  0  0
 12 13  1  0  0  0  0
 13 37  1  0  0  0  0
 13 14  2  0  0  0  0
 14 38  1  0  0  0  0
 15 39  1  0  0  0  0
 16 15  1  0  0  0  0
 16 18  1  0  0  0  0
 17 16  2  0  0  0  0
 18 19  2  0  0  0  0
 19 20  1  0  0  0  0
 19 40  1  0  0  0  0
 20 41  1  0  0  0  0
 21 24  1  0  0  0  0
 21 20  2  0  0  0  0
 22 21  1  0  0  0  0
 23 22  2  0  0  0  0
 23 18  1  0  0  0  0
 25  4  1  0  0  0  0
 27  5  1  0  0  0  0
 28  5  1  0  0  0  0
 31  7  1  0  0  0  0
 34 10  1  0  0  0  0
 35 11  1  0  0  0  0
 36 12  1  0  0  0  0
 42 22  1  0  0  0  0
 43 23  1  0  0  0  0
M  END
$$$$
