rmsd169.gzmat
 OpenBabel08211713413D

 43 45  0  0  1  0  0  0  0  0999 V2000
    0.0000    0.0000    0.0000 C   0  0  1  0  0  0  0  0  0  0  0  0
    1.1270    0.0000    0.0000 H   0  0  0  0  0  0  0  0  0  0  0  0
   -0.4775    0.0000   -1.4963 C   0  0  2  0  0  0  0  0  0  0  0  0
   -1.9599    0.3767   -1.6608 C   0  0  0  0  0  0  0  0  0  0  0  0
   -2.2892    1.6683   -0.9158 C   0  0  0  0  0  0  0  0  0  0  0  0
   -1.9951    1.5052    0.5784 C   0  0  0  0  0  0  0  0  0  0  0  0
   -0.5113    1.2071    0.8090 C   0  0  0  0  0  0  0  0  0  0  0  0
   -0.4309   -1.3412   -1.9496 O   0  0  0  0  0  0  0  0  0  0  0  0
    0.3963    0.8400   -2.4035 C   0  0  0  0  0  0  0  0  0  0  0  0
    0.6165    0.3798   -3.7055 C   0  0  0  0  0  0  0  0  0  0  0  0
    1.3935    1.1202   -4.5918 C   0  0  0  0  0  0  0  0  0  0  0  0
    1.9506    2.3327   -4.1876 C   0  0  0  0  0  0  0  0  0  0  0  0
    1.7282    2.7978   -2.8942 C   0  0  0  0  0  0  0  0  0  0  0  0
    0.9529    2.0535   -2.0056 C   0  0  0  0  0  0  0  0  0  0  0  0
   -0.4485   -1.2268    0.6730 N   0  0  0  0  0  0  0  0  0  0  0  0
    0.2502   -2.4019    0.4853 C   0  0  0  0  0  0  0  0  0  0  0  0
    1.3124   -2.4198   -0.1097 O   0  0  0  0  0  0  0  0  0  0  0  0
   -0.3383   -3.6050    1.1375 C   0  0  0  0  0  0  0  0  0  0  0  0
   -1.5712   -4.1001    0.7132 C   0  0  0  0  0  0  0  0  0  0  0  0
   -2.1081   -5.2303    1.3272 C   0  0  0  0  0  0  0  0  0  0  0  0
   -1.3827   -5.8306    2.3493 C   0  0  0  0  0  0  0  0  0  0  0  0
   -0.1446   -5.3642    2.7736 C   0  0  0  0  0  0  0  0  0  0  0  0
    0.3851   -4.2359    2.1501 C   0  0  0  0  0  0  0  0  0  0  0  0
   -2.0425   -7.2080    3.1220 Cl  0  0  0  0  0  0  0  0  0  0  0  0
   -2.1985    0.4706   -2.7381 H   0  0  0  0  0  0  0  0  0  0  0  0
   -2.5865   -0.4614   -1.2968 H   0  0  0  0  0  0  0  0  0  0  0  0
   -1.7053    2.5112   -1.3349 H   0  0  0  0  0  0  0  0  0  0  0  0
   -3.3505    1.9368   -1.0719 H   0  0  0  0  0  0  0  0  0  0  0  0
   -2.2819    2.4238    1.1246 H   0  0  0  0  0  0  0  0  0  0  0  0
   -2.6237    0.7008    1.0024 H   0  0  0  0  0  0  0  0  0  0  0  0
    0.0918    2.1021    0.5558 H   0  0  0  0  0  0  0  0  0  0  0  0
   -0.3227    1.0311    1.8879 H   0  0  0  0  0  0  0  0  0  0  0  0
    0.4787   -1.7141   -1.8624 H   0  0  0  0  0  0  0  0  0  0  0  0
    0.1708   -0.5636   -4.0297 H   0  0  0  0  0  0  0  0  0  0  0  0
    1.5643    0.7518   -5.6015 H   0  0  0  0  0  0  0  0  0  0  0  0
    2.5566    2.9135   -4.8792 H   0  0  0  0  0  0  0  0  0  0  0  0
    2.1610    3.7429   -2.5730 H   0  0  0  0  0  0  0  0  0  0  0  0
    0.7883    2.4375   -1.0006 H   0  0  0  0  0  0  0  0  0  0  0  0
   -1.3951   -1.2331    1.0166 H   0  0  0  0  0  0  0  0  0  0  0  0
   -2.1066   -3.6157   -0.1057 H   0  0  0  0  0  0  0  0  0  0  0  0
   -3.0696   -5.6292    1.0050 H   0  0  0  0  0  0  0  0  0  0  0  0
    0.4066   -5.8647    3.5694 H   0  0  0  0  0  0  0  0  0  0  0  0
    1.3641   -3.8504    2.4443 H   0  0  0  0  0  0  0  0  0  0  0  0
  1  3  1  0  0  0  0
  1  2  1  1  0  0  0
  1 15  1  0  0  0  0
  1  7  1  0  0  0  0
  3  8  1  6  0  0  0
  4  3  1  0  0  0  0
  4 26  1  0  0  0  0
  4  5  1  0  0  0  0
  5  6  1  0  0  0  0
  6  7  1  0  0  0  0
  6 30  1  0  0  0  0
  6 29  1  0  0  0  0
  7 32  1  0  0  0  0
  8 33  1  0  0  0  0
  9 14  1  0  0  0  0
  9  3  1  0  0  0  0
 10  9  2  0  0  0  0
 11 12  2  0  0  0  0
 11 10  1  0  0  0  0
 12 13  1  0  0  0  0
 13 37  1  0  0  0  0
 13 14  2  0  0  0  0
 14 38  1  0  0  0  0
 15 39  1  0  0  0  0
 16 15  1  0  0  0  0
 16 18  1  0  0  0  0
 17 16  2  0  0  0  0
 18 23  1  0  0  0  0
 19 18  2  0  0  0  0
 19 20  1  0  0  0  0
 20 21  2  0  0  0  0
 21 22  1  0  0  0  0
 21 24  1  0  0  0  0
 22 42  1  0  0  0  0
 23 43  1  0  0  0  0
 23 22  2  0  0  0  0
 25  4  1  0  0  0  0
 27  5  1  0  0  0  0
 28  5  1  0  0  0  0
 31  7  1  0  0  0  0
 34 10  1  0  0  0  0
 35 11  1  0  0  0  0
 36 12  1  0  0  0  0
 40 19  1  0  0  0  0
 41 20  1  0  0  0  0
M  END
$$$$
