43
rmsd142.gzmat
C          0.00000        0.00000        0.00000
H          1.12660        0.00000        0.00000
C         -0.48820        0.00000       -1.49270
C         -1.98160        0.34210       -1.63230
C         -2.31800        1.63400       -0.89060
C         -2.00420        1.48250        0.60080
C         -0.51350        1.20390        0.81220
O         -0.41430       -1.34050       -1.95210
C          0.35250        0.85520       -2.41470
C          0.42380        0.47050       -3.75790
C          1.17050        1.21570       -4.66510
C          1.85160        2.35510       -4.23790
C          1.77760        2.74480       -2.90350
C          1.02920        1.99700       -1.99410
N         -0.45230       -1.23140        0.66140
C          0.24820       -2.40440        0.44950
O          1.34320       -2.40720       -0.07850
C         -0.41880       -3.63170        0.96840
C         -1.38390       -4.25150        0.17420
C         -2.00580       -5.41180        0.62920
C         -1.63430       -5.91290        1.87120
C         -0.67130       -5.31370        2.67300
C         -0.05220       -4.15470        2.20640
Cl        -2.39710       -7.33770        2.43560
H         -2.24530        0.42340       -2.70450
H         -2.58520       -0.50410       -1.24900
H         -1.74560        2.47990       -1.31970
H         -3.38400        1.88920       -1.03560
H         -2.29450        2.40090        1.14530
H         -2.61860        0.67360        1.03780
H          0.07350        2.10600        0.54840
H         -0.30960        1.02960        1.88840
H          0.51490       -1.67150       -1.92550
H         -0.11090       -0.42100       -4.09360
H          1.22180        0.90840       -5.70780
H          2.43960        2.93660       -4.94420
H          2.30630        3.63360       -2.56590
H          0.98470        2.32160       -0.95630
H         -1.42030       -1.25640        0.94390
H         -1.64070       -3.83220       -0.80230
H         -2.75950       -5.90960        0.01930
H         -0.39610       -5.73380        3.64010
H          0.71910       -3.66560        2.80330
