rmsd43.gzmat
 OpenBabel08211713413D

 43 45  0  0  1  0  0  0  0  0999 V2000
    0.0000    0.0000    0.0000 C   0  0  1  0  0  0  0  0  0  0  0  0
    1.1265    0.0000    0.0000 H   0  0  0  0  0  0  0  0  0  0  0  0
   -0.4805    0.0000   -1.4949 C   0  0  2  0  0  0  0  0  0  0  0  0
   -1.9671    0.3596   -1.6535 C   0  0  0  0  0  0  0  0  0  0  0  0
   -2.3167    1.6380   -0.8952 C   0  0  0  0  0  0  0  0  0  0  0  0
   -2.0057    1.4734    0.5959 C   0  0  0  0  0  0  0  0  0  0  0  0
   -0.5130    1.2072    0.8070 C   0  0  0  0  0  0  0  0  0  0  0  0
   -0.4184   -1.3403   -1.9516 O   0  0  0  0  0  0  0  0  0  0  0  0
    0.3874    0.8439   -2.4042 C   0  0  0  0  0  0  0  0  0  0  0  0
    0.6005    0.3813   -3.7066 C   0  0  0  0  0  0  0  0  0  0  0  0
    1.3912    1.1078   -4.5918 C   0  0  0  0  0  0  0  0  0  0  0  0
    1.9689    2.3100   -4.1860 C   0  0  0  0  0  0  0  0  0  0  0  0
    1.7424    2.7837   -2.8966 C   0  0  0  0  0  0  0  0  0  0  0  0
    0.9544    2.0527   -2.0084 C   0  0  0  0  0  0  0  0  0  0  0  0
   -0.4505   -1.2238    0.6778 N   0  0  0  0  0  0  0  0  0  0  0  0
    0.2444   -2.4024    0.4863 C   0  0  0  0  0  0  0  0  0  0  0  0
    1.2995   -2.4254   -0.1216 O   0  0  0  0  0  0  0  0  0  0  0  0
   -0.3530   -3.6103    1.1197 C   0  0  0  0  0  0  0  0  0  0  0  0
   -0.5341   -4.7435    0.3256 C   0  0  0  0  0  0  0  0  0  0  0  0
   -1.0889   -5.8944    0.8822 C   0  0  0  0  0  0  0  0  0  0  0  0
   -1.4355   -5.8728    2.2275 C   0  0  0  0  0  0  0  0  0  0  0  0
   -1.2486   -4.7608    3.0396 C   0  0  0  0  0  0  0  0  0  0  0  0
   -0.6983   -3.6137    2.4707 C   0  0  0  0  0  0  0  0  0  0  0  0
   -2.1268   -7.2792    2.9157 Cl  0  0  0  0  0  0  0  0  0  0  0  0
   -2.2084    0.4611   -2.7295 H   0  0  0  0  0  0  0  0  0  0  0  0
   -2.5818   -0.4915   -1.2977 H   0  0  0  0  0  0  0  0  0  0  0  0
   -1.7537    2.4963   -1.3119 H   0  0  0  0  0  0  0  0  0  0  0  0
   -3.3858    1.8823   -1.0395 H   0  0  0  0  0  0  0  0  0  0  0  0
   -2.3070    2.3824    1.1499 H   0  0  0  0  0  0  0  0  0  0  0  0
   -2.6109    0.6521    1.0212 H   0  0  0  0  0  0  0  0  0  0  0  0
    0.0689    2.1096    0.5325 H   0  0  0  0  0  0  0  0  0  0  0  0
   -0.3024    1.0446    1.8833 H   0  0  0  0  0  0  0  0  0  0  0  0
    0.4942   -1.7033   -1.8542 H   0  0  0  0  0  0  0  0  0  0  0  0
    0.1419   -0.5559   -4.0310 H   0  0  0  0  0  0  0  0  0  0  0  0
    1.5571    0.7359   -5.6008 H   0  0  0  0  0  0  0  0  0  0  0  0
    2.5935    2.8754   -4.8734 H   0  0  0  0  0  0  0  0  0  0  0  0
    2.1812    3.7266   -2.5783 H   0  0  0  0  0  0  0  0  0  0  0  0
    0.7895    2.4435   -1.0061 H   0  0  0  0  0  0  0  0  0  0  0  0
   -1.4109   -1.2376    0.9842 H   0  0  0  0  0  0  0  0  0  0  0  0
   -0.2360   -4.7251   -0.7262 H   0  0  0  0  0  0  0  0  0  0  0  0
   -1.2399   -6.7846    0.2718 H   0  0  0  0  0  0  0  0  0  0  0  0
   -1.5204   -4.7773    4.0946 H   0  0  0  0  0  0  0  0  0  0  0  0
   -0.5316   -2.7273    3.0841 H   0  0  0  0  0  0  0  0  0  0  0  0
  1  3  1  0  0  0  0
  1  2  1  1  0  0  0
  1 15  1  0  0  0  0
  1  7  1  0  0  0  0
  3  8  1  6  0  0  0
  4  3  1  0  0  0  0
  4 26  1  0  0  0  0
  4  5  1  0  0  0  0
  5  6  1  0  0  0  0
  6  7  1  0  0  0  0
  6 30  1  0  0  0  0
  6 29  1  0  0  0  0
  7 32  1  0  0  0  0
  8 33  1  0  0  0  0
  9 14  1  0  0  0  0
  9  3  1  0  0  0  0
 10  9  2  0  0  0  0
 11 12  2  0  0  0  0
 11 10  1  0  0  0  0
 12 13  1  0  0  0  0
 13 37  1  0  0  0  0
 13 14  2  0  0  0  0
 14 38  1  0  0  0  0
 15 39  1  0  0  0  0
 16 15  1  0  0  0  0
 16 18  1  0  0  0  0
 17 16  2  0  0  0  0
 18 23  2  0  0  0  0
 19 20  2  0  0  0  0
 19 18  1  0  0  0  0
 20 21  1  0  0  0  0
 21 24  1  0  0  0  0
 21 22  2  0  0  0  0
 22 42  1  0  0  0  0
 23 22  1  0  0  0  0
 23 43  1  0  0  0  0
 25  4  1  0  0  0  0
 27  5  1  0  0  0  0
 28  5  1  0  0  0  0
 31  7  1  0  0  0  0
 34 10  1  0  0  0  0
 35 11  1  0  0  0  0
 36 12  1  0  0  0  0
 40 19  1  0  0  0  0
 41 20  1  0  0  0  0
M  END
$$$$
