rmsd172.gzmat
 OpenBabel08211713413D

 43 45  0  0  1  0  0  0  0  0999 V2000
    0.0000    0.0000    0.0000 C   0  0  1  0  0  0  0  0  0  0  0  0
    1.1262    0.0000    0.0000 H   0  0  0  0  0  0  0  0  0  0  0  0
   -0.4884    0.0000   -1.4916 C   0  0  2  0  0  0  0  0  0  0  0  0
   -1.9884    0.3155   -1.6201 C   0  0  0  0  0  0  0  0  0  0  0  0
   -2.3436    1.6046   -0.8827 C   0  0  0  0  0  0  0  0  0  0  0  0
   -2.0074    1.4773    0.6067 C   0  0  0  0  0  0  0  0  0  0  0  0
   -0.5133    1.2080    0.8074 C   0  0  0  0  0  0  0  0  0  0  0  0
   -0.3914   -1.3331   -1.9639 O   0  0  0  0  0  0  0  0  0  0  0  0
    0.3302    0.8780   -2.4131 C   0  0  0  0  0  0  0  0  0  0  0  0
    0.4318    0.4816   -3.7512 C   0  0  0  0  0  0  0  0  0  0  0  0
    1.1545    1.2482   -4.6600 C   0  0  0  0  0  0  0  0  0  0  0  0
    1.7772    2.4237   -4.2413 C   0  0  0  0  0  0  0  0  0  0  0  0
    1.6717    2.8253   -2.9126 C   0  0  0  0  0  0  0  0  0  0  0  0
    0.9515    2.0537   -2.0012 C   0  0  0  0  0  0  0  0  0  0  0  0
   -0.4530   -1.2272    0.6719 N   0  0  0  0  0  0  0  0  0  0  0  0
    0.2384   -2.4065    0.4634 C   0  0  0  0  0  0  0  0  0  0  0  0
    1.3085   -2.4181   -0.1185 O   0  0  0  0  0  0  0  0  0  0  0  0
   -0.3777   -3.6366    1.0337 C   0  0  0  0  0  0  0  0  0  0  0  0
   -0.8769   -3.6647    2.3355 C   0  0  0  0  0  0  0  0  0  0  0  0
   -1.4376   -4.8388    2.8354 C   0  0  0  0  0  0  0  0  0  0  0  0
   -1.4776   -5.9541    2.0074 C   0  0  0  0  0  0  0  0  0  0  0  0
   -0.9795   -5.9514    0.7105 C   0  0  0  0  0  0  0  0  0  0  0  0
   -0.4174   -4.7729    0.2234 C   0  0  0  0  0  0  0  0  0  0  0  0
   -2.1686   -7.3974    2.6147 Cl  0  0  0  0  0  0  0  0  0  0  0  0
   -2.2616    0.3843   -2.6910 H   0  0  0  0  0  0  0  0  0  0  0  0
   -2.5716   -0.5404   -1.2270 H   0  0  0  0  0  0  0  0  0  0  0  0
   -1.7981    2.4606   -1.3270 H   0  0  0  0  0  0  0  0  0  0  0  0
   -3.4181    1.8312   -1.0154 H   0  0  0  0  0  0  0  0  0  0  0  0
   -2.2945    2.4040    1.1396 H   0  0  0  0  0  0  0  0  0  0  0  0
   -2.6124    0.6735    1.0645 H   0  0  0  0  0  0  0  0  0  0  0  0
    0.0669    2.1109    0.5298 H   0  0  0  0  0  0  0  0  0  0  0  0
   -0.2968    1.0460    1.8829 H   0  0  0  0  0  0  0  0  0  0  0  0
    0.5325   -1.6692   -1.8818 H   0  0  0  0  0  0  0  0  0  0  0  0
   -0.0622   -0.4355   -4.0817 H   0  0  0  0  0  0  0  0  0  0  0  0
    1.2325    0.9301   -5.6977 H   0  0  0  0  0  0  0  0  0  0  0  0
    2.3433    3.0238   -4.9498 H   0  0  0  0  0  0  0  0  0  0  0  0
    2.1527    3.7430   -2.5810 H   0  0  0  0  0  0  0  0  0  0  0  0
    0.8837    2.3884   -0.9676 H   0  0  0  0  0  0  0  0  0  0  0  0
   -1.4198   -1.2444    0.9585 H   0  0  0  0  0  0  0  0  0  0  0  0
   -0.8210   -2.7774    2.9675 H   0  0  0  0  0  0  0  0  0  0  0  0
   -1.8300   -4.8741    3.8511 H   0  0  0  0  0  0  0  0  0  0  0  0
   -1.0192   -6.8439    0.0855 H   0  0  0  0  0  0  0  0  0  0  0  0
   -0.0032   -4.7348   -0.7883 H   0  0  0  0  0  0  0  0  0  0  0  0
  1  3  1  0  0  0  0
  1  2  1  1  0  0  0
  1 15  1  0  0  0  0
  1  7  1  0  0  0  0
  3  8  1  6  0  0  0
  4  3  1  0  0  0  0
  4 26  1  0  0  0  0
  4  5  1  0  0  0  0
  5  6  1  0  0  0  0
  6  7  1  0  0  0  0
  6 30  1  0  0  0  0
  6 29  1  0  0  0  0
  7 32  1  0  0  0  0
  8 33  1  0  0  0  0
  9 14  1  0  0  0  0
  9  3  1  0  0  0  0
 10  9  2  0  0  0  0
 11 12  2  0  0  0  0
 11 10  1  0  0  0  0
 12 13  1  0  0  0  0
 13 37  1  0  0  0  0
 13 14  2  0  0  0  0
 14 38  1  0  0  0  0
 15 39  1  0  0  0  0
 16 15  1  0  0  0  0
 16 18  1  0  0  0  0
 17 16  2  0  0  0  0
 18 19  2  0  0  0  0
 19 20  1  0  0  0  0
 19 40  1  0  0  0  0
 20 41  1  0  0  0  0
 21 24  1  0  0  0  0
 21 20  2  0  0  0  0
 22 21  1  0  0  0  0
 23 22  2  0  0  0  0
 23 18  1  0  0  0  0
 25  4  1  0  0  0  0
 27  5  1  0  0  0  0
 28  5  1  0  0  0  0
 31  7  1  0  0  0  0
 34 10  1  0  0  0  0
 35 11  1  0  0  0  0
 36 12  1  0  0  0  0
 42 22  1  0  0  0  0
 43 23  1  0  0  0  0
M  END
$$$$
