rmsd18.gzmat
 OpenBabel08211713363D

 28 29  0  0  1  0  0  0  0  0999 V2000
    0.0000    0.0000    0.0000 C   0  0  0  0  0  0  0  0  0  0  0  0
    1.4418    0.0000    0.0000 C   0  0  1  0  0  0  0  0  0  0  0  0
    2.1124    0.0000    1.2204 C   0  0  0  0  0  0  0  0  0  0  0  0
    1.4138   -0.0035    2.4217 C   0  0  0  0  0  0  0  0  0  0  0  0
    0.0090   -0.0060    2.3532 C   0  0  0  0  0  0  0  0  0  0  0  0
   -0.6748   -0.0040    1.2143 N   0  0  0  0  0  0  0  0  0  0  0  0
    2.2771   -0.0013   -1.2085 C   0  0  0  0  0  0  0  0  0  0  0  0
    3.4930   -0.0014   -1.1778 O   0  0  0  0  0  0  0  0  0  0  0  0
    1.6975   -0.0034   -2.4219 O   0  0  0  0  0  0  0  0  0  0  0  0
   -0.6397    0.0010   -1.1772 N   0  0  0  0  0  0  0  0  0  0  0  0
   -1.9918    0.0046   -1.4185 C   0  0  0  0  0  0  0  0  0  0  0  0
   -2.3374   -0.0271   -2.8003 C   0  0  0  0  0  0  0  0  0  0  0  0
   -3.6676   -0.0274   -3.1791 C   0  0  0  0  0  0  0  0  0  0  0  0
   -4.6985    0.0058   -2.2367 C   0  0  0  0  0  0  0  0  0  0  0  0
   -4.3665    0.0394   -0.8842 C   0  0  0  0  0  0  0  0  0  0  0  0
   -3.0410    0.0396   -0.4749 C   0  0  0  0  0  0  0  0  0  0  0  0
   -4.0617   -0.0640   -4.6254 C   0  0  0  0  0  0  0  0  0  0  0  0
   -4.8253   -1.1108   -4.9579 F   0  0  0  0  0  0  0  0  0  0  0  0
   -4.7875    0.9879   -5.0208 F   0  0  0  0  0  0  0  0  0  0  0  0
   -3.0732   -0.1090   -5.5193 F   0  0  0  0  0  0  0  0  0  0  0  0
    3.2074    0.0027    1.2242 H   0  0  0  0  0  0  0  0  0  0  0  0
    1.9226   -0.0055    3.3699 H   0  0  0  0  0  0  0  0  0  0  0  0
   -0.5954   -0.0095    3.2678 H   0  0  0  0  0  0  0  0  0  0  0  0
    0.6740   -0.0021   -2.3708 H   0  0  0  0  0  0  0  0  0  0  0  0
   -1.5263   -0.0512   -3.5263 H   0  0  0  0  0  0  0  0  0  0  0  0
   -5.7382    0.0054   -2.5410 H   0  0  0  0  0  0  0  0  0  0  0  0
   -5.1587    0.0654   -0.1392 H   0  0  0  0  0  0  0  0  0  0  0  0
   -2.8035    0.0662    0.5898 H   0  0  0  0  0  0  0  0  0  0  0  0
  1  2  1  0  0  0  0
  1  6  2  0  0  0  0
  2  7  1  1  0  0  0
  2  3  1  0  0  0  0
  3 21  1  0  0  0  0
  3  4  2  0  0  0  0
  4 22  1  0  0  0  0
  5  4  1  0  0  0  0
  5 23  1  0  0  0  0
  6  5  2  0  0  0  0
  7  8  2  0  0  0  0
  9 24  1  0  0  0  0
  9  7  1  0  0  0  0
 10  1  1  0  0  0  0
 11 10  1  0  0  0  0
 11 16  2  0  0  0  0
 12 11  1  0  0  0  0
 13 12  2  0  0  0  0
 13 14  1  0  0  0  0
 14 15  2  0  0  0  0
 15 16  1  0  0  0  0
 15 27  1  0  0  0  0
 16 28  1  0  0  0  0
 17 13  1  0  0  0  0
 18 17  1  0  0  0  0
 19 17  1  0  0  0  0
 20 17  1  0  0  0  0
 25 12  1  0  0  0  0
 26 14  1  0  0  0  0
M  RAD  2   2   2  10   2
M  END
$$$$
