28
rmsd37.gzmat
C          0.00000        0.00000        0.00000
C          1.44150        0.00000        0.00000
C          2.11160        0.00000        1.22100
C          1.41310       -0.00770        2.42220
C          0.00820       -0.02700        2.35320
N         -0.67430       -0.02380        1.21390
C          2.27760       -0.00360       -1.20790
O          3.49260       -0.04730       -1.17730
O          1.69950        0.04640       -2.42130
N         -0.64220        0.03510       -1.17530
C         -1.99620        0.03170       -1.40830
C         -2.35690        0.19750       -2.77600
C         -3.69120        0.20600       -3.14260
C         -4.71140        0.05550       -2.20000
C         -4.36390       -0.11470       -0.86170
C         -3.03470       -0.12890       -0.46540
C         -4.09520        0.39960       -4.57390
F         -4.98520       -0.49190       -5.02410
F         -4.68380        1.57580       -4.81760
F         -3.12330        0.34420       -5.48540
H          3.20670        0.00430        1.22540
H          1.92140       -0.00180        3.37070
H         -0.59780       -0.04770        3.26670
H          0.67680        0.06830       -2.37130
H         -1.55440        0.32030       -3.50160
H         -5.75430        0.07130       -2.49200
H         -5.14520       -0.23670       -0.11560
H         -2.78610       -0.26100        0.58910
