28
rmsd14.gzmat
C          0.00000        0.00000        0.00000
C          1.44100        0.00000        0.00000
C          2.10960        0.00000        1.22230
C          1.40830       -0.00230        2.42100
C          0.00190       -0.00480        2.35100
N         -0.68120       -0.01130        1.21320
C          2.27390        0.00400       -1.20820
O          3.48980        0.00760       -1.18230
O          1.69230       -0.00110       -2.42270
N         -0.64720        0.05820       -1.16860
C         -2.00360       -0.01670       -1.38290
C         -2.44070        0.49650       -2.63440
C         -3.77360        0.39170       -2.99160
C         -4.71230       -0.21080       -2.15080
C         -4.28850       -0.70820       -0.91950
C         -2.95990       -0.61220       -0.53250
C         -4.26440        0.93850       -4.29860
F         -4.89420        0.04390       -5.06820
F         -5.15840        1.92550       -4.17360
F         -3.34700        1.45490       -5.11710
H          3.20470        0.00370        1.22710
H          1.91290       -0.00180        3.37120
H         -0.60180       -0.00190        3.26580
H          0.67270        0.02790       -2.37470
H         -1.69900        0.96800       -3.27710
H         -5.75290       -0.29310       -2.43990
H         -5.00990       -1.17660       -0.25420
H         -2.64200       -0.99060        0.43940
