rmsd12.gzmat
 OpenBabel08211713363D

 28 29  0  0  1  0  0  0  0  0999 V2000
    0.0000    0.0000    0.0000 C   0  0  0  0  0  0  0  0  0  0  0  0
    1.4408    0.0000    0.0000 C   0  0  1  0  0  0  0  0  0  0  0  0
    2.1087    0.0000    1.2230 C   0  0  0  0  0  0  0  0  0  0  0  0
    1.4079    0.0060    2.4218 C   0  0  0  0  0  0  0  0  0  0  0  0
    0.0014    0.0239    2.3520 C   0  0  0  0  0  0  0  0  0  0  0  0
   -0.6811    0.0305    1.2143 N   0  0  0  0  0  0  0  0  0  0  0  0
    2.2758   -0.0093   -1.2064 C   0  0  0  0  0  0  0  0  0  0  0  0
    3.4905    0.0441   -1.1804 O   0  0  0  0  0  0  0  0  0  0  0  0
    1.6984   -0.0863   -2.4210 O   0  0  0  0  0  0  0  0  0  0  0  0
   -0.6499   -0.0833   -1.1652 N   0  0  0  0  0  0  0  0  0  0  0  0
   -2.0099   -0.0269   -1.3671 C   0  0  0  0  0  0  0  0  0  0  0  0
   -2.4651   -0.6115   -2.5794 C   0  0  0  0  0  0  0  0  0  0  0  0
   -3.8072   -0.5472   -2.9123 C   0  0  0  0  0  0  0  0  0  0  0  0
   -4.7366    0.0892   -2.0863 C   0  0  0  0  0  0  0  0  0  0  0  0
   -4.2928    0.6657   -0.8972 C   0  0  0  0  0  0  0  0  0  0  0  0
   -2.9548    0.6116   -0.5352 C   0  0  0  0  0  0  0  0  0  0  0  0
   -4.3155   -1.1763   -4.1751 C   0  0  0  0  0  0  0  0  0  0  0  0
   -5.2288   -2.1338   -3.9781 F   0  0  0  0  0  0  0  0  0  0  0  0
   -4.9306   -0.3258   -5.0041 F   0  0  0  0  0  0  0  0  0  0  0  0
   -3.4125   -1.7691   -4.9573 F   0  0  0  0  0  0  0  0  0  0  0  0
    3.2038   -0.0067    1.2280 H   0  0  0  0  0  0  0  0  0  0  0  0
    1.9138   -0.0019    3.3714 H   0  0  0  0  0  0  0  0  0  0  0  0
   -0.6025    0.0338    3.2672 H   0  0  0  0  0  0  0  0  0  0  0  0
    0.6802   -0.1283   -2.3743 H   0  0  0  0  0  0  0  0  0  0  0  0
   -1.7298   -1.1064   -3.2115 H   0  0  0  0  0  0  0  0  0  0  0  0
   -5.7855    0.1365   -2.3534 H   0  0  0  0  0  0  0  0  0  0  0  0
   -5.0069    1.1606   -0.2435 H   0  0  0  0  0  0  0  0  0  0  0  0
   -2.6198    1.0542    0.4034 H   0  0  0  0  0  0  0  0  0  0  0  0
  1  2  1  0  0  0  0
  1  6  2  0  0  0  0
  2  7  1  1  0  0  0
  2  3  1  0  0  0  0
  3 21  1  0  0  0  0
  3  4  2  0  0  0  0
  4 22  1  0  0  0  0
  5  4  1  0  0  0  0
  5 23  1  0  0  0  0
  6  5  2  0  0  0  0
  7  8  2  0  0  0  0
  9 24  1  0  0  0  0
  9  7  1  0  0  0  0
 10  1  1  0  0  0  0
 11 10  1  0  0  0  0
 11 16  2  0  0  0  0
 12 11  1  0  0  0  0
 13 12  2  0  0  0  0
 13 14  1  0  0  0  0
 14 15  2  0  0  0  0
 15 16  1  0  0  0  0
 15 27  1  0  0  0  0
 16 28  1  0  0  0  0
 17 18  1  0  0  0  0
 17 13  1  0  0  0  0
 19 17  1  0  0  0  0
 20 17  1  0  0  0  0
 25 12  1  0  0  0  0
 26 14  1  0  0  0  0
M  RAD  2   2   2  10   2
M  END
$$$$
