28
rmsd5.gzmat
C          0.00000        0.00000        0.00000
C          1.44120        0.00000        0.00000
C          2.11090        0.00000        1.22120
C          1.41040        0.00580        2.42100
C          0.00470        0.00780        2.35150
N         -0.67890       -0.00100        1.21340
C          2.27530        0.00100       -1.20870
O          3.49090       -0.03410       -1.18060
O          1.69580        0.04750       -2.42250
N         -0.64270        0.03630       -1.17340
C         -1.99580       -0.03090       -1.40310
C         -2.39070        0.34100       -2.71870
C         -3.72150        0.25840       -3.08720
C         -4.70150       -0.19370       -2.19980
C         -4.31960       -0.55950       -0.91050
C         -2.99370       -0.47800       -0.51010
C         -4.16710        0.65850       -4.46190
F         -4.75640       -0.32330       -5.15330
F         -5.07560        1.64030       -4.47740
F         -3.22600        1.10030       -5.29720
H          3.20600       -0.00520        1.22520
H          1.91580        0.00720        3.37070
H         -0.59920        0.01430        3.26630
H          0.67420        0.07030       -2.37320
H         -1.61740        0.68820       -3.40240
H         -5.74060       -0.26090       -2.49830
H         -5.07210       -0.91220       -0.20870
H         -2.71270       -0.75540        0.50640
