rmsd10.gzmat
 OpenBabel08211713363D

 28 29  0  0  1  0  0  0  0  0999 V2000
    0.0000    0.0000    0.0000 C   0  0  0  0  0  0  0  0  0  0  0  0
    1.4412    0.0000    0.0000 C   0  0  1  0  0  0  0  0  0  0  0  0
    2.1116    0.0000    1.2210 C   0  0  0  0  0  0  0  0  0  0  0  0
    1.4118    0.0141    2.4211 C   0  0  0  0  0  0  0  0  0  0  0  0
    0.0065    0.0441    2.3513 C   0  0  0  0  0  0  0  0  0  0  0  0
   -0.6778    0.0418    1.2133 N   0  0  0  0  0  0  0  0  0  0  0  0
    2.2744   -0.0019   -1.2092 C   0  0  0  0  0  0  0  0  0  0  0  0
    3.4889    0.0590   -1.1823 O   0  0  0  0  0  0  0  0  0  0  0  0
    1.6952   -0.0779   -2.4214 O   0  0  0  0  0  0  0  0  0  0  0  0
   -0.6413   -0.0789   -1.1721 N   0  0  0  0  0  0  0  0  0  0  0  0
   -1.9940   -0.0303   -1.4076 C   0  0  0  0  0  0  0  0  0  0  0  0
   -2.3813   -0.4446   -2.7130 C   0  0  0  0  0  0  0  0  0  0  0  0
   -3.7108   -0.3791   -3.0901 C   0  0  0  0  0  0  0  0  0  0  0  0
   -4.6966    0.0907   -2.2187 C   0  0  0  0  0  0  0  0  0  0  0  0
   -4.3224    0.4923   -0.9378 C   0  0  0  0  0  0  0  0  0  0  0  0
   -2.9975    0.4339   -0.5303 C   0  0  0  0  0  0  0  0  0  0  0  0
   -4.1451   -0.8058   -4.4608 C   0  0  0  0  0  0  0  0  0  0  0  0
   -5.1266   -1.7150   -4.4686 F   0  0  0  0  0  0  0  0  0  0  0  0
   -4.6358    0.1869   -5.2111 F   0  0  0  0  0  0  0  0  0  0  0  0
   -3.2149   -1.3551   -5.2431 F   0  0  0  0  0  0  0  0  0  0  0  0
    3.2067   -0.0117    1.2249 H   0  0  0  0  0  0  0  0  0  0  0  0
    1.9176    0.0050    3.3711 H   0  0  0  0  0  0  0  0  0  0  0  0
   -0.5965    0.0728    3.2662 H   0  0  0  0  0  0  0  0  0  0  0  0
    0.6741   -0.1202   -2.3707 H   0  0  0  0  0  0  0  0  0  0  0  0
   -1.6024   -0.8073   -3.3821 H   0  0  0  0  0  0  0  0  0  0  0  0
   -5.7349    0.1458   -2.5227 H   0  0  0  0  0  0  0  0  0  0  0  0
   -5.0801    0.8561   -0.2481 H   0  0  0  0  0  0  0  0  0  0  0  0
   -2.7208    0.7441    0.4782 H   0  0  0  0  0  0  0  0  0  0  0  0
  1  2  1  0  0  0  0
  1  6  2  0  0  0  0
  2  7  1  1  0  0  0
  2  3  1  0  0  0  0
  3 21  1  0  0  0  0
  3  4  2  0  0  0  0
  4 22  1  0  0  0  0
  5  4  1  0  0  0  0
  5 23  1  0  0  0  0
  6  5  2  0  0  0  0
  7  8  2  0  0  0  0
  9 24  1  0  0  0  0
  9  7  1  0  0  0  0
 10  1  1  0  0  0  0
 11 10  1  0  0  0  0
 11 16  2  0  0  0  0
 12 11  1  0  0  0  0
 13 12  2  0  0  0  0
 13 14  1  0  0  0  0
 14 15  2  0  0  0  0
 15 16  1  0  0  0  0
 15 27  1  0  0  0  0
 16 28  1  0  0  0  0
 17 13  1  0  0  0  0
 18 17  1  0  0  0  0
 19 17  1  0  0  0  0
 20 17  1  0  0  0  0
 25 12  1  0  0  0  0
 26 14  1  0  0  0  0
M  RAD  2   2   2  10   2
M  END
$$$$
