39

Cl         0.01960        0.24260        0.30860
C          1.72690        0.01280        0.29430
C          2.50670       -0.33930        1.37130
S          1.96970       -0.51050        3.02890
C          2.08000       -2.32430        3.25360
N          3.84350       -0.49240        0.90410
S          5.23330       -0.39510        1.93670
O          5.01980       -1.31560        3.04490
O          6.38180       -0.54100        1.04990
C          5.16600        1.27900        2.52880
C          4.72440        1.53500        3.82600
C          4.66220        2.85950        4.26190
C          5.02760        3.92020        3.42060
C          5.47290        3.62420        2.11890
C          5.55030        2.31120        1.66560
C          4.94890        5.34990        3.88710
C          3.87260       -0.19820       -0.47450
C          2.55050        0.11400       -0.87820
C          2.25950        0.41550       -2.21740
C          3.28750        0.42090       -3.15720
C          4.60150        0.10780       -2.73140
C          4.91480       -0.21000       -1.41340
C          3.02400        0.74340       -4.60650
H          1.42520       -2.83380        2.53390
H          1.72880       -2.52230        4.27640
H          3.12270       -2.64710        3.15110
H          4.43130        0.70680        4.46990
H          4.31940        3.07210        5.27740
H          5.76840        4.43920        1.45320
H          5.90710        2.08260        0.66040
H          4.62290        5.41770        4.93460
H          4.23800        5.92560        3.27160
H          5.92770        5.84910        3.80010
H          1.23010        0.64010       -2.50510
H          5.40600        0.10490       -3.47210
H          5.92920       -0.46420       -1.11810
H          3.60920        1.61890       -4.93390
H          1.96120        0.96250       -4.78400
H          3.31000       -0.09680       -5.26100
