rmsd200.gzmat
 OpenBabel08211713383D

 39 41  0  0  0  0  0  0  0  0999 V2000
    0.0000    0.0000    0.0000 Cl  0  0  0  0  0  0  0  0  0  0  0  0
    1.6722    0.0000    0.0000 C   0  0  0  0  0  0  0  0  0  0  0  0
    2.5023    0.0000    1.1023 C   0  0  0  0  0  0  0  0  0  0  0  0
    2.0220   -0.0911    2.7813 S   0  0  0  0  0  0  0  0  0  0  0  0
    1.9572    1.6665    3.2531 C   0  0  0  0  0  0  0  0  0  0  0  0
    3.8464    0.0058    0.6697 N   0  0  0  0  0  0  0  0  0  0  0  0
    5.2915    0.1219    1.6966 S   0  0  0  0  0  0  0  0  0  0  0  0
    6.3867    0.0933    0.7648 O   0  0  0  0  0  0  0  0  0  0  0  0
    5.0831    1.2442    2.5705 O   0  0  0  0  0  0  0  0  0  0  0  0
    5.2549   -1.3645    2.6018 C   0  0  0  0  0  0  0  0  0  0  0  0
    5.4127   -2.5871    1.9465 C   0  0  0  0  0  0  0  0  0  0  0  0
    5.4056   -3.7727    2.6737 C   0  0  0  0  0  0  0  0  0  0  0  0
    5.2434   -3.7446    4.0630 C   0  0  0  0  0  0  0  0  0  0  0  0
    5.0836   -2.5187    4.7153 C   0  0  0  0  0  0  0  0  0  0  0  0
    5.0885   -1.3328    3.9866 C   0  0  0  0  0  0  0  0  0  0  0  0
    5.2612   -5.0136    4.8410 C   0  0  0  0  0  0  0  0  0  0  0  0
    3.8335    0.0292   -0.7396 C   0  0  0  0  0  0  0  0  0  0  0  0
    2.4747    0.0098   -1.1837 C   0  0  0  0  0  0  0  0  0  0  0  0
    2.1685    0.0019   -2.5466 C   0  0  0  0  0  0  0  0  0  0  0  0
    3.2122    0.0162   -3.4550 C   0  0  0  0  0  0  0  0  0  0  0  0
    4.5553    0.0459   -3.0099 C   0  0  0  0  0  0  0  0  0  0  0  0
    4.8838    0.0546   -1.6688 C   0  0  0  0  0  0  0  0  0  0  0  0
    2.9424   -0.0028   -4.9217 C   0  0  0  0  0  0  0  0  0  0  0  0
    2.9588    2.1268    3.2376 H   0  0  0  0  0  0  0  0  0  0  0  0
    1.5655    1.7350    4.2732 H   0  0  0  0  0  0  0  0  0  0  0  0
    1.3045    2.2464    2.5927 H   0  0  0  0  0  0  0  0  0  0  0  0
    5.5453   -2.6348    0.8600 H   0  0  0  0  0  0  0  0  0  0  0  0
    5.5276   -4.7239    2.1610 H   0  0  0  0  0  0  0  0  0  0  0  0
    4.9520   -2.4896    5.7941 H   0  0  0  0  0  0  0  0  0  0  0  0
    4.9595   -0.3813    4.5182 H   0  0  0  0  0  0  0  0  0  0  0  0
    6.2950   -5.3083    5.0852 H   0  0  0  0  0  0  0  0  0  0  0  0
    4.8127   -5.8515    4.2872 H   0  0  0  0  0  0  0  0  0  0  0  0
    4.7177   -4.9365    5.7932 H   0  0  0  0  0  0  0  0  0  0  0  0
    1.1299   -0.0154   -2.8690 H   0  0  0  0  0  0  0  0  0  0  0  0
    5.3499    0.0656   -3.7554 H   0  0  0  0  0  0  0  0  0  0  0  0
    5.9292    0.0891   -1.3508 H   0  0  0  0  0  0  0  0  0  0  0  0
    3.4589    0.8197   -5.4372 H   0  0  0  0  0  0  0  0  0  0  0  0
    1.8737    0.0930   -5.1568 H   0  0  0  0  0  0  0  0  0  0  0  0
    3.2886   -0.9434   -5.3750 H   0  0  0  0  0  0  0  0  0  0  0  0
  2  1  1  0  0  0  0
  2  3  2  0  0  0  0
  3  4  1  0  0  0  0
  4  5  1  0  0  0  0
  5 25  1  0  0  0  0
  6  3  1  0  0  0  0
  6  7  1  0  0  0  0
  7  9  2  0  0  0  0
  7 10  1  0  0  0  0
  8  7  2  0  0  0  0
 10 15  1  0  0  0  0
 11 10  2  0  0  0  0
 11 12  1  0  0  0  0
 12 13  2  0  0  0  0
 13 14  1  0  0  0  0
 13 16  1  0  0  0  0
 14 29  1  0  0  0  0
 15 30  1  0  0  0  0
 15 14  2  0  0  0  0
 16 31  1  0  0  0  0
 16 33  1  0  0  0  0
 17  6  1  0  0  0  0
 18 17  1  0  0  0  0
 18  2  1  0  0  0  0
 19 18  2  0  0  0  0
 20 21  2  0  0  0  0
 20 19  1  0  0  0  0
 21 22  1  0  0  0  0
 22 36  1  0  0  0  0
 22 17  2  0  0  0  0
 23 20  1  0  0  0  0
 24  5  1  0  0  0  0
 26  5  1  0  0  0  0
 27 11  1  0  0  0  0
 28 12  1  0  0  0  0
 32 16  1  0  0  0  0
 34 19  1  0  0  0  0
 35 21  1  0  0  0  0
 37 23  1  0  0  0  0
 38 23  1  0  0  0  0
 39 23  1  0  0  0  0
M  END
$$$$
