rmsd179.gzmat
 OpenBabel08211713383D

 39 41  0  0  0  0  0  0  0  0999 V2000
    0.0000    0.0000    0.0000 Cl  0  0  0  0  0  0  0  0  0  0  0  0
    1.6722    0.0000    0.0000 C   0  0  0  0  0  0  0  0  0  0  0  0
    2.5003    0.0000    1.1037 C   0  0  0  0  0  0  0  0  0  0  0  0
    2.0153   -0.0785    2.7822 S   0  0  0  0  0  0  0  0  0  0  0  0
    1.9371    1.6840    3.2333 C   0  0  0  0  0  0  0  0  0  0  0  0
    3.8455   -0.0005    0.6741 N   0  0  0  0  0  0  0  0  0  0  0  0
    5.2868    0.1312    1.7061 S   0  0  0  0  0  0  0  0  0  0  0  0
    6.3890    0.0764    0.7836 O   0  0  0  0  0  0  0  0  0  0  0  0
    5.0769    1.2743    2.5522 O   0  0  0  0  0  0  0  0  0  0  0  0
    5.2233   -1.3364    2.6391 C   0  0  0  0  0  0  0  0  0  0  0  0
    5.0221   -1.2794    4.0184 C   0  0  0  0  0  0  0  0  0  0  0  0
    4.9602   -2.4548    4.7622 C   0  0  0  0  0  0  0  0  0  0  0  0
    5.0953   -3.6939    4.1305 C   0  0  0  0  0  0  0  0  0  0  0  0
    5.3022   -3.7465    2.7474 C   0  0  0  0  0  0  0  0  0  0  0  0
    5.3702   -2.5722    2.0058 C   0  0  0  0  0  0  0  0  0  0  0  0
    5.0131   -4.9565    4.9145 C   0  0  0  0  0  0  0  0  0  0  0  0
    3.8349    0.0180   -0.7350 C   0  0  0  0  0  0  0  0  0  0  0  0
    2.4768    0.0073   -1.1821 C   0  0  0  0  0  0  0  0  0  0  0  0
    2.1744    0.0068   -2.5457 C   0  0  0  0  0  0  0  0  0  0  0  0
    3.2205    0.0183   -3.4516 C   0  0  0  0  0  0  0  0  0  0  0  0
    4.5629    0.0276   -3.0035 C   0  0  0  0  0  0  0  0  0  0  0  0
    4.8880    0.0285   -1.6617 C   0  0  0  0  0  0  0  0  0  0  0  0
    2.9516    0.0095   -4.9186 C   0  0  0  0  0  0  0  0  0  0  0  0
    2.9189    2.1744    3.1278 H   0  0  0  0  0  0  0  0  0  0  0  0
    1.6335    1.7577    4.2828 H   0  0  0  0  0  0  0  0  0  0  0  0
    1.2120    2.2322    2.6229 H   0  0  0  0  0  0  0  0  0  0  0  0
    4.9058   -0.3172    4.5330 H   0  0  0  0  0  0  0  0  0  0  0  0
    4.7962   -2.4066    5.8361 H   0  0  0  0  0  0  0  0  0  0  0  0
    5.4051   -4.7085    2.2509 H   0  0  0  0  0  0  0  0  0  0  0  0
    5.5399   -2.6378    0.9253 H   0  0  0  0  0  0  0  0  0  0  0  0
    5.8336   -5.6474    4.6694 H   0  0  0  0  0  0  0  0  0  0  0  0
    4.0718   -5.4904    4.7064 H   0  0  0  0  0  0  0  0  0  0  0  0
    5.0510   -4.7922    6.0000 H   0  0  0  0  0  0  0  0  0  0  0  0
    1.1368   -0.0019   -2.8714 H   0  0  0  0  0  0  0  0  0  0  0  0
    5.3593    0.0372   -3.7469 H   0  0  0  0  0  0  0  0  0  0  0  0
    5.9329    0.0441   -1.3406 H   0  0  0  0  0  0  0  0  0  0  0  0
    3.5722    0.7438   -5.4512 H   0  0  0  0  0  0  0  0  0  0  0  0
    1.9053    0.2443   -5.1563 H   0  0  0  0  0  0  0  0  0  0  0  0
    3.1670   -0.9787   -5.3515 H   0  0  0  0  0  0  0  0  0  0  0  0
  2  1  1  0  0  0  0
  2  3  2  0  0  0  0
  3  4  1  0  0  0  0
  4  5  1  0  0  0  0
  5 25  1  0  0  0  0
  6  3  1  0  0  0  0
  6  7  1  0  0  0  0
  7  9  2  0  0  0  0
  7 10  1  0  0  0  0
  8  7  2  0  0  0  0
 10 11  1  0  0  0  0
 11 27  1  0  0  0  0
 11 12  2  0  0  0  0
 12 28  1  0  0  0  0
 13 12  1  0  0  0  0
 13 16  1  0  0  0  0
 14 13  2  0  0  0  0
 15 10  2  0  0  0  0
 15 14  1  0  0  0  0
 16 33  1  0  0  0  0
 17  6  1  0  0  0  0
 18 17  1  0  0  0  0
 18  2  1  0  0  0  0
 19 18  2  0  0  0  0
 20 21  2  0  0  0  0
 20 19  1  0  0  0  0
 21 22  1  0  0  0  0
 22 36  1  0  0  0  0
 22 17  2  0  0  0  0
 23 20  1  0  0  0  0
 24  5  1  0  0  0  0
 26  5  1  0  0  0  0
 29 14  1  0  0  0  0
 30 15  1  0  0  0  0
 31 16  1  0  0  0  0
 32 16  1  0  0  0  0
 34 19  1  0  0  0  0
 35 21  1  0  0  0  0
 37 23  1  0  0  0  0
 38 23  1  0  0  0  0
 39 23  1  0  0  0  0
M  END
$$$$
