39
rmsd207.gzmat
Cl         0.00000        0.00000        0.00000
C          1.67210        0.00000        0.00000
C          2.50270        0.00000        1.10180
S          2.02800       -0.09040        2.78250
C          1.96310        1.66620        3.25810
N          3.84710       -0.00330        0.66860
S          5.28920        0.17080        1.69150
O          6.38710        0.10790        0.76490
O          5.06710        1.33270        2.50910
C          5.26260       -1.26740        2.67190
C          5.40520       -2.52510        2.08180
C          5.39710       -3.66950        2.87190
C          5.24900       -3.56610        4.25980
C          5.10690       -2.30550        4.84640
C          5.11320       -1.16020        4.05480
C          5.23790       -4.79710        5.09720
C          3.83320        0.01610       -0.74100
C          2.47410        0.00630       -1.18450
C          2.16820        0.00610       -2.54740
C          3.21190        0.01680       -3.45630
C          4.55520        0.02620       -3.01180
C          4.88370        0.02500       -1.67050
C          2.94150        0.01010       -4.92310
H          2.93620        2.16580        3.11840
H          1.70450        1.72460        4.32050
H          1.21170        2.21890        2.68620
H          5.52540       -2.63150        0.99800
H          5.50490       -4.64880        2.41070
H          4.98520       -2.21630        5.92320
H          4.99830       -0.18050        4.53650
H          6.07870       -5.46530        4.85720
H          4.31360       -5.37570        4.93730
H          5.29760       -4.58600        6.17400
H          1.12970       -0.00140       -2.86960
H          5.34990        0.03630       -3.75730
H          5.92910        0.03650       -1.35180
H          3.52290        0.78330       -5.44580
H          1.88370        0.19060       -5.15840
H          3.21000       -0.95970       -5.36840
