rmsd173.gzmat
 OpenBabel08211713383D

 39 41  0  0  0  0  0  0  0  0999 V2000
    0.0000    0.0000    0.0000 Cl  0  0  0  0  0  0  0  0  0  0  0  0
    1.6723    0.0000    0.0000 C   0  0  0  0  0  0  0  0  0  0  0  0
    2.5005    0.0000    1.1038 C   0  0  0  0  0  0  0  0  0  0  0  0
    2.0157   -0.0812    2.7820 S   0  0  0  0  0  0  0  0  0  0  0  0
    1.9471    1.6803    3.2387 C   0  0  0  0  0  0  0  0  0  0  0  0
    3.8457   -0.0033    0.6743 N   0  0  0  0  0  0  0  0  0  0  0  0
    5.2871    0.1630    1.7001 S   0  0  0  0  0  0  0  0  0  0  0  0
    6.3855    0.1075    0.7731 O   0  0  0  0  0  0  0  0  0  0  0  0
    5.0652    1.3163    2.5295 O   0  0  0  0  0  0  0  0  0  0  0  0
    5.2565   -1.2853    2.6649 C   0  0  0  0  0  0  0  0  0  0  0  0
    5.4180   -2.5335    2.0622 C   0  0  0  0  0  0  0  0  0  0  0  0
    5.3905   -3.6899    2.8365 C   0  0  0  0  0  0  0  0  0  0  0  0
    5.2166   -3.6048    4.2209 C   0  0  0  0  0  0  0  0  0  0  0  0
    5.0644   -2.3509    4.8227 C   0  0  0  0  0  0  0  0  0  0  0  0
    5.0806   -1.1962    4.0469 C   0  0  0  0  0  0  0  0  0  0  0  0
    5.1918   -4.8344    5.0595 C   0  0  0  0  0  0  0  0  0  0  0  0
    3.8349    0.0151   -0.7355 C   0  0  0  0  0  0  0  0  0  0  0  0
    2.4768    0.0048   -1.1824 C   0  0  0  0  0  0  0  0  0  0  0  0
    2.1742   -0.0010   -2.5462 C   0  0  0  0  0  0  0  0  0  0  0  0
    3.2204    0.0065   -3.4521 C   0  0  0  0  0  0  0  0  0  0  0  0
    4.5627    0.0192   -3.0040 C   0  0  0  0  0  0  0  0  0  0  0  0
    4.8878    0.0229   -1.6622 C   0  0  0  0  0  0  0  0  0  0  0  0
    2.9569   -0.0039   -4.9199 C   0  0  0  0  0  0  0  0  0  0  0  0
    2.9474    2.1440    3.2228 H   0  0  0  0  0  0  0  0  0  0  0  0
    1.5498    1.7565    4.2559 H   0  0  0  0  0  0  0  0  0  0  0  0
    1.2975    2.2536    2.5694 H   0  0  0  0  0  0  0  0  0  0  0  0
    5.5710   -2.6253    0.9812 H   0  0  0  0  0  0  0  0  0  0  0  0
    5.5042   -4.6612    2.3608 H   0  0  0  0  0  0  0  0  0  0  0  0
    4.9279   -2.2792    5.8991 H   0  0  0  0  0  0  0  0  0  0  0  0
    4.9537   -0.2229    4.5381 H   0  0  0  0  0  0  0  0  0  0  0  0
    5.9104   -4.7749    5.8911 H   0  0  0  0  0  0  0  0  0  0  0  0
    5.4341   -5.7461    4.4960 H   0  0  0  0  0  0  0  0  0  0  0  0
    4.1969   -4.9913    5.5064 H   0  0  0  0  0  0  0  0  0  0  0  0
    1.1366   -0.0115   -2.8716 H   0  0  0  0  0  0  0  0  0  0  0  0
    5.3594    0.0283   -3.7474 H   0  0  0  0  0  0  0  0  0  0  0  0
    5.9330    0.0389   -1.3420 H   0  0  0  0  0  0  0  0  0  0  0  0
    3.4958    0.8078   -5.4303 H   0  0  0  0  0  0  0  0  0  0  0  0
    1.8921    0.1168   -5.1604 H   0  0  0  0  0  0  0  0  0  0  0  0
    3.2850   -0.9509   -5.3736 H   0  0  0  0  0  0  0  0  0  0  0  0
  2  1  1  0  0  0  0
  2  3  2  0  0  0  0
  3  4  1  0  0  0  0
  4  5  1  0  0  0  0
  5 25  1  0  0  0  0
  6  3  1  0  0  0  0
  6  7  1  0  0  0  0
  7  9  2  0  0  0  0
  7 10  1  0  0  0  0
  8  7  2  0  0  0  0
 10 15  1  0  0  0  0
 11 10  2  0  0  0  0
 11 12  1  0  0  0  0
 12 13  2  0  0  0  0
 13 14  1  0  0  0  0
 13 16  1  0  0  0  0
 14 29  1  0  0  0  0
 15 30  1  0  0  0  0
 15 14  2  0  0  0  0
 16 33  1  0  0  0  0
 16 31  1  0  0  0  0
 17  6  1  0  0  0  0
 18 17  1  0  0  0  0
 18  2  1  0  0  0  0
 19 18  2  0  0  0  0
 20 21  2  0  0  0  0
 20 19  1  0  0  0  0
 21 22  1  0  0  0  0
 22 36  1  0  0  0  0
 22 17  2  0  0  0  0
 23 20  1  0  0  0  0
 24  5  1  0  0  0  0
 26  5  1  0  0  0  0
 27 11  1  0  0  0  0
 28 12  1  0  0  0  0
 32 16  1  0  0  0  0
 34 19  1  0  0  0  0
 35 21  1  0  0  0  0
 37 23  1  0  0  0  0
 38 23  1  0  0  0  0
 39 23  1  0  0  0  0
M  END
$$$$
