39
rmsd179.gzmat
Cl         0.00000        0.00000        0.00000
C          1.67220        0.00000        0.00000
C          2.50030        0.00000        1.10370
S          2.01530       -0.07850        2.78220
C          1.93710        1.68400        3.23330
N          3.84550       -0.00050        0.67410
S          5.28680        0.13120        1.70610
O          6.38900        0.07640        0.78360
O          5.07690        1.27430        2.55220
C          5.22330       -1.33640        2.63910
C          5.02210       -1.27940        4.01840
C          4.96020       -2.45480        4.76220
C          5.09530       -3.69390        4.13050
C          5.30220       -3.74650        2.74740
C          5.37020       -2.57220        2.00580
C          5.01310       -4.95650        4.91450
C          3.83490        0.01800       -0.73500
C          2.47680        0.00730       -1.18210
C          2.17440        0.00680       -2.54570
C          3.22050        0.01830       -3.45160
C          4.56290        0.02760       -3.00350
C          4.88800        0.02850       -1.66170
C          2.95160        0.00950       -4.91860
H          2.91890        2.17440        3.12780
H          1.63350        1.75770        4.28280
H          1.21200        2.23220        2.62290
H          4.90580       -0.31720        4.53300
H          4.79620       -2.40660        5.83610
H          5.40510       -4.70850        2.25090
H          5.53990       -2.63780        0.92530
H          5.83360       -5.64740        4.66940
H          4.07180       -5.49040        4.70640
H          5.05100       -4.79220        6.00000
H          1.13680       -0.00190       -2.87140
H          5.35930        0.03720       -3.74690
H          5.93290        0.04410       -1.34060
H          3.57220        0.74380       -5.45120
H          1.90530        0.24430       -5.15630
H          3.16700       -0.97870       -5.35150
