39

Cl         0.03270        0.28750        0.30200
C          1.73790        0.04290        0.28600
C          2.51690       -0.30810        1.36400
S          1.98190       -0.46260        3.02400
C          2.07450       -2.27590        3.26060
N          3.85130       -0.47580        0.89530
S          5.24390       -0.38570        1.92480
O          5.02450       -1.29900        3.03790
O          6.38930       -0.54590        1.03650
C          5.19240        1.29180        2.50900
C          4.75800        1.55780        3.80650
C          4.70870        2.88480        4.23630
C          5.08000        3.93830        3.38850
C          5.51780        3.63220        2.08660
C          5.58240        2.31650        1.63940
C          5.01540        5.37090        3.84840
C          3.88020       -0.19180       -0.48540
C          2.56000        0.12850       -0.88880
C          2.26890        0.42280       -2.22960
C          3.29500        0.41270       -3.17140
C          4.60710        0.09160       -2.74590
C          4.92050       -0.21930       -1.42620
C          3.03130        0.72680       -4.62250
H          1.41270       -2.78360        2.54590
H          1.72390       -2.46360        4.28560
H          3.11360       -2.61000        3.15760
H          4.46020        0.73510        4.45540
H          4.37160        3.10510        5.25200
H          5.81780        4.44150        1.41580
H          5.93340        2.08000        0.63390
H          4.69290        5.44650        4.89640
H          4.30800        5.95000        3.23210
H          5.99840        5.86080        3.75630
H          1.24090        0.65400       -2.51690
H          5.41010        0.07650       -3.48810
H          5.93330       -0.47980       -1.13100
H          3.62280        1.59540       -4.95720
H          1.97000        0.95300       -4.79970
H          3.30950       -0.12020       -5.27150
