rmsd181.gzmat
 OpenBabel08211713383D

 39 41  0  0  0  0  0  0  0  0999 V2000
    0.0000    0.0000    0.0000 Cl  0  0  0  0  0  0  0  0  0  0  0  0
    1.6723    0.0000    0.0000 C   0  0  0  0  0  0  0  0  0  0  0  0
    2.5002    0.0000    1.1042 C   0  0  0  0  0  0  0  0  0  0  0  0
    2.0148   -0.0890    2.7820 S   0  0  0  0  0  0  0  0  0  0  0  0
    1.9629    1.6678    3.2593 C   0  0  0  0  0  0  0  0  0  0  0  0
    3.8453   -0.0021    0.6744 N   0  0  0  0  0  0  0  0  0  0  0  0
    5.2885    0.1513    1.6993 S   0  0  0  0  0  0  0  0  0  0  0  0
    6.3837    0.1493    0.7669 O   0  0  0  0  0  0  0  0  0  0  0  0
    5.0516    1.2678    2.5735 O   0  0  0  0  0  0  0  0  0  0  0  0
    5.2853   -1.3370    2.6010 C   0  0  0  0  0  0  0  0  0  0  0  0
    5.5056   -2.5491    1.9434 C   0  0  0  0  0  0  0  0  0  0  0  0
    5.5045   -3.7397    2.6613 C   0  0  0  0  0  0  0  0  0  0  0  0
    5.2909   -3.7271    4.0447 C   0  0  0  0  0  0  0  0  0  0  0  0
    5.0763   -2.5117    4.6997 C   0  0  0  0  0  0  0  0  0  0  0  0
    5.0736   -1.3198    3.9796 C   0  0  0  0  0  0  0  0  0  0  0  0
    5.2864   -5.0088    4.8017 C   0  0  0  0  0  0  0  0  0  0  0  0
    3.8350    0.0137   -0.7351 C   0  0  0  0  0  0  0  0  0  0  0  0
    2.4770    0.0056   -1.1826 C   0  0  0  0  0  0  0  0  0  0  0  0
    2.1765    0.0091   -2.5469 C   0  0  0  0  0  0  0  0  0  0  0  0
    3.2234    0.0195   -3.4520 C   0  0  0  0  0  0  0  0  0  0  0  0
    4.5653    0.0218   -3.0029 C   0  0  0  0  0  0  0  0  0  0  0  0
    4.8886    0.0195   -1.6606 C   0  0  0  0  0  0  0  0  0  0  0  0
    2.9592    0.0270   -4.9199 C   0  0  0  0  0  0  0  0  0  0  0  0
    2.9700    2.1176    3.2648 H   0  0  0  0  0  0  0  0  0  0  0  0
    1.5512    1.7364    4.2715 H   0  0  0  0  0  0  0  0  0  0  0  0
    1.3309    2.2591    2.5887 H   0  0  0  0  0  0  0  0  0  0  0  0
    5.6808   -2.5830    0.8623 H   0  0  0  0  0  0  0  0  0  0  0  0
    5.6662   -4.6845    2.1472 H   0  0  0  0  0  0  0  0  0  0  0  0
    4.9028   -2.4948    5.7728 H   0  0  0  0  0  0  0  0  0  0  0  0
    4.9006   -0.3762    4.5131 H   0  0  0  0  0  0  0  0  0  0  0  0
    6.1832   -5.6114    4.5919 H   0  0  0  0  0  0  0  0  0  0  0  0
    4.4155   -5.6268    4.5288 H   0  0  0  0  0  0  0  0  0  0  0  0
    5.2455   -4.8673    5.8904 H   0  0  0  0  0  0  0  0  0  0  0  0
    1.1392    0.0052   -2.8735 H   0  0  0  0  0  0  0  0  0  0  0  0
    5.3630    0.0291   -3.7450 H   0  0  0  0  0  0  0  0  0  0  0  0
    5.9335    0.0319   -1.3393 H   0  0  0  0  0  0  0  0  0  0  0  0
    3.4823    0.8562   -5.4187 H   0  0  0  0  0  0  0  0  0  0  0  0
    1.8914    0.1331   -5.1554 H   0  0  0  0  0  0  0  0  0  0  0  0
    3.3022   -0.9066   -5.3899 H   0  0  0  0  0  0  0  0  0  0  0  0
  2  1  1  0  0  0  0
  2  3  2  0  0  0  0
  3  4  1  0  0  0  0
  4  5  1  0  0  0  0
  5 24  1  0  0  0  0
  5 25  1  0  0  0  0
  6  3  1  0  0  0  0
  6  7  1  0  0  0  0
  7  9  2  0  0  0  0
  7 10  1  0  0  0  0
  8  7  2  0  0  0  0
 10 15  1  0  0  0  0
 11 10  2  0  0  0  0
 11 12  1  0  0  0  0
 12 13  2  0  0  0  0
 13 14  1  0  0  0  0
 13 16  1  0  0  0  0
 14 29  1  0  0  0  0
 15 30  1  0  0  0  0
 15 14  2  0  0  0  0
 16 33  1  0  0  0  0
 17  6  1  0  0  0  0
 18 17  1  0  0  0  0
 18  2  1  0  0  0  0
 19 18  2  0  0  0  0
 20 21  2  0  0  0  0
 20 19  1  0  0  0  0
 21 22  1  0  0  0  0
 22 36  1  0  0  0  0
 22 17  2  0  0  0  0
 23 20  1  0  0  0  0
 26  5  1  0  0  0  0
 27 11  1  0  0  0  0
 28 12  1  0  0  0  0
 31 16  1  0  0  0  0
 32 16  1  0  0  0  0
 34 19  1  0  0  0  0
 35 21  1  0  0  0  0
 37 23  1  0  0  0  0
 38 23  1  0  0  0  0
 39 23  1  0  0  0  0
M  END
$$$$
