39
rmsd217.gzmat
Cl         0.00000        0.00000        0.00000
C          1.67220        0.00000        0.00000
C          2.50140        0.00000        1.10280
S          2.01640       -0.08370        2.78090
C          1.92710        1.67730        3.23660
N          3.84660       -0.00440        0.67220
S          5.28560        0.19990        1.69490
O          6.38430        0.15210        0.76750
O          5.04010        1.36010        2.50830
C          5.29160       -1.23410        2.68120
C          5.56290       -2.47700        2.10620
C          5.57960       -3.62110        2.89700
C          5.32980       -3.53060        4.27060
C          5.06470       -2.28380        4.84380
C          5.04500       -1.13950        4.05120
C          5.33390       -4.76010        5.11000
C          3.83390        0.01470       -0.73790
C          2.47540        0.00640       -1.18350
C          2.17050        0.00790       -2.54670
C          3.21520        0.01720       -3.45420
C          4.55810        0.02260       -3.00780
C          4.88520        0.02100       -1.66620
C          2.94720        0.02600       -4.92130
H          2.92430        2.14780        3.23750
H          1.51090        1.75170        4.24590
H          1.28570        2.24600        2.55600
H          5.76840       -2.57150        1.03430
H          5.78600       -4.58910        2.44650
H          4.86930       -2.20580        5.91060
H          4.83600       -0.17040        4.52230
H          6.11560       -5.47160        4.80610
H          4.37050       -5.29040        5.03100
H          5.49360       -4.54910        6.17670
H          1.13220        0.00310       -2.87050
H          5.35360        0.03160       -3.75240
H          5.93070        0.03210       -1.34710
H          3.37430        0.92080       -5.39830
H          1.87410        0.01930       -5.15610
H          3.39000       -0.85160       -5.41420
