rmsd250.gzmat
 OpenBabel08211713383D

 39 41  0  0  0  0  0  0  0  0999 V2000
    0.0000    0.0000    0.0000 Cl  0  0  0  0  0  0  0  0  0  0  0  0
    1.6722    0.0000    0.0000 C   0  0  0  0  0  0  0  0  0  0  0  0
    2.5014    0.0000    1.1031 C   0  0  0  0  0  0  0  0  0  0  0  0
    2.0139    0.0613    2.7817 S   0  0  0  0  0  0  0  0  0  0  0  0
    1.9864   -1.7046    3.2280 C   0  0  0  0  0  0  0  0  0  0  0  0
    3.8458    0.0051    0.6720 N   0  0  0  0  0  0  0  0  0  0  0  0
    5.2909   -0.1012    1.7008 S   0  0  0  0  0  0  0  0  0  0  0  0
    5.1011   -1.2454    2.5503 O   0  0  0  0  0  0  0  0  0  0  0  0
    6.3890   -0.0305    0.7744 O   0  0  0  0  0  0  0  0  0  0  0  0
    5.2128    1.3667    2.6328 C   0  0  0  0  0  0  0  0  0  0  0  0
    5.0025    1.3101    4.0110 C   0  0  0  0  0  0  0  0  0  0  0  0
    4.9440    2.4850    4.7560 C   0  0  0  0  0  0  0  0  0  0  0  0
    5.0943    3.7237    4.1266 C   0  0  0  0  0  0  0  0  0  0  0  0
    5.3066    3.7765    2.7441 C   0  0  0  0  0  0  0  0  0  0  0  0
    5.3683    2.6028    2.0011 C   0  0  0  0  0  0  0  0  0  0  0  0
    5.0200    4.9859    4.9124 C   0  0  0  0  0  0  0  0  0  0  0  0
    3.8342   -0.0187   -0.7373 C   0  0  0  0  0  0  0  0  0  0  0  0
    2.4757   -0.0091   -1.1830 C   0  0  0  0  0  0  0  0  0  0  0  0
    2.1719   -0.0186   -2.5465 C   0  0  0  0  0  0  0  0  0  0  0  0
    3.2168   -0.0436   -3.4534 C   0  0  0  0  0  0  0  0  0  0  0  0
    4.5597   -0.0547   -3.0062 C   0  0  0  0  0  0  0  0  0  0  0  0
    4.8860   -0.0413   -1.6647 C   0  0  0  0  0  0  0  0  0  0  0  0
    2.9482   -0.0712   -4.9202 C   0  0  0  0  0  0  0  0  0  0  0  0
    1.3715   -2.2927    2.5391 H   0  0  0  0  0  0  0  0  0  0  0  0
    1.5660   -1.8008    4.2342 H   0  0  0  0  0  0  0  0  0  0  0  0
    3.0008   -2.1372    3.2348 H   0  0  0  0  0  0  0  0  0  0  0  0
    4.8800    0.3483    4.5251 H   0  0  0  0  0  0  0  0  0  0  0  0
    4.7732    2.4358    5.8286 H   0  0  0  0  0  0  0  0  0  0  0  0
    5.4211    4.7386    2.2500 H   0  0  0  0  0  0  0  0  0  0  0  0
    5.5400    2.6683    0.9207 H   0  0  0  0  0  0  0  0  0  0  0  0
    5.8106    5.6970    4.6298 H   0  0  0  0  0  0  0  0  0  0  0  0
    5.1115    4.8242    5.9951 H   0  0  0  0  0  0  0  0  0  0  0  0
    4.0568    5.4956    4.7460 H   0  0  0  0  0  0  0  0  0  0  0  0
    1.1339   -0.0101   -2.8707 H   0  0  0  0  0  0  0  0  0  0  0  0
    5.3554   -0.0773   -3.7504 H   0  0  0  0  0  0  0  0  0  0  0  0
    5.9312   -0.0565   -1.3443 H   0  0  0  0  0  0  0  0  0  0  0  0
    3.4786    0.7369   -5.4437 H   0  0  0  0  0  0  0  0  0  0  0  0
    1.8813    0.0394   -5.1569 H   0  0  0  0  0  0  0  0  0  0  0  0
    3.2791   -1.0228   -5.3636 H   0  0  0  0  0  0  0  0  0  0  0  0
  2  1  1  0  0  0  0
  2  3  2  0  0  0  0
  3  4  1  0  0  0  0
  4  5  1  0  0  0  0
  5 26  1  0  0  0  0
  5 25  1  0  0  0  0
  6  3  1  0  0  0  0
  6  7  1  0  0  0  0
  7  8  2  0  0  0  0
  7 10  1  0  0  0  0
  9  7  2  0  0  0  0
 10 11  1  0  0  0  0
 11 27  1  0  0  0  0
 11 12  2  0  0  0  0
 12 28  1  0  0  0  0
 13 12  1  0  0  0  0
 13 16  1  0  0  0  0
 14 13  2  0  0  0  0
 15 10  2  0  0  0  0
 15 14  1  0  0  0  0
 16 32  1  0  0  0  0
 17  6  1  0  0  0  0
 18 17  1  0  0  0  0
 18  2  1  0  0  0  0
 19 18  2  0  0  0  0
 20 21  2  0  0  0  0
 20 19  1  0  0  0  0
 21 22  1  0  0  0  0
 22 36  1  0  0  0  0
 22 17  2  0  0  0  0
 23 20  1  0  0  0  0
 24  5  1  0  0  0  0
 29 14  1  0  0  0  0
 30 15  1  0  0  0  0
 31 16  1  0  0  0  0
 33 16  1  0  0  0  0
 34 19  1  0  0  0  0
 35 21  1  0  0  0  0
 37 23  1  0  0  0  0
 38 23  1  0  0  0  0
 39 23  1  0  0  0  0
M  END
$$$$
