
     RDKit          3D

 39 41  0  0  0  0  0  0  0  0999 V2000
    0.0327    0.2875    0.3020 Cl  0  0  0  0  0  0  0  0  0  0  0  0
    1.7379    0.0429    0.2860 C   0  0  0  0  0  0  0  0  0  0  0  0
    2.5169   -0.3081    1.3640 C   0  0  0  0  0  0  0  0  0  0  0  0
    1.9819   -0.4626    3.0240 S   0  0  0  0  0  0  0  0  0  0  0  0
    2.0745   -2.2759    3.2606 C   0  0  0  0  0  0  0  0  0  0  0  0
    3.8513   -0.4758    0.8953 N   0  0  0  0  0  0  0  0  0  0  0  0
    5.2439   -0.3857    1.9248 S   0  0  0  0  0  0  0  0  0  0  0  0
    5.0245   -1.2990    3.0379 O   0  0  0  0  0  0  0  0  0  0  0  0
    6.3893   -0.5459    1.0365 O   0  0  0  0  0  0  0  0  0  0  0  0
    5.1924    1.2918    2.5090 C   0  0  0  0  0  0  0  0  0  0  0  0
    4.7580    1.5578    3.8065 C   0  0  0  0  0  0  0  0  0  0  0  0
    4.7087    2.8848    4.2363 C   0  0  0  0  0  0  0  0  0  0  0  0
    5.0800    3.9383    3.3885 C   0  0  0  0  0  0  0  0  0  0  0  0
    5.5178    3.6322    2.0866 C   0  0  0  0  0  0  0  0  0  0  0  0
    5.5824    2.3165    1.6394 C   0  0  0  0  0  0  0  0  0  0  0  0
    5.0154    5.3709    3.8484 C   0  0  0  0  0  0  0  0  0  0  0  0
    3.8802   -0.1918   -0.4854 C   0  0  0  0  0  0  0  0  0  0  0  0
    2.5600    0.1285   -0.8888 C   0  0  0  0  0  0  0  0  0  0  0  0
    2.2689    0.4228   -2.2296 C   0  0  0  0  0  0  0  0  0  0  0  0
    3.2950    0.4127   -3.1714 C   0  0  0  0  0  0  0  0  0  0  0  0
    4.6071    0.0916   -2.7459 C   0  0  0  0  0  0  0  0  0  0  0  0
    4.9205   -0.2193   -1.4262 C   0  0  0  0  0  0  0  0  0  0  0  0
    3.0313    0.7268   -4.6225 C   0  0  0  0  0  0  0  0  0  0  0  0
    1.4127   -2.7836    2.5459 H   0  0  0  0  0  0  0  0  0  0  0  0
    1.7239   -2.4636    4.2856 H   0  0  0  0  0  0  0  0  0  0  0  0
    3.1136   -2.6100    3.1576 H   0  0  0  0  0  0  0  0  0  0  0  0
    4.4602    0.7351    4.4554 H   0  0  0  0  0  0  0  0  0  0  0  0
    4.3716    3.1051    5.2520 H   0  0  0  0  0  0  0  0  0  0  0  0
    5.8178    4.4415    1.4158 H   0  0  0  0  0  0  0  0  0  0  0  0
    5.9334    2.0800    0.6339 H   0  0  0  0  0  0  0  0  0  0  0  0
    4.6929    5.4465    4.8964 H   0  0  0  0  0  0  0  0  0  0  0  0
    4.3080    5.9500    3.2321 H   0  0  0  0  0  0  0  0  0  0  0  0
    5.9984    5.8608    3.7563 H   0  0  0  0  0  0  0  0  0  0  0  0
    1.2409    0.6540   -2.5169 H   0  0  0  0  0  0  0  0  0  0  0  0
    5.4101    0.0765   -3.4881 H   0  0  0  0  0  0  0  0  0  0  0  0
    5.9333   -0.4798   -1.1310 H   0  0  0  0  0  0  0  0  0  0  0  0
    3.6228    1.5954   -4.9572 H   0  0  0  0  0  0  0  0  0  0  0  0
    1.9700    0.9530   -4.7997 H   0  0  0  0  0  0  0  0  0  0  0  0
    3.3095   -0.1202   -5.2715 H   0  0  0  0  0  0  0  0  0  0  0  0
  1  2  1  0
  2  3  2  0
  2 18  1  0
  3  4  1  0
  3  6  1  0
  4  5  1  0
  5 24  1  0
  5 25  1  0
  5 26  1  0
  6  7  1  0
  6 17  1  0
  7  8  2  0
  7  9  2  0
  7 10  1  0
 10 11  2  0
 10 15  1  0
 11 12  1  0
 11 27  1  0
 12 13  2  0
 12 28  1  0
 13 14  1  0
 13 16  1  0
 14 15  2  0
 14 29  1  0
 15 30  1  0
 16 31  1  0
 16 32  1  0
 16 33  1  0
 17 18  2  0
 17 22  1  0
 18 19  1  0
 19 20  2  0
 19 34  1  0
 20 21  1  0
 20 23  1  0
 21 22  2  0
 21 35  1  0
 22 36  1  0
 23 37  1  0
 23 38  1  0
 23 39  1  0
M  END

