39
rmsd169.gzmat
Cl         0.00000        0.00000        0.00000
C          1.67240        0.00000        0.00000
C          2.50220        0.00000        1.10280
S          2.01720        0.09640        2.78020
C          1.98640       -1.65590        3.27340
N          3.84640       -0.00510        0.67070
S          5.29460       -0.09110        1.69700
O          5.08420       -1.17990        2.61130
O          6.38940       -0.09900        0.76400
C          5.25310        1.43220        2.53750
C          4.99670        1.47260        3.90800
C          4.95970        2.69540        4.57360
C          5.17960        3.88430        3.87290
C          5.44380        3.83870        2.49920
C          5.48150        2.61790        1.83510
C          5.14230        5.19670        4.57480
C          3.83430       -0.02010       -0.73860
C          2.47540       -0.00600       -1.18330
C          2.17100        0.00110       -2.54640
C          3.21590       -0.00640       -3.45440
C          4.55830       -0.02550       -3.00800
C          4.88530       -0.03360       -1.66640
C          2.94280        0.01550       -4.92040
H          1.35550       -2.25750        2.61140
H          1.58400       -1.72090        4.28950
H          2.99760       -2.09540        3.27540
H          4.82050        0.55100        4.47800
H          4.75330        2.72200        5.64080
H          5.61640        4.76120        1.94960
H          5.69110        2.60650        0.75970
H          4.77000        5.12280        5.60590
H          4.49460        5.91930        4.05490
H          6.14590        5.64780        4.62920
H          1.13300        0.01250       -2.87050
H          5.35380       -0.03770       -3.75220
H          5.93060       -0.05920       -1.34770
H          3.08500        1.02660       -5.33050
H          1.91410       -0.28640       -5.16110
H          3.61180       -0.65920       -5.47280
