rmsd207.gzmat
 OpenBabel08211713383D

 39 40  0  0  0  0  0  0  0  0999 V2000
    0.0000    0.0000    0.0000 Cl  0  0  0  0  0  0  0  0  0  0  0  0
    1.6721    0.0000    0.0000 C   0  0  0  0  0  0  0  0  0  0  0  0
    2.5027    0.0000    1.1018 C   0  0  0  0  0  0  0  0  0  0  0  0
    2.0280   -0.0904    2.7825 S   0  0  0  0  0  0  0  0  0  0  0  0
    1.9631    1.6662    3.2581 C   0  0  0  0  0  0  0  0  0  0  0  0
    3.8471   -0.0033    0.6686 N   0  0  0  0  0  0  0  0  0  0  0  0
    5.2892    0.1708    1.6915 S   0  0  0  0  0  0  0  0  0  0  0  0
    6.3871    0.1079    0.7649 O   0  0  0  0  0  0  0  0  0  0  0  0
    5.0671    1.3327    2.5091 O   0  0  0  0  0  0  0  0  0  0  0  0
    5.2626   -1.2674    2.6719 C   0  0  0  0  0  0  0  0  0  0  0  0
    5.4052   -2.5251    2.0818 C   0  0  0  0  0  0  0  0  0  0  0  0
    5.3971   -3.6695    2.8719 C   0  0  0  0  0  0  0  0  0  0  0  0
    5.2490   -3.5661    4.2598 C   0  0  0  0  0  0  0  0  0  0  0  0
    5.1069   -2.3055    4.8464 C   0  0  0  0  0  0  0  0  0  0  0  0
    5.1132   -1.1602    4.0548 C   0  0  0  0  0  0  0  0  0  0  0  0
    5.2379   -4.7971    5.0972 C   0  0  0  0  0  0  0  0  0  0  0  0
    3.8332    0.0161   -0.7410 C   0  0  0  0  0  0  0  0  0  0  0  0
    2.4741    0.0063   -1.1845 C   0  0  0  0  0  0  0  0  0  0  0  0
    2.1682    0.0061   -2.5474 C   0  0  0  0  0  0  0  0  0  0  0  0
    3.2119    0.0168   -3.4563 C   0  0  0  0  0  0  0  0  0  0  0  0
    4.5552    0.0262   -3.0118 C   0  0  0  0  0  0  0  0  0  0  0  0
    4.8837    0.0250   -1.6705 C   0  0  0  0  0  0  0  0  0  0  0  0
    2.9415    0.0101   -4.9231 C   0  0  0  0  0  0  0  0  0  0  0  0
    2.9362    2.1658    3.1184 H   0  0  0  0  0  0  0  0  0  0  0  0
    1.7045    1.7246    4.3205 H   0  0  0  0  0  0  0  0  0  0  0  0
    1.2117    2.2189    2.6862 H   0  0  0  0  0  0  0  0  0  0  0  0
    5.5254   -2.6315    0.9980 H   0  0  0  0  0  0  0  0  0  0  0  0
    5.5049   -4.6488    2.4107 H   0  0  0  0  0  0  0  0  0  0  0  0
    4.9852   -2.2163    5.9232 H   0  0  0  0  0  0  0  0  0  0  0  0
    4.9983   -0.1805    4.5365 H   0  0  0  0  0  0  0  0  0  0  0  0
    6.0787   -5.4653    4.8572 H   0  0  0  0  0  0  0  0  0  0  0  0
    4.3136   -5.3757    4.9373 H   0  0  0  0  0  0  0  0  0  0  0  0
    5.2976   -4.5860    6.1740 H   0  0  0  0  0  0  0  0  0  0  0  0
    1.1297   -0.0014   -2.8696 H   0  0  0  0  0  0  0  0  0  0  0  0
    5.3499    0.0363   -3.7573 H   0  0  0  0  0  0  0  0  0  0  0  0
    5.9291    0.0365   -1.3518 H   0  0  0  0  0  0  0  0  0  0  0  0
    3.5229    0.7833   -5.4458 H   0  0  0  0  0  0  0  0  0  0  0  0
    1.8837    0.1906   -5.1584 H   0  0  0  0  0  0  0  0  0  0  0  0
    3.2100   -0.9597   -5.3684 H   0  0  0  0  0  0  0  0  0  0  0  0
  2  1  1  0  0  0  0
  2  3  2  0  0  0  0
  4  5  1  0  0  0  0
  5 25  1  0  0  0  0
  6  3  1  0  0  0  0
  6  7  1  0  0  0  0
  7  9  2  0  0  0  0
  7 10  1  0  0  0  0
  8  7  2  0  0  0  0
 10 15  1  0  0  0  0
 11 10  2  0  0  0  0
 11 12  1  0  0  0  0
 12 13  2  0  0  0  0
 13 14  1  0  0  0  0
 13 16  1  0  0  0  0
 14 29  1  0  0  0  0
 15 30  1  0  0  0  0
 15 14  2  0  0  0  0
 16 33  1  0  0  0  0
 17  6  1  0  0  0  0
 18 17  1  0  0  0  0
 18  2  1  0  0  0  0
 19 18  2  0  0  0  0
 20 21  2  0  0  0  0
 20 19  1  0  0  0  0
 21 22  1  0  0  0  0
 22 36  1  0  0  0  0
 22 17  2  0  0  0  0
 23 20  1  0  0  0  0
 24  5  1  0  0  0  0
 26  5  1  0  0  0  0
 27 11  1  0  0  0  0
 28 12  1  0  0  0  0
 31 16  1  0  0  0  0
 32 16  1  0  0  0  0
 34 19  1  0  0  0  0
 35 21  1  0  0  0  0
 37 23  1  0  0  0  0
 38 23  1  0  0  0  0
 39 23  1  0  0  0  0
M  RAD  2   3   2   4   2
M  END
$$$$
