
     RDKit          3D

 39 41  0  0  0  0  0  0  0  0999 V2000
    0.0196    0.2426    0.3086 Cl  0  0  0  0  0  0  0  0  0  0  0  0
    1.7269    0.0128    0.2943 C   0  0  0  0  0  0  0  0  0  0  0  0
    2.5067   -0.3393    1.3713 C   0  0  0  0  0  0  0  0  0  0  0  0
    1.9697   -0.5105    3.0289 S   0  0  0  0  0  0  0  0  0  0  0  0
    2.0800   -2.3243    3.2536 C   0  0  0  0  0  0  0  0  0  0  0  0
    3.8435   -0.4924    0.9041 N   0  0  0  0  0  0  0  0  0  0  0  0
    5.2333   -0.3951    1.9367 S   0  0  0  0  0  0  0  0  0  0  0  0
    5.0198   -1.3156    3.0449 O   0  0  0  0  0  0  0  0  0  0  0  0
    6.3818   -0.5410    1.0499 O   0  0  0  0  0  0  0  0  0  0  0  0
    5.1660    1.2790    2.5288 C   0  0  0  0  0  0  0  0  0  0  0  0
    4.7244    1.5350    3.8260 C   0  0  0  0  0  0  0  0  0  0  0  0
    4.6622    2.8595    4.2619 C   0  0  0  0  0  0  0  0  0  0  0  0
    5.0276    3.9202    3.4206 C   0  0  0  0  0  0  0  0  0  0  0  0
    5.4729    3.6242    2.1189 C   0  0  0  0  0  0  0  0  0  0  0  0
    5.5503    2.3112    1.6656 C   0  0  0  0  0  0  0  0  0  0  0  0
    4.9489    5.3499    3.8871 C   0  0  0  0  0  0  0  0  0  0  0  0
    3.8726   -0.1982   -0.4745 C   0  0  0  0  0  0  0  0  0  0  0  0
    2.5505    0.1140   -0.8782 C   0  0  0  0  0  0  0  0  0  0  0  0
    2.2595    0.4155   -2.2174 C   0  0  0  0  0  0  0  0  0  0  0  0
    3.2875    0.4209   -3.1572 C   0  0  0  0  0  0  0  0  0  0  0  0
    4.6015    0.1078   -2.7314 C   0  0  0  0  0  0  0  0  0  0  0  0
    4.9148   -0.2100   -1.4134 C   0  0  0  0  0  0  0  0  0  0  0  0
    3.0240    0.7434   -4.6065 C   0  0  0  0  0  0  0  0  0  0  0  0
    1.4252   -2.8338    2.5339 H   0  0  0  0  0  0  0  0  0  0  0  0
    1.7288   -2.5223    4.2764 H   0  0  0  0  0  0  0  0  0  0  0  0
    3.1227   -2.6471    3.1511 H   0  0  0  0  0  0  0  0  0  0  0  0
    4.4313    0.7068    4.4699 H   0  0  0  0  0  0  0  0  0  0  0  0
    4.3194    3.0721    5.2774 H   0  0  0  0  0  0  0  0  0  0  0  0
    5.7684    4.4392    1.4532 H   0  0  0  0  0  0  0  0  0  0  0  0
    5.9071    2.0826    0.6604 H   0  0  0  0  0  0  0  0  0  0  0  0
    4.6229    5.4177    4.9346 H   0  0  0  0  0  0  0  0  0  0  0  0
    4.2380    5.9256    3.2716 H   0  0  0  0  0  0  0  0  0  0  0  0
    5.9277    5.8491    3.8001 H   0  0  0  0  0  0  0  0  0  0  0  0
    1.2301    0.6401   -2.5051 H   0  0  0  0  0  0  0  0  0  0  0  0
    5.4060    0.1049   -3.4721 H   0  0  0  0  0  0  0  0  0  0  0  0
    5.9292   -0.4642   -1.1181 H   0  0  0  0  0  0  0  0  0  0  0  0
    3.6092    1.6189   -4.9339 H   0  0  0  0  0  0  0  0  0  0  0  0
    1.9612    0.9625   -4.7840 H   0  0  0  0  0  0  0  0  0  0  0  0
    3.3100   -0.0968   -5.2610 H   0  0  0  0  0  0  0  0  0  0  0  0
  1  2  1  0
  2  3  2  0
  2 18  1  0
  3  4  1  0
  3  6  1  0
  4  5  1  0
  5 24  1  0
  5 25  1  0
  5 26  1  0
  6  7  1  0
  6 17  1  0
  7  8  2  0
  7  9  2  0
  7 10  1  0
 10 11  2  0
 10 15  1  0
 11 12  1  0
 11 27  1  0
 12 13  2  0
 12 28  1  0
 13 14  1  0
 13 16  1  0
 14 15  2  0
 14 29  1  0
 15 30  1  0
 16 31  1  0
 16 32  1  0
 16 33  1  0
 17 18  2  0
 17 22  1  0
 18 19  1  0
 19 20  2  0
 19 34  1  0
 20 21  1  0
 20 23  1  0
 21 22  2  0
 21 35  1  0
 22 36  1  0
 23 37  1  0
 23 38  1  0
 23 39  1  0
M  END

