rmsd196.gzmat
 OpenBabel08211713413D

 41 44  0  0  0  0  0  0  0  0999 V2000
    0.0000    0.0000    0.0000 O   0  0  0  0  0  0  0  0  0  0  0  0
    1.2087    0.0000    0.0000 C   0  0  0  0  0  0  0  0  0  0  0  0
    1.9367    0.0000    1.1764 N   0  0  0  0  0  0  0  0  0  0  0  0
    1.3848    0.1075    2.4864 C   0  0  0  0  0  0  0  0  0  0  0  0
    2.3459    0.3716    3.3990 C   0  0  0  0  0  0  0  0  0  0  0  0
    3.6953    0.4879    2.7500 C   0  0  0  0  0  0  0  0  0  0  0  0
    3.4052    0.2190    1.2458 C   0  0  0  0  0  0  0  0  0  0  0  0
   -0.0401   -0.0989    2.7355 C   0  0  0  0  0  0  0  0  0  0  0  0
   -0.7619    0.8848    3.4161 C   0  0  0  0  0  0  0  0  0  0  0  0
   -2.1143    0.6887    3.6859 C   0  0  0  0  0  0  0  0  0  0  0  0
   -2.7442   -0.4859    3.2788 C   0  0  0  0  0  0  0  0  0  0  0  0
   -2.0228   -1.4685    2.6016 C   0  0  0  0  0  0  0  0  0  0  0  0
   -0.6713   -1.2772    2.3265 C   0  0  0  0  0  0  0  0  0  0  0  0
    2.0200   -0.0676   -1.3022 C   0  0  0  0  0  0  0  0  0  0  0  0
    1.1212   -0.1952   -2.4308 N   0  0  0  0  0  0  0  0  0  0  0  0
    0.4240    0.9317   -2.9725 C   0  0  0  0  0  0  0  0  0  0  0  0
    0.7752    2.0652   -2.8139 O   0  0  0  0  0  0  0  0  0  0  0  0
   -0.7012    0.3596   -3.7702 C   0  0  0  0  0  0  0  0  0  0  0  0
   -1.6507    0.9896   -4.5390 C   0  0  0  0  0  0  0  0  0  0  0  0
   -2.6165    0.1833   -5.1709 C   0  0  0  0  0  0  0  0  0  0  0  0
   -2.6076   -1.1971   -5.0210 C   0  0  0  0  0  0  0  0  0  0  0  0
   -1.6328   -1.8376   -4.2323 C   0  0  0  0  0  0  0  0  0  0  0  0
   -0.6921   -1.0459   -3.6178 C   0  0  0  0  0  0  0  0  0  0  0  0
    0.4385   -1.4203   -2.7171 C   0  0  0  0  0  0  0  0  0  0  0  0
    0.8025   -2.4901   -2.3212 O   0  0  0  0  0  0  0  0  0  0  0  0
    2.2272    0.4782    4.4569 H   0  0  0  0  0  0  0  0  0  0  0  0
    4.1380    1.4861    2.9100 H   0  0  0  0  0  0  0  0  0  0  0  0
    4.4082   -0.2462    3.1631 H   0  0  0  0  0  0  0  0  0  0  0  0
    3.9307   -0.6884    0.8866 H   0  0  0  0  0  0  0  0  0  0  0  0
    3.7061    1.0786    0.6167 H   0  0  0  0  0  0  0  0  0  0  0  0
   -0.2686    1.8047    3.7235 H   0  0  0  0  0  0  0  0  0  0  0  0
   -2.6789    1.4570    4.2091 H   0  0  0  0  0  0  0  0  0  0  0  0
   -3.8020   -0.6336    3.4841 H   0  0  0  0  0  0  0  0  0  0  0  0
   -2.5166   -2.3817    2.2760 H   0  0  0  0  0  0  0  0  0  0  0  0
   -0.1090   -2.0322    1.7784 H   0  0  0  0  0  0  0  0  0  0  0  0
    2.7118   -0.9461   -1.2804 H   0  0  0  0  0  0  0  0  0  0  0  0
    2.6360    0.8576   -1.4241 H   0  0  0  0  0  0  0  0  0  0  0  0
   -1.6627    2.0737   -4.6515 H   0  0  0  0  0  0  0  0  0  0  0  0
   -3.3835    0.6575   -5.7836 H   0  0  0  0  0  0  0  0  0  0  0  0
   -3.3666   -1.8025   -5.5164 H   0  0  0  0  0  0  0  0  0  0  0  0
   -1.6326   -2.9208   -4.1116 H   0  0  0  0  0  0  0  0  0  0  0  0
  1  2  2  0  0  0  0
  2  3  1  0  0  0  0
  3  7  1  0  0  0  0
  3  4  1  0  0  0  0
  4  8  1  0  0  0  0
  4  5  2  0  0  0  0
  5 26  1  0  0  0  0
  6 27  1  0  0  0  0
  6 28  1  0  0  0  0
  6  5  1  0  0  0  0
  7  6  1  0  0  0  0
  8  9  2  0  0  0  0
  9 10  1  0  0  0  0
  9 31  1  0  0  0  0
 10 32  1  0  0  0  0
 11 33  1  0  0  0  0
 11 10  2  0  0  0  0
 12 11  1  0  0  0  0
 13 12  2  0  0  0  0
 13  8  1  0  0  0  0
 14 36  1  0  0  0  0
 14  2  1  0  0  0  0
 15 14  1  0  0  0  0
 16 17  2  0  0  0  0
 16 15  1  0  0  0  0
 18 23  1  0  0  0  0
 18 16  1  0  0  0  0
 19 18  2  0  0  0  0
 20 21  2  0  0  0  0
 20 19  1  0  0  0  0
 21 22  1  0  0  0  0
 22 41  1  0  0  0  0
 22 23  2  0  0  0  0
 23 24  1  0  0  0  0
 24 15  1  0  0  0  0
 24 25  2  0  0  0  0
 29  7  1  0  0  0  0
 30  7  1  0  0  0  0
 34 12  1  0  0  0  0
 35 13  1  0  0  0  0
 37 14  1  0  0  0  0
 38 19  1  0  0  0  0
 39 20  1  0  0  0  0
 40 21  1  0  0  0  0
M  END
$$$$
