41
rmsd152.gzmat
O          0.00000        0.00000        0.00000
C          1.20820        0.00000        0.00000
N          1.93310        0.00000        1.18020
C          1.36750        0.10800        2.48370
C          2.31820        0.35340        3.41100
C          3.67680        0.46130        2.77900
C          3.39930        0.22820        1.26580
C         -0.06680       -0.07030        2.70210
C         -0.82140        0.99700        3.19390
C         -2.18440        0.82870        3.42640
C         -2.78920       -0.40130        3.17380
C         -2.03420       -1.46580        2.68310
C         -0.67270       -1.30230        2.44150
C          2.02390       -0.06800       -1.29860
N          1.14370        0.05870       -2.44120
C          0.33220       -1.02090       -2.91410
O          0.53690       -2.17040       -2.65150
C         -0.68730       -0.38870       -3.80590
C         -1.67770       -0.96270       -4.56650
C         -2.50770       -0.10330       -5.31180
C         -2.33250        1.27340       -5.27700
C         -1.31700        1.85700       -4.49640
C         -0.50800        1.01370       -3.77290
C          0.62970        1.32550       -2.85870
O          1.10890        2.37370       -2.53300
H          2.18690        0.45270        4.46790
H          4.13350        1.44870        2.96360
H          4.37290       -0.29260        3.18490
H          3.93530       -0.66350        0.88600
H          3.69660        1.10860        0.66330
H         -0.34650        1.95810        3.38080
H         -2.77650        1.66140        3.79880
H         -3.85430       -0.52900        3.35290
H         -2.50880       -2.42270        2.47650
H         -0.08340       -2.12230        2.03420
H          2.56460       -1.04610       -1.35020
H          2.78430        0.75060       -1.33370
H         -1.82250       -2.04240       -4.59160
H         -3.30160       -0.53300       -5.92230
H         -2.98970        1.92030       -5.85820
H         -1.18370        2.93820       -4.46580
