41
rmsd112.gzmat
O          0.00000        0.00000        0.00000
C          1.20850        0.00000        0.00000
N          1.93210        0.00000        1.17760
C          1.37730        0.01340        2.48800
C          2.34500        0.04510        3.42840
C          3.70970        0.06040        2.79850
C          3.41360        0.03030        1.27080
C         -0.07230       -0.01260        2.68140
C         -0.77500        1.18690        2.81200
C         -2.15450        1.15840        3.00190
C         -2.82680       -0.06150        3.06100
C         -2.12130       -1.25690        2.93350
C         -0.74170       -1.23640        2.74230
C          2.02680       -0.01020       -1.29840
N          1.13810        0.01430       -2.44090
C          0.44540       -1.15660       -2.88390
O          0.78330       -2.27110       -2.60560
C         -0.65370       -0.66030       -3.76420
C         -1.58570       -1.35880       -4.49400
C         -2.52090       -0.61420       -5.23810
C         -2.50120        0.77400       -5.23100
C         -1.54740        1.48510       -4.47790
C         -0.63460        0.75440       -3.75540
C          0.47830        1.20970       -2.86870
O          0.84570        2.31120       -2.57610
H          2.22200        0.05680        4.49070
H          4.27760        0.96180        3.08550
H          4.31130       -0.80900        3.11410
H          3.84430       -0.87090        0.79160
H          3.81240        0.93070        0.76380
H         -0.24680        2.13640        2.75080
H         -2.70690        2.09100        3.09300
H         -3.90570       -0.07930        3.19870
H         -2.64800       -2.20770        2.97170
H         -0.18820       -2.16610        2.62550
H          2.65960       -0.93180       -1.34430
H          2.70250        0.87940       -1.33780
H         -1.60780       -2.44860       -4.49550
H         -3.27190       -1.14460       -5.82340
H         -3.23590        1.33090       -5.81240
H         -1.54100        2.57470       -4.46800
