rmsd103.gzmat
 OpenBabel08211713413D

 41 44  0  0  0  0  0  0  0  0999 V2000
    0.0000    0.0000    0.0000 O   0  0  0  0  0  0  0  0  0  0  0  0
    1.2092    0.0000    0.0000 C   0  0  0  0  0  0  0  0  0  0  0  0
    1.9366    0.0000    1.1736 N   0  0  0  0  0  0  0  0  0  0  0  0
    1.4013   -0.0054    2.4930 C   0  0  0  0  0  0  0  0  0  0  0  0
    2.3865   -0.0319    3.4172 C   0  0  0  0  0  0  0  0  0  0  0  0
    3.7408   -0.0460    2.7678 C   0  0  0  0  0  0  0  0  0  0  0  0
    3.4205   -0.0141    1.2457 C   0  0  0  0  0  0  0  0  0  0  0  0
   -0.0391    0.0331    2.7377 C   0  0  0  0  0  0  0  0  0  0  0  0
   -0.5792    1.1327    3.4094 C   0  0  0  0  0  0  0  0  0  0  0  0
   -1.9475    1.1832    3.6639 C   0  0  0  0  0  0  0  0  0  0  0  0
   -2.7725    0.1385    3.2508 C   0  0  0  0  0  0  0  0  0  0  0  0
   -2.2314   -0.9607    2.5849 C   0  0  0  0  0  0  0  0  0  0  0  0
   -0.8641   -1.0169    2.3261 C   0  0  0  0  0  0  0  0  0  0  0  0
    2.0164   -0.0089   -1.3070 C   0  0  0  0  0  0  0  0  0  0  0  0
    1.1272   -0.2445   -2.4257 N   0  0  0  0  0  0  0  0  0  0  0  0
    0.5500   -1.5313   -2.6652 C   0  0  0  0  0  0  0  0  0  0  0  0
    1.0016   -2.5511   -2.2283 O   0  0  0  0  0  0  0  0  0  0  0  0
   -0.6096   -1.2874   -3.5729 C   0  0  0  0  0  0  0  0  0  0  0  0
   -1.4843   -2.1779   -4.1486 C   0  0  0  0  0  0  0  0  0  0  0  0
   -2.5112   -1.6520   -4.9552 C   0  0  0  0  0  0  0  0  0  0  0  0
   -2.6320   -0.2842   -5.1609 C   0  0  0  0  0  0  0  0  0  0  0  0
   -1.7329    0.6240   -4.5697 C   0  0  0  0  0  0  0  0  0  0  0  0
   -0.7336    0.1061   -3.7807 C   0  0  0  0  0  0  0  0  0  0  0  0
    0.3425    0.8005   -3.0115 C   0  0  0  0  0  0  0  0  0  0  0  0
    0.6029    1.9640   -2.9062 O   0  0  0  0  0  0  0  0  0  0  0  0
    2.2798   -0.0457    4.4812 H   0  0  0  0  0  0  0  0  0  0  0  0
    4.3453    0.8245    3.0748 H   0  0  0  0  0  0  0  0  0  0  0  0
    4.3144   -0.9469    3.0454 H   0  0  0  0  0  0  0  0  0  0  0  0
    3.8214   -0.9087    0.7295 H   0  0  0  0  0  0  0  0  0  0  0  0
    3.8331    0.8940    0.7632 H   0  0  0  0  0  0  0  0  0  0  0  0
    0.0684    1.9500    3.7210 H   0  0  0  0  0  0  0  0  0  0  0  0
   -2.3712    2.0424    4.1789 H   0  0  0  0  0  0  0  0  0  0  0  0
   -3.8425    0.1834    3.4420 H   0  0  0  0  0  0  0  0  0  0  0  0
   -2.8773   -1.7709    2.2536 H   0  0  0  0  0  0  0  0  0  0  0  0
   -0.4394   -1.8626    1.7859 H   0  0  0  0  0  0  0  0  0  0  0  0
    2.7946   -0.8110   -1.2872 H   0  0  0  0  0  0  0  0  0  0  0  0
    2.5319    0.9751   -1.4397 H   0  0  0  0  0  0  0  0  0  0  0  0
   -1.3939   -3.2515   -3.9846 H   0  0  0  0  0  0  0  0  0  0  0  0
   -3.2217   -2.3366   -5.4187 H   0  0  0  0  0  0  0  0  0  0  0  0
   -3.4374    0.1012   -5.7862 H   0  0  0  0  0  0  0  0  0  0  0  0
   -1.8335    1.6976   -4.7288 H   0  0  0  0  0  0  0  0  0  0  0  0
  1  2  2  0  0  0  0
  2  3  1  0  0  0  0
  3  7  1  0  0  0  0
  3  4  1  0  0  0  0
  4  8  1  0  0  0  0
  4  5  2  0  0  0  0
  5 26  1  0  0  0  0
  6 28  1  0  0  0  0
  6 27  1  0  0  0  0
  6  5  1  0  0  0  0
  7  6  1  0  0  0  0
  8  9  2  0  0  0  0
  9 10  1  0  0  0  0
  9 31  1  0  0  0  0
 10 32  1  0  0  0  0
 11 33  1  0  0  0  0
 11 10  2  0  0  0  0
 12 11  1  0  0  0  0
 13 12  2  0  0  0  0
 13  8  1  0  0  0  0
 14 36  1  0  0  0  0
 14  2  1  0  0  0  0
 15 14  1  0  0  0  0
 16 15  1  0  0  0  0
 16 17  2  0  0  0  0
 18 16  1  0  0  0  0
 19 38  1  0  0  0  0
 19 18  2  0  0  0  0
 20 19  1  0  0  0  0
 21 20  2  0  0  0  0
 21 22  1  0  0  0  0
 22 23  2  0  0  0  0
 23 18  1  0  0  0  0
 23 24  1  0  0  0  0
 24 25  2  0  0  0  0
 24 15  1  0  0  0  0
 29  7  1  0  0  0  0
 30  7  1  0  0  0  0
 34 12  1  0  0  0  0
 35 13  1  0  0  0  0
 37 14  1  0  0  0  0
 39 20  1  0  0  0  0
 40 21  1  0  0  0  0
 41 22  1  0  0  0  0
M  END
$$$$
