41
rmsd131.gzmat
O          0.00000        0.00000        0.00000
C          1.20890        0.00000        0.00000
N          1.93750        0.00000        1.17470
C          1.40100        0.09630        2.49100
C          2.38210        0.27270        3.40390
C          3.73230        0.32760        2.74890
C          3.41690        0.12770        1.23890
C         -0.03210       -0.01310        2.75360
C         -0.66740        1.00300        3.47280
C         -2.02530        0.89950        3.76450
C         -2.74750       -0.21420        3.33910
C         -2.11340       -1.22740        2.62120
C         -0.75590       -1.12940        2.32630
C          2.01960       -0.04620       -1.30410
N          1.12850       -0.25270       -2.42690
C          0.51720       -1.52070       -2.68230
O          0.93570       -2.55680       -2.25190
C         -0.62330       -1.23590       -3.60260
C         -1.51330       -2.09580       -4.20090
C         -2.50850       -1.53370       -5.02290
C         -2.58630       -0.16150       -5.21940
C         -1.67350        0.71550       -4.60280
C         -0.70330        0.16210       -3.80160
C          0.38120        0.81870       -3.01230
O          0.67390        1.97320       -2.89200
H          2.27500        0.35530        4.46510
H          4.23530        1.29170        2.93790
H          4.40160       -0.46190        3.13190
H          3.88800       -0.79560        0.84590
H          3.76120        0.98950        0.63550
H         -0.10210        1.87550        3.79470
H         -2.52090        1.69210        4.32020
H         -3.80950       -0.29080        3.56200
H         -2.67960       -2.09150        2.27950
H         -0.26100       -1.90940        1.74830
H          2.76680       -0.87710       -1.27190
H          2.57370        0.91540       -1.44300
H         -1.45790       -3.17290       -4.04220
H         -3.22910       -2.19290       -5.50680
H         -3.36770        0.25180       -5.85720
H         -1.74080        1.79290       -4.75370
