41
rmsd205.gzmat
O          0.00000        0.00000        0.00000
C          1.20850        0.00000        0.00000
N          1.93290        0.00000        1.17670
C          1.38660        0.01270        2.48990
C          2.36090        0.02280        3.42440
C          3.72170        0.02460        2.78650
C          3.41560       -0.00380        1.26110
C         -0.05990        0.01200        2.70620
C         -0.73820        1.22180        2.86590
C         -2.11080        1.21390        3.10410
C         -2.80010        0.00460        3.18100
C         -2.11950       -1.20160        3.02000
C         -0.74750       -1.20150        2.78070
C          2.02890       -0.00340       -1.29820
N          1.14000        0.05040       -2.43960
C          0.48980        1.26300       -2.83380
O          0.87920        2.35280       -2.52630
C         -0.64480        0.84140       -3.70830
C         -1.56710        1.60040       -4.38870
C         -2.54860        0.91950       -5.13360
C         -2.58140       -0.46790       -5.17780
C         -1.63610       -1.24120       -4.47700
C         -0.68040       -0.57170       -3.75040
C          0.42790       -1.10210       -2.90110
O          0.75850       -2.22650       -2.65620
H          2.24320        0.02860        4.48730
H          4.29830        0.92250        3.06820
H          4.31760       -0.84920        3.09940
H          3.82150       -0.91680        0.78230
H          3.83070        0.88520        0.74740
H         -0.19680        2.16330        2.79390
H         -2.64440        2.15440        3.22280
H         -3.87310        0.00190        3.36070
H         -2.65920       -2.14470        3.07310
H         -0.21230       -2.13890        2.64140
H          2.65070       -0.93130       -1.35690
H          2.71650        0.87810       -1.32580
H         -1.54750        2.68930       -4.35150
H         -3.29440        1.49830       -5.67850
H         -3.35160       -0.97380       -5.75970
H         -1.66710       -2.33000       -4.50730
