rmsd132.gzmat
 OpenBabel08211713413D

 41 44  0  0  0  0  0  0  0  0999 V2000
    0.0000    0.0000    0.0000 O   0  0  0  0  0  0  0  0  0  0  0  0
    1.2081    0.0000    0.0000 C   0  0  0  0  0  0  0  0  0  0  0  0
    1.9348    0.0000    1.1781 N   0  0  0  0  0  0  0  0  0  0  0  0
    1.3792   -0.0876    2.4868 C   0  0  0  0  0  0  0  0  0  0  0  0
    2.3373   -0.3165    3.4108 C   0  0  0  0  0  0  0  0  0  0  0  0
    3.6917   -0.4277    2.7708 C   0  0  0  0  0  0  0  0  0  0  0  0
    3.4026   -0.2189    1.2563 C   0  0  0  0  0  0  0  0  0  0  0  0
   -0.0527    0.0936    2.7155 C   0  0  0  0  0  0  0  0  0  0  0  0
   -0.6627    1.3178    2.4305 C   0  0  0  0  0  0  0  0  0  0  0  0
   -2.0229    1.4843    2.6772 C   0  0  0  0  0  0  0  0  0  0  0  0
   -2.7722    0.4303    3.1991 C   0  0  0  0  0  0  0  0  0  0  0  0
   -2.1612   -0.7900    3.4830 C   0  0  0  0  0  0  0  0  0  0  0  0
   -0.7995   -0.9609    3.2449 C   0  0  0  0  0  0  0  0  0  0  0  0
    2.0259    0.0633   -1.2981 C   0  0  0  0  0  0  0  0  0  0  0  0
    1.1417    0.0010   -2.4427 N   0  0  0  0  0  0  0  0  0  0  0  0
    0.5671   -1.2323   -2.8840 C   0  0  0  0  0  0  0  0  0  0  0  0
    1.0103   -2.3074   -2.5971 O   0  0  0  0  0  0  0  0  0  0  0  0
   -0.5739   -0.8489   -3.7668 C   0  0  0  0  0  0  0  0  0  0  0  0
   -1.4388   -1.6375   -4.4876 C   0  0  0  0  0  0  0  0  0  0  0  0
   -2.4451   -0.9896   -5.2292 C   0  0  0  0  0  0  0  0  0  0  0  0
   -2.5564    0.3944   -5.2310 C   0  0  0  0  0  0  0  0  0  0  0  0
   -1.6669    1.1976   -4.4918 C   0  0  0  0  0  0  0  0  0  0  0  0
   -0.6876    0.5608   -3.7675 C   0  0  0  0  0  0  0  0  0  0  0  0
    0.3735    1.1261   -2.8805 C   0  0  0  0  0  0  0  0  0  0  0  0
    0.6332    2.2592   -2.5951 O   0  0  0  0  0  0  0  0  0  0  0  0
    2.2125   -0.4001    4.4697 H   0  0  0  0  0  0  0  0  0  0  0  0
    4.3861    0.3365    3.1601 H   0  0  0  0  0  0  0  0  0  0  0  0
    4.1558   -1.4094    2.9667 H   0  0  0  0  0  0  0  0  0  0  0  0
    3.6984   -1.1071    0.6641 H   0  0  0  0  0  0  0  0  0  0  0  0
    3.9324    0.6695    0.8597 H   0  0  0  0  0  0  0  0  0  0  0  0
   -0.0765    2.1292    2.0016 H   0  0  0  0  0  0  0  0  0  0  0  0
   -2.5004    2.4355    2.4512 H   0  0  0  0  0  0  0  0  0  0  0  0
   -3.8374    0.5584    3.3785 H   0  0  0  0  0  0  0  0  0  0  0  0
   -2.7473   -1.6140    3.8836 H   0  0  0  0  0  0  0  0  0  0  0  0
   -0.3187   -1.9134    3.4587 H   0  0  0  0  0  0  0  0  0  0  0  0
    2.7497   -0.7873   -1.3499 H   0  0  0  0  0  0  0  0  0  0  0  0
    2.6083    1.0181   -1.3295 H   0  0  0  0  0  0  0  0  0  0  0  0
   -1.3558   -2.7245   -4.4831 H   0  0  0  0  0  0  0  0  0  0  0  0
   -3.1473   -1.5919   -5.8059 H   0  0  0  0  0  0  0  0  0  0  0  0
   -3.3472    0.8737   -5.8082 H   0  0  0  0  0  0  0  0  0  0  0  0
   -1.7580    2.2837   -4.4913 H   0  0  0  0  0  0  0  0  0  0  0  0
  1  2  2  0  0  0  0
  2  3  1  0  0  0  0
  3  7  1  0  0  0  0
  3  4  1  0  0  0  0
  4  8  1  0  0  0  0
  4  5  2  0  0  0  0
  5 26  1  0  0  0  0
  6 28  1  0  0  0  0
  6 27  1  0  0  0  0
  6  5  1  0  0  0  0
  7  6  1  0  0  0  0
  8 13  2  0  0  0  0
  9 10  2  0  0  0  0
  9  8  1  0  0  0  0
 10 11  1  0  0  0  0
 11 33  1  0  0  0  0
 11 12  2  0  0  0  0
 12 34  1  0  0  0  0
 13 35  1  0  0  0  0
 13 12  1  0  0  0  0
 14  2  1  0  0  0  0
 15 14  1  0  0  0  0
 16 17  2  0  0  0  0
 16 15  1  0  0  0  0
 18 16  1  0  0  0  0
 19 38  1  0  0  0  0
 19 18  2  0  0  0  0
 20 19  1  0  0  0  0
 21 20  2  0  0  0  0
 21 22  1  0  0  0  0
 22 41  1  0  0  0  0
 22 23  2  0  0  0  0
 23 18  1  0  0  0  0
 23 24  1  0  0  0  0
 24 25  2  0  0  0  0
 24 15  1  0  0  0  0
 29  7  1  0  0  0  0
 30  7  1  0  0  0  0
 31  9  1  0  0  0  0
 32 10  1  0  0  0  0
 36 14  1  0  0  0  0
 37 14  1  0  0  0  0
 39 20  1  0  0  0  0
 40 21  1  0  0  0  0
M  END
$$$$
