rmsd125.gzmat
 OpenBabel08211713383D

 53 57  0  0  0  0  0  0  0  0999 V2000
    0.0000    0.0000    0.0000 O   0  0  0  0  0  0  0  0  0  0  0  0
    1.1987    0.0000    0.0000 C   0  0  0  0  0  0  0  0  0  0  0  0
    2.0537    0.0000    1.1687 N   0  0  0  0  0  0  0  0  0  0  0  0
    3.3562    0.0070    0.6972 C   0  0  0  0  0  0  0  0  0  0  0  0
    3.3557   -0.1166   -0.6897 C   0  0  0  0  0  0  0  0  0  0  0  0
    2.0533   -0.2096   -1.1502 N   0  0  0  0  0  0  0  0  0  0  0  0
    1.6601    0.2985   -2.4677 C   0  0  0  0  0  0  0  0  0  0  0  0
    1.6871    1.8050   -2.4744 C   0  0  0  0  0  0  0  0  0  0  0  0
    2.8781    2.4766   -2.7499 C   0  0  0  0  0  0  0  0  0  0  0  0
    2.9196    3.8669   -2.6831 C   0  0  0  0  0  0  0  0  0  0  0  0
    1.7700    4.5845   -2.3559 C   0  0  0  0  0  0  0  0  0  0  0  0
    0.5775    3.9120   -2.0940 C   0  0  0  0  0  0  0  0  0  0  0  0
    0.5356    2.5206   -2.1475 C   0  0  0  0  0  0  0  0  0  0  0  0
    4.7482   -0.0682   -1.1957 C   0  0  0  0  0  0  0  0  0  0  0  0
    5.1996   -0.1394   -2.3017 O   0  0  0  0  0  0  0  0  0  0  0  0
    5.5296    0.1614   -0.0160 N   0  0  0  0  0  0  0  0  0  0  0  0
    4.7491    0.1388    1.1858 C   0  0  0  0  0  0  0  0  0  0  0  0
    5.2020    0.2545    2.2877 O   0  0  0  0  0  0  0  0  0  0  0  0
    6.9847    0.0372   -0.0065 C   0  0  0  0  0  0  0  0  0  0  0  0
    7.3980   -1.4082    0.1004 C   0  0  0  0  0  0  0  0  0  0  0  0
    7.6432   -2.1489   -1.0556 C   0  0  0  0  0  0  0  0  0  0  0  0
    8.0099   -3.4891   -0.9546 C   0  0  0  0  0  0  0  0  0  0  0  0
    8.1288   -4.0875    0.2988 C   0  0  0  0  0  0  0  0  0  0  0  0
    7.8757   -3.3473    1.4529 C   0  0  0  0  0  0  0  0  0  0  0  0
    7.5083   -2.0073    1.3551 C   0  0  0  0  0  0  0  0  0  0  0  0
    1.6638    0.7442    2.3704 C   0  0  0  0  0  0  0  0  0  0  0  0
    1.7357    2.2265    2.1108 C   0  0  0  0  0  0  0  0  0  0  0  0
    0.6110    2.9007    1.6358 C   0  0  0  0  0  0  0  0  0  0  0  0
    0.6946    4.2566    1.3285 C   0  0  0  0  0  0  0  0  0  0  0  0
    1.9021    4.9345    1.4878 C   0  0  0  0  0  0  0  0  0  0  0  0
    3.0234    4.2595    1.9675 C   0  0  0  0  0  0  0  0  0  0  0  0
    2.9404    2.9064    2.2862 C   0  0  0  0  0  0  0  0  0  0  0  0
    0.6392   -0.0969   -2.6977 H   0  0  0  0  0  0  0  0  0  0  0  0
    2.3521   -0.1303   -3.2346 H   0  0  0  0  0  0  0  0  0  0  0  0
    3.7767    1.9161   -3.0127 H   0  0  0  0  0  0  0  0  0  0  0  0
    3.8509    4.3923   -2.8859 H   0  0  0  0  0  0  0  0  0  0  0  0
    1.8042    5.6709   -2.3037 H   0  0  0  0  0  0  0  0  0  0  0  0
   -0.3205    4.4724   -1.8421 H   0  0  0  0  0  0  0  0  0  0  0  0
   -0.3916    1.9929   -1.9195 H   0  0  0  0  0  0  0  0  0  0  0  0
    7.3854    0.6348    0.8500 H   0  0  0  0  0  0  0  0  0  0  0  0
    7.3852    0.5049   -0.9403 H   0  0  0  0  0  0  0  0  0  0  0  0
    7.5366   -1.6838   -2.0360 H   0  0  0  0  0  0  0  0  0  0  0  0
    8.2001   -4.0689   -1.8554 H   0  0  0  0  0  0  0  0  0  0  0  0
    8.4164   -5.1341    0.3762 H   0  0  0  0  0  0  0  0  0  0  0  0
    7.9621   -3.8163    2.4310 H   0  0  0  0  0  0  0  0  0  0  0  0
    7.2975   -1.4296    2.2561 H   0  0  0  0  0  0  0  0  0  0  0  0
    2.3346    0.4384    3.2111 H   0  0  0  0  0  0  0  0  0  0  0  0
    0.6294    0.4243    2.6524 H   0  0  0  0  0  0  0  0  0  0  0  0
   -0.3279    2.3648    1.4902 H   0  0  0  0  0  0  0  0  0  0  0  0
   -0.1820    4.7839    0.9574 H   0  0  0  0  0  0  0  0  0  0  0  0
    1.9703    5.9912    1.2371 H   0  0  0  0  0  0  0  0  0  0  0  0
    3.9658    4.7894    2.0911 H   0  0  0  0  0  0  0  0  0  0  0  0
    3.8182    2.3812    2.6662 H   0  0  0  0  0  0  0  0  0  0  0  0
  2  1  2  0  0  0  0
  2  3  1  0  0  0  0
  3 26  1  0  0  0  0
  4  3  1  0  0  0  0
  4 17  1  0  0  0  0
  5  4  2  0  0  0  0
  6  5  1  0  0  0  0
  6  2  1  0  0  0  0
  7  6  1  0  0  0  0
  8  7  1  0  0  0  0
  8 13  2  0  0  0  0
  9 10  2  0  0  0  0
  9  8  1  0  0  0  0
 10 11  1  0  0  0  0
 11 37  1  0  0  0  0
 11 12  2  0  0  0  0
 12 38  1  0  0  0  0
 13 12  1  0  0  0  0
 13 39  1  0  0  0  0
 14  5  1  0  0  0  0
 14 16  1  0  0  0  0
 15 14  2  0  0  0  0
 16 19  1  0  0  0  0
 16 17  1  0  0  0  0
 17 18  2  0  0  0  0
 19 20  1  0  0  0  0
 19 40  1  0  0  0  0
 20 25  2  0  0  0  0
 21 22  2  0  0  0  0
 21 20  1  0  0  0  0
 22 23  1  0  0  0  0
 23 44  1  0  0  0  0
 23 24  2  0  0  0  0
 24 45  1  0  0  0  0
 25 24  1  0  0  0  0
 25 46  1  0  0  0  0
 26 48  1  0  0  0  0
 26 47  1  0  0  0  0
 27 32  1  0  0  0  0
 27 26  1  0  0  0  0
 28 27  2  0  0  0  0
 29 30  2  0  0  0  0
 29 28  1  0  0  0  0
 30 31  1  0  0  0  0
 31 52  1  0  0  0  0
 31 32  2  0  0  0  0
 32 53  1  0  0  0  0
 33  7  1  0  0  0  0
 34  7  1  0  0  0  0
 35  9  1  0  0  0  0
 36 10  1  0  0  0  0
 41 19  1  0  0  0  0
 42 21  1  0  0  0  0
 43 22  1  0  0  0  0
 49 28  1  0  0  0  0
 50 29  1  0  0  0  0
 51 30  1  0  0  0  0
M  END
$$$$
