53
rmsd238.gzmat
O          0.00000        0.00000        0.00000
C          1.19860        0.00000        0.00000
N          2.05310        0.00000        1.16970
C          3.35600       -0.00700        0.69990
C          3.35610        0.11890       -0.68660
N          2.05390        0.21100       -1.14910
C          1.66790       -0.30180       -2.46730
C          1.71200       -1.80770       -2.47050
C          0.56460       -2.53510       -2.15530
C          0.62350       -3.92460       -2.08530
C          1.82830       -4.58430       -2.32200
C          2.97290       -3.85550       -2.64150
C          2.91500       -2.46680       -2.72390
C          4.74790        0.07490       -1.19250
O          5.19800        0.15290       -2.29890
N          5.53080       -0.15750       -0.01420
C          4.74960       -0.13790        1.18840
O          5.20230       -0.25610        2.28980
C          6.98290       -0.00060       -0.00420
C          7.35860        1.45800        0.04930
C          7.56980        2.07800        1.28040
C          7.89360        3.43220        1.32680
C          8.00330        4.16480        0.14580
C          7.78540        3.54440       -1.08350
C          7.46110        2.19080       -1.13330
C          1.66030       -0.74200        2.37160
C          1.70830       -2.22430        2.10590
C          2.90810       -2.91900        2.25860
C          2.97030       -4.27180        1.93440
C          1.83330       -4.93090        1.46970
C          0.63150       -4.23810        1.33190
C          0.56790       -2.88280        1.64670
H          2.35710        0.13340       -3.23310
H          0.64400        0.08320       -2.70000
H         -0.37260       -2.01730       -1.94870
H         -0.27020       -4.49420       -1.83890
H          1.87640       -5.66920       -2.25610
H          3.91370       -4.37090       -2.82480
H          3.81040       -1.89840       -2.98060
H          7.39820       -0.49030       -0.92000
H          7.39400       -0.55920        0.87290
H          7.47070        1.50780        2.20430
H          8.05720        3.91820        2.28650
H          8.25640        5.22250        0.18340
H          7.86520        4.11790       -2.00470
H          7.27550        1.70710       -2.09350
H          0.63290       -0.40690        2.66100
H          2.34110       -0.44940        3.20880
H          3.79770       -2.40500        2.62590
H          3.90790       -4.81350        2.04290
H          1.88440       -5.98700        1.21300
H         -0.25600       -4.75360        0.97120
H         -0.36690       -2.33560        1.51850
