53
rmsd162.gzmat
O          0.00000        0.00000        0.00000
C          1.19850        0.00000        0.00000
N          2.05420        0.00000        1.16870
C          3.35620        0.00510        0.69610
C          3.35610       -0.12040       -0.69030
N          2.05270       -0.20990       -1.15120
C          1.65900        0.30940       -2.46450
C          1.75110        1.81330       -2.48050
C          0.64210        2.58090       -2.12610
C          0.74720        3.96920       -2.08110
C          1.96060        4.58760       -2.37800
C          3.06740        3.81810       -2.73360
C          2.96250        2.43080       -2.79280
C          4.75010       -0.07480       -1.19350
O          5.20400       -0.15370       -2.29820
N          5.52930        0.16000       -0.01380
C          4.74730        0.14290        1.18690
O          5.19680        0.27050        2.28860
C          6.98510        0.04880        0.00040
C          7.41330       -1.39390        0.08050
C          7.53710       -2.14540       -1.08810
C          7.92630       -3.48070       -1.01460
C          8.19310       -4.06270        0.22410
C          8.05930       -3.31250        1.39130
C          7.66390       -1.97840        1.32140
C          1.67080        0.75400        2.36620
C          1.68230        2.23240        2.07570
C          0.51210        2.86740        1.66130
C          0.53840        4.22090        1.33290
C          1.73340        4.93460        1.40940
C          2.90200        4.29720        1.82350
C          2.87670        2.94710        2.16330
H          0.61810       -0.04250       -2.67610
H          2.31820       -0.15250       -3.24060
H         -0.30100        2.09630       -1.87090
H         -0.11780        4.56950       -1.80680
H          2.04440        5.67140       -2.33080
H          4.01540        4.30060       -2.96410
H          3.82790        1.83020       -3.07840
H          7.37600        0.63570        0.86900
H          7.38680        0.53570       -0.92320
H          7.31790       -1.69060       -2.05560
H          8.01940       -4.06990       -1.92460
H          8.50220       -5.10460        0.28040
H          8.26050       -3.76920        2.35820
H          7.53930       -1.39670        2.23500
H          2.37630        0.49050        3.19300
H          0.65790        0.40250        2.68400
H         -0.41800        2.30350        1.57960
H         -0.37410        4.71840        1.01090
H          1.75460        5.99010        1.14530
H          3.83550        4.85370        1.88060
H          3.79030        2.45080        2.49330
