53

O         -0.04340        0.29280       -0.12720
C          1.16870        0.24060       -0.08290
N          1.97770        0.11880        1.06520
C          3.28960        0.06580        0.66880
C          3.34390        0.18740       -0.68300
N          2.06550        0.28190       -1.16960
C          1.64330        0.52610       -2.54430
C          1.71800        1.99260       -2.90580
C          2.88020        2.52140       -3.48320
C          2.96390        3.88670       -3.76900
C          1.88950        4.73150       -3.47680
C          0.73110        4.20890       -2.89300
C          0.64550        2.84490       -2.60670
C          4.75510        0.20730       -1.12450
O          5.23470        0.27930       -2.23310
N          5.49070        0.11500        0.07990
C          4.66030       -0.00520        1.21780
O          5.04920       -0.14090        2.35590
C          6.92760       -0.12190        0.11760
C          7.27490       -1.59200        0.01530
C          7.46140       -2.19040       -1.23880
C          7.73290       -3.55720       -1.33600
C          7.81780       -4.33910       -0.18030
C          7.62800       -3.74940        1.07290
C          7.35680       -2.38270        1.17030
C          1.43740       -0.12290        2.39890
C          1.37390       -1.59970        2.71790
C          2.45980       -2.23750        3.33300
C          2.42170       -3.61330        3.57360
C          1.30090       -4.36000        3.19980
C          0.21840       -3.72850        2.57930
C          0.25500       -2.35370        2.33680
H          0.61220        0.15540       -2.61830
H          2.28620       -0.07450       -3.20280
H          3.72560        1.86100       -3.69330
H          3.87220        4.29190       -4.22170
H          1.95470        5.79860       -3.70290
H         -0.10960        4.86710       -2.66040
H         -0.25090        2.43200       -2.13700
H          7.29800        0.30050        1.06120
H          7.36630        0.44090       -0.71710
H          7.38080       -1.57880       -2.14070
H          7.87930       -4.01380       -2.31790
H          8.03170       -5.40800       -0.25630
H          7.69200       -4.35680        1.97900
H          7.19420       -1.92070        2.14700
H          0.43570        0.32670        2.40980
H          2.07490        0.40840        3.11930
H          3.34250       -1.65370        3.60680
H          3.27150       -4.10390        4.05430
H          1.27100       -5.43560        3.39030
H         -0.65800       -4.30980        2.28260
H         -0.58050       -1.85660        1.83730
