rmsd137.gzmat
 OpenBabel08211713383D

 53 57  0  0  0  0  0  0  0  0999 V2000
    0.0000    0.0000    0.0000 O   0  0  0  0  0  0  0  0  0  0  0  0
    1.1986    0.0000    0.0000 C   0  0  0  0  0  0  0  0  0  0  0  0
    2.0538    0.0000    1.1689 N   0  0  0  0  0  0  0  0  0  0  0  0
    3.3559    0.0093    0.6971 C   0  0  0  0  0  0  0  0  0  0  0  0
    3.3560   -0.1165   -0.6895 C   0  0  0  0  0  0  0  0  0  0  0  0
    2.0530   -0.2086   -1.1508 N   0  0  0  0  0  0  0  0  0  0  0  0
    1.6581    0.3094   -2.4644 C   0  0  0  0  0  0  0  0  0  0  0  0
    1.7142    1.8153   -2.4718 C   0  0  0  0  0  0  0  0  0  0  0  0
    2.9253    2.4628   -2.7156 C   0  0  0  0  0  0  0  0  0  0  0  0
    2.9937    3.8521   -2.6527 C   0  0  0  0  0  0  0  0  0  0  0  0
    1.8505    4.5947   -2.3608 C   0  0  0  0  0  0  0  0  0  0  0  0
    0.6384    3.9468   -2.1287 C   0  0  0  0  0  0  0  0  0  0  0  0
    0.5691    2.5562   -2.1783 C   0  0  0  0  0  0  0  0  0  0  0  0
    4.7491   -0.0637   -1.1944 C   0  0  0  0  0  0  0  0  0  0  0  0
    5.2034   -0.1427   -2.2990 O   0  0  0  0  0  0  0  0  0  0  0  0
    5.5265    0.1795   -0.0164 N   0  0  0  0  0  0  0  0  0  0  0  0
    4.7474    0.1595    1.1854 C   0  0  0  0  0  0  0  0  0  0  0  0
    5.1978    0.2920    2.2862 O   0  0  0  0  0  0  0  0  0  0  0  0
    6.9855    0.1307   -0.0109 C   0  0  0  0  0  0  0  0  0  0  0  0
    7.4818   -1.2849    0.1320 C   0  0  0  0  0  0  0  0  0  0  0  0
    7.6816   -2.0678   -1.0052 C   0  0  0  0  0  0  0  0  0  0  0  0
    8.1476   -3.3739   -0.8738 C   0  0  0  0  0  0  0  0  0  0  0  0
    8.4071   -3.8979    0.3917 C   0  0  0  0  0  0  0  0  0  0  0  0
    8.1914   -3.1190    1.5278 C   0  0  0  0  0  0  0  0  0  0  0  0
    7.7273   -1.8119    1.3996 C   0  0  0  0  0  0  0  0  0  0  0  0
    1.6643    0.7445    2.3706 C   0  0  0  0  0  0  0  0  0  0  0  0
    1.7242    2.2264    2.1044 C   0  0  0  0  0  0  0  0  0  0  0  0
    0.6011    2.8845    1.6031 C   0  0  0  0  0  0  0  0  0  0  0  0
    0.6761    4.2382    1.2846 C   0  0  0  0  0  0  0  0  0  0  0  0
    1.8736    4.9301    1.4602 C   0  0  0  0  0  0  0  0  0  0  0  0
    2.9922    4.2719    1.9691 C   0  0  0  0  0  0  0  0  0  0  0  0
    2.9181    2.9206    2.2978 C   0  0  0  0  0  0  0  0  0  0  0  0
    0.6279   -0.0667   -2.6854 H   0  0  0  0  0  0  0  0  0  0  0  0
    2.3335   -0.1328   -3.2386 H   0  0  0  0  0  0  0  0  0  0  0  0
    3.8197    1.8843   -2.9527 H   0  0  0  0  0  0  0  0  0  0  0  0
    3.9409    4.3571   -2.8317 H   0  0  0  0  0  0  0  0  0  0  0  0
    1.9054    5.6806   -2.3149 H   0  0  0  0  0  0  0  0  0  0  0  0
   -0.2544    4.5265   -1.9030 H   0  0  0  0  0  0  0  0  0  0  0  0
   -0.3752    2.0493   -1.9748 H   0  0  0  0  0  0  0  0  0  0  0  0
    7.3573    0.7731    0.8261 H   0  0  0  0  0  0  0  0  0  0  0  0
    7.3585    0.5915   -0.9599 H   0  0  0  0  0  0  0  0  0  0  0  0
    7.4632   -1.6600   -1.9931 H   0  0  0  0  0  0  0  0  0  0  0  0
    8.3071   -3.9850   -1.7600 H   0  0  0  0  0  0  0  0  0  0  0  0
    8.7750   -4.9168    0.4941 H   0  0  0  0  0  0  0  0  0  0  0  0
    8.3838   -3.5323    2.5158 H   0  0  0  0  0  0  0  0  0  0  0  0
    7.5471   -1.2054    2.2880 H   0  0  0  0  0  0  0  0  0  0  0  0
    2.3419    0.4459    3.2085 H   0  0  0  0  0  0  0  0  0  0  0  0
    0.6339    0.4182    2.6590 H   0  0  0  0  0  0  0  0  0  0  0  0
   -0.3291    2.3368    1.4463 H   0  0  0  0  0  0  0  0  0  0  0  0
   -0.1993    4.7524    0.8925 H   0  0  0  0  0  0  0  0  0  0  0  0
    1.9358    5.9847    1.1992 H   0  0  0  0  0  0  0  0  0  0  0  0
    3.9261    4.8131    2.1082 H   0  0  0  0  0  0  0  0  0  0  0  0
    3.7938    2.4080    2.6995 H   0  0  0  0  0  0  0  0  0  0  0  0
  1  2  2  0  0  0  0
  2  3  1  0  0  0  0
  3 26  1  0  0  0  0
  4  3  1  0  0  0  0
  4 17  1  0  0  0  0
  5  4  2  0  0  0  0
  6  5  1  0  0  0  0
  6  2  1  0  0  0  0
  7  6  1  0  0  0  0
  8  7  1  0  0  0  0
  8 13  2  0  0  0  0
  9 10  2  0  0  0  0
  9  8  1  0  0  0  0
 10 11  1  0  0  0  0
 11 37  1  0  0  0  0
 11 12  2  0  0  0  0
 12 38  1  0  0  0  0
 13 12  1  0  0  0  0
 13 39  1  0  0  0  0
 14  5  1  0  0  0  0
 14 16  1  0  0  0  0
 15 14  2  0  0  0  0
 16 19  1  0  0  0  0
 16 17  1  0  0  0  0
 17 18  2  0  0  0  0
 19 20  1  0  0  0  0
 19 40  1  0  0  0  0
 20 25  2  0  0  0  0
 21 22  2  0  0  0  0
 21 20  1  0  0  0  0
 22 23  1  0  0  0  0
 23 44  1  0  0  0  0
 23 24  2  0  0  0  0
 24 45  1  0  0  0  0
 25 24  1  0  0  0  0
 25 46  1  0  0  0  0
 26 48  1  0  0  0  0
 26 47  1  0  0  0  0
 27 32  1  0  0  0  0
 27 26  1  0  0  0  0
 28 27  2  0  0  0  0
 29 30  2  0  0  0  0
 29 28  1  0  0  0  0
 30 31  1  0  0  0  0
 31 52  1  0  0  0  0
 31 32  2  0  0  0  0
 32 53  1  0  0  0  0
 33  7  1  0  0  0  0
 34  7  1  0  0  0  0
 35  9  1  0  0  0  0
 36 10  1  0  0  0  0
 41 19  1  0  0  0  0
 42 21  1  0  0  0  0
 43 22  1  0  0  0  0
 49 28  1  0  0  0  0
 50 29  1  0  0  0  0
 51 30  1  0  0  0  0
M  END
$$$$
