53

O          0.02890        0.44740       -0.08670
C          1.23870        0.34210       -0.07570
N          2.08750        0.36690        1.04920
C          3.38640        0.29590        0.61330
C          3.38850        0.17980       -0.73980
N          2.09110        0.17510       -1.18570
C          1.62060        0.25050       -2.56510
C          1.69210        1.66210       -3.10360
C          0.65060        2.56510       -2.84500
C          0.73880        3.88510       -3.29150
C          1.86820        4.31330       -3.99660
C          2.91150        3.41860       -4.24950
C          2.82580        2.09720       -3.80280
C          4.78180        0.14400       -1.23460
O          5.21860        0.04070       -2.35830
N          5.56210        0.27040       -0.06280
C          4.77830        0.34570        1.11100
O          5.21190        0.43610        2.23710
C          7.01060        0.12270       -0.04790
C          7.44830       -1.32100        0.07960
C          7.62630       -2.11080       -1.06500
C          7.98730       -3.45500       -0.94650
C          8.17120       -4.02280        0.31770
C          7.99000       -3.24190        1.46300
C          7.62890       -1.89770        1.34460
C          1.61230        0.67540        2.39420
C          1.68310        2.15770        2.68600
C          0.64220        3.00400        2.27680
C          0.73010        4.38050        2.49350
C          1.85870        4.92200        3.11730
C          2.90140        4.08300        3.51960
C          2.81590        2.70500        3.30320
H          0.58530       -0.11570       -2.55750
H          2.23630       -0.43270       -3.16600
H         -0.22110        2.22770       -2.27910
H         -0.07700        4.58310       -3.08850
H          1.93530        5.34600       -4.34740
H          3.79750        3.75030       -4.79630
H          3.64890        1.40050       -3.98110
H          7.38450        0.71740        0.79620
H          7.38650        0.56100       -0.98210
H          7.46890       -1.66670       -2.05090
H          8.12650       -4.06170       -1.84470
H          8.45580       -5.07370        0.41030
H          8.13120       -3.68160        2.45340
H          7.47340       -1.28750        2.23770
H          2.22520        0.10370        3.10450
H          0.57680        0.31350        2.44510
H         -0.22900        2.57570        1.77520
H         -0.08530        5.03410        2.17420
H          1.92560        5.99920        3.28820
H          3.78680        4.50250        4.00350
H          3.63860        2.04860        3.59820
