53
rmsd132.gzmat
O          0.00000        0.00000        0.00000
C          1.19850        0.00000        0.00000
N          2.05360        0.00000        1.16840
C          3.35590        0.00350        0.69720
C          3.35610       -0.12290       -0.68930
N          2.05340       -0.21160       -1.15040
C          1.66120        0.30070       -2.46670
C          1.67840        1.80730       -2.46460
C          2.86870        2.49110       -2.71150
C          2.89640        3.88130       -2.63320
C          1.73540        4.58630       -2.31910
C          0.54410        3.90140       -2.08540
C          0.51510        2.51060       -2.15420
C          4.75040       -0.08990       -1.19270
O          5.20260       -0.16340       -2.29800
N          5.53270        0.12950       -0.01080
C          4.74820        0.12520        1.18800
O          5.19700        0.24620        2.29120
C          6.98550       -0.01770        0.00580
C          7.38010       -1.46470        0.15700
C          7.35380       -2.06250        1.41750
C          7.70740       -3.40240        1.55670
C          8.08590       -4.14460        0.43830
C          8.10770       -3.54690       -0.82090
C          7.75270       -2.20700       -0.96330
C          1.66610        0.74130        2.37210
C          1.68420        2.22340        2.10200
C          0.51910        2.86600        1.68410
C          0.54890        4.22520        1.38070
C          1.74380        4.93610        1.48110
C          2.90750        4.29120        1.89800
C          2.87790        2.93590        2.21650
H          0.64270       -0.09950       -2.70060
H          2.35670       -0.11970       -3.23460
H          3.77730        1.94080       -2.96130
H          3.82610        4.41640       -2.81650
H          1.75920        5.67240       -2.25610
H         -0.36290        4.45150       -1.84290
H         -0.41200        1.97290       -1.95130
H          7.39440        0.59550        0.84780
H          7.39510        0.41940       -0.93860
H          7.04820       -1.48330        2.29070
H          7.68740       -3.87000        2.53910
H          8.36050       -5.19180        0.54870
H          8.39860       -4.12710       -1.69420
H          7.75700       -1.74410       -1.95020
H          2.36490        0.46440        3.20020
H          0.64900        0.39050        2.67910
H         -0.40950        2.30340        1.57990
H         -0.36080        4.72940        1.06090
H          1.76900        5.99530        1.23350
H          3.84060        4.84620        1.97430
H          3.78750        2.43380        2.54970
