rmsd17.gzmat
 OpenBabel08211713383D

 53 57  0  0  0  0  0  0  0  0999 V2000
    0.0000    0.0000    0.0000 O   0  0  0  0  0  0  0  0  0  0  0  0
    1.1988    0.0000    0.0000 C   0  0  0  0  0  0  0  0  0  0  0  0
    2.0537    0.0000    1.1689 N   0  0  0  0  0  0  0  0  0  0  0  0
    3.3559    0.0060    0.6996 C   0  0  0  0  0  0  0  0  0  0  0  0
    3.3559   -0.1220   -0.6866 C   0  0  0  0  0  0  0  0  0  0  0  0
    2.0529   -0.2087   -1.1500 N   0  0  0  0  0  0  0  0  0  0  0  0
    1.6683    0.3201   -2.4629 C   0  0  0  0  0  0  0  0  0  0  0  0
    1.8439    1.8162   -2.4904 C   0  0  0  0  0  0  0  0  0  0  0  0
    3.0631    2.3655   -2.8866 C   0  0  0  0  0  0  0  0  0  0  0  0
    3.2527    3.7439   -2.8270 C   0  0  0  0  0  0  0  0  0  0  0  0
    2.2235    4.5721   -2.3821 C   0  0  0  0  0  0  0  0  0  0  0  0
    0.9999    4.0222   -2.0033 C   0  0  0  0  0  0  0  0  0  0  0  0
    0.8087    2.6436   -2.0554 C   0  0  0  0  0  0  0  0  0  0  0  0
    4.7490   -0.0929   -1.1900 C   0  0  0  0  0  0  0  0  0  0  0  0
    5.2009   -0.1744   -2.2955 O   0  0  0  0  0  0  0  0  0  0  0  0
    5.5332    0.1243   -0.0100 N   0  0  0  0  0  0  0  0  0  0  0  0
    4.7502    0.1257    1.1905 C   0  0  0  0  0  0  0  0  0  0  0  0
    5.1990    0.2512    2.2925 O   0  0  0  0  0  0  0  0  0  0  0  0
    6.9862   -0.0236   -0.0017 C   0  0  0  0  0  0  0  0  0  0  0  0
    7.3804   -1.4784    0.0179 C   0  0  0  0  0  0  0  0  0  0  0  0
    7.4189   -2.2003   -1.1756 C   0  0  0  0  0  0  0  0  0  0  0  0
    7.7684   -3.5482   -1.1605 C   0  0  0  0  0  0  0  0  0  0  0  0
    8.0824   -4.1737    0.0453 C   0  0  0  0  0  0  0  0  0  0  0  0
    8.0401   -3.4522    1.2372 C   0  0  0  0  0  0  0  0  0  0  0  0
    7.6860   -2.1044    1.2256 C   0  0  0  0  0  0  0  0  0  0  0  0
    1.6569    0.7286    2.3772 C   0  0  0  0  0  0  0  0  0  0  0  0
    1.5411    2.2019    2.0843 C   0  0  0  0  0  0  0  0  0  0  0  0
    0.3160    2.7329    1.6803 C   0  0  0  0  0  0  0  0  0  0  0  0
    0.2187    4.0847    1.3588 C   0  0  0  0  0  0  0  0  0  0  0  0
    1.3458    4.9016    1.4338 C   0  0  0  0  0  0  0  0  0  0  0  0
    2.5700    4.3676    1.8335 C   0  0  0  0  0  0  0  0  0  0  0  0
    2.6693    3.0179    2.1634 C   0  0  0  0  0  0  0  0  0  0  0  0
    0.6072    0.0254   -2.6585 H   0  0  0  0  0  0  0  0  0  0  0  0
    2.2905   -0.1857   -3.2421 H   0  0  0  0  0  0  0  0  0  0  0  0
    3.8708    1.7193   -3.2358 H   0  0  0  0  0  0  0  0  0  0  0  0
    4.2072    4.1724   -3.1269 H   0  0  0  0  0  0  0  0  0  0  0  0
    2.3755    5.6484   -2.3305 H   0  0  0  0  0  0  0  0  0  0  0  0
    0.1952    4.6680   -1.6575 H   0  0  0  0  0  0  0  0  0  0  0  0
   -0.1429    2.2118   -1.7434 H   0  0  0  0  0  0  0  0  0  0  0  0
    7.3922    0.5201    0.8870 H   0  0  0  0  0  0  0  0  0  0  0  0
    7.3981    0.4878   -0.9078 H   0  0  0  0  0  0  0  0  0  0  0  0
    7.1662   -1.7111   -2.1180 H   0  0  0  0  0  0  0  0  0  0  0  0
    7.7937   -4.1130   -2.0903 H   0  0  0  0  0  0  0  0  0  0  0  0
    8.3590   -5.2260    0.0561 H   0  0  0  0  0  0  0  0  0  0  0  0
    8.2814   -3.9418    2.1785 H   0  0  0  0  0  0  0  0  0  0  0  0
    7.6406   -1.5448    2.1596 H   0  0  0  0  0  0  0  0  0  0  0  0
    2.4060    0.5241    3.1820 H   0  0  0  0  0  0  0  0  0  0  0  0
    0.6843    0.3020    2.7292 H   0  0  0  0  0  0  0  0  0  0  0  0
   -0.5604    2.0876    1.5996 H   0  0  0  0  0  0  0  0  0  0  0  0
   -0.7364    4.5002    1.0434 H   0  0  0  0  0  0  0  0  0  0  0  0
    1.2712    5.9565    1.1777 H   0  0  0  0  0  0  0  0  0  0  0  0
    3.4500    5.0051    1.8864 H   0  0  0  0  0  0  0  0  0  0  0  0
    3.6268    2.6022    2.4785 H   0  0  0  0  0  0  0  0  0  0  0  0
  2  1  2  0  0  0  0
  2  3  1  0  0  0  0
  3 26  1  0  0  0  0
  4  3  1  0  0  0  0
  4 17  1  0  0  0  0
  5  4  2  0  0  0  0
  6  5  1  0  0  0  0
  6  2  1  0  0  0  0
  7  6  1  0  0  0  0
  8  7  1  0  0  0  0
  8 13  2  0  0  0  0
  9 10  2  0  0  0  0
  9  8  1  0  0  0  0
 10 11  1  0  0  0  0
 11 37  1  0  0  0  0
 11 12  2  0  0  0  0
 12 38  1  0  0  0  0
 13 12  1  0  0  0  0
 13 39  1  0  0  0  0
 14  5  1  0  0  0  0
 14 16  1  0  0  0  0
 15 14  2  0  0  0  0
 16 19  1  0  0  0  0
 16 17  1  0  0  0  0
 17 18  2  0  0  0  0
 19 20  1  0  0  0  0
 19 40  1  0  0  0  0
 20 25  2  0  0  0  0
 21 22  2  0  0  0  0
 21 20  1  0  0  0  0
 22 23  1  0  0  0  0
 23 44  1  0  0  0  0
 23 24  2  0  0  0  0
 24 45  1  0  0  0  0
 25 24  1  0  0  0  0
 25 46  1  0  0  0  0
 26 48  1  0  0  0  0
 26 47  1  0  0  0  0
 27 32  1  0  0  0  0
 27 26  1  0  0  0  0
 28 27  2  0  0  0  0
 29 30  2  0  0  0  0
 29 28  1  0  0  0  0
 30 31  1  0  0  0  0
 31 52  1  0  0  0  0
 31 32  2  0  0  0  0
 32 53  1  0  0  0  0
 33  7  1  0  0  0  0
 34  7  1  0  0  0  0
 35  9  1  0  0  0  0
 36 10  1  0  0  0  0
 41 19  1  0  0  0  0
 42 21  1  0  0  0  0
 43 22  1  0  0  0  0
 49 28  1  0  0  0  0
 50 29  1  0  0  0  0
 51 30  1  0  0  0  0
M  END
$$$$
