53
rmsd32.gzmat
O          0.00000        0.00000        0.00000
C          1.20530        0.00000        0.00000
N          2.05640        0.00000        1.14520
C          3.36090       -0.02490        0.70900
C          3.36680        0.01230       -0.68810
N          2.06390       -0.02940       -1.13940
C          1.63000        0.30120       -2.49190
C          1.62720        1.79540       -2.68450
C          2.76800        2.43700       -3.16600
C          2.76930        3.82220       -3.31420
C          1.63440        4.56100       -2.98200
C          0.49760        3.91710       -2.49470
C          0.49310        2.53270       -2.34340
C          4.76030        0.02680       -1.18070
O          5.21780        0.10780       -2.28410
N          5.54450       -0.09660        0.01430
C          4.75480       -0.05660        1.21040
O          5.20360       -0.07280        2.31970
C          6.98750        0.12810        0.02390
C          7.29990        1.60230        0.06860
C          7.51500        2.23090        1.29480
C          7.79220        3.59560        1.33400
C          7.84640        4.33140        0.15120
C          7.62280        3.70290       -1.07310
C          7.34920        2.33800       -1.11620
C          1.60040       -0.18540        2.51620
C          1.69980       -1.63940        2.89800
C          2.82790       -2.10450        3.57280
C          2.92660       -3.45440        3.90280
C          1.90440       -4.33550        3.55370
C          0.77940       -3.86830        2.87530
C          0.67590       -2.51910        2.54510
H          0.60890       -0.13110       -2.64830
H          2.31080       -0.20510       -3.22090
H          3.65960        1.85950       -3.41710
H          3.65830        4.32650       -3.68790
H          1.63610        5.64310       -3.09870
H         -0.38500        4.49490       -2.22760
H         -0.38890        2.02750       -1.94630
H          7.42620       -0.34720       -0.88880
H          7.42350       -0.40550        0.90460
H          7.45540        1.65870        2.22110
H          7.96230        4.08740        2.28950
H          8.06080        5.39740        0.18430
H          7.66030        4.27880       -1.99540
H          7.16290        1.84660       -2.07230
H          0.54400        0.18090        2.59100
H          2.21530        0.45890        3.19320
H          3.63740       -1.41900        3.83130
H          3.80520       -3.82050        4.43030
H          1.98560       -5.39030        3.80880
H         -0.01760       -4.55700        2.60130
H         -0.19680       -2.15300        2.00230
