51

Cl        -0.07700        0.15230        0.37390
C          1.66600        0.11650        0.22940
C          2.43970        0.11920        1.39950
C          3.82000        0.09020        1.24610
N          4.84800        0.08430        2.17410
H          4.75910        0.10180        3.18110
C          6.09090        0.05080        1.54690
O          7.18490        0.03740        2.06910
N          5.80750        0.03530        0.17420
C          4.43010        0.05900       -0.03300
C          3.64350        0.05680       -1.18250
C          2.24840        0.08600       -1.04070
C          6.87510        0.00120       -0.81370
H          7.79520       -0.00840       -0.20750
C          6.90130        1.25880       -1.69370
C          8.03250        1.15840       -2.72860
N          7.97180       -0.05770       -3.54010
C          7.99170       -1.24530       -2.69130
C          6.85380       -1.27950       -1.65960
C          6.93360       -0.06070       -4.56760
C          7.28430        0.87530       -5.72260
N          8.62870        0.59240       -6.16590
C          9.09210        0.98520       -7.38440
O          8.38760        1.57630       -8.19190
C         10.52740        0.64940       -7.68490
C         11.13160        1.31370       -8.76290
C         12.45710        1.05930       -9.10730
C         13.17400        0.11970       -8.36790
F         14.44820       -0.13300       -8.69320
C         12.59810       -0.56970       -7.30290
C         11.27100       -0.29980       -6.96690
H          1.96590        0.14330        2.38080
H          4.08540        0.03280       -2.17760
H          1.60810        0.08530       -1.92300
H          7.04420        2.14910       -1.06120
H          5.93370        1.38730       -2.20380
H          8.02960        2.03960       -3.38670
H          9.00350        1.16300       -2.20330
H          7.96080       -2.14180       -3.32960
H          8.95920       -1.26430       -2.15870
H          5.88560       -1.38240       -2.17530
H          6.95910       -2.15750       -1.00270
H          5.92490        0.20460       -4.18800
H          6.86490       -1.08830       -4.95840
H          7.17790        1.93460       -5.41950
H          6.58670        0.73160       -6.56070
H          9.25430        0.26910       -5.43480
H         10.53030        2.03150       -9.32300
H         12.94500        1.57130       -9.93850
H         13.18940       -1.30950       -6.76080
H         10.81290       -0.86220       -6.15050
