rmsd86.gzmat
 OpenBabel08211713393D

 51 54  0  0  0  0  0  0  0  0999 V2000
    0.0000    0.0000    0.0000 Cl  0  0  0  0  0  0  0  0  0  0  0  0
    1.7104    0.0000    0.0000 C   0  0  0  0  0  0  0  0  0  0  0  0
    2.3579    0.0000    1.2338 C   0  0  0  0  0  0  0  0  0  0  0  0
    3.7417    0.0059    1.1891 C   0  0  0  0  0  0  0  0  0  0  0  0
    4.6959    0.0166    2.2149 N   0  0  0  0  0  0  0  0  0  0  0  0
    4.5036    0.0167    3.1948 H   0  0  0  0  0  0  0  0  0  0  0  0
    5.9931    0.0309    1.6497 C   0  0  0  0  0  0  0  0  0  0  0  0
    7.0361    0.0490    2.2524 O   0  0  0  0  0  0  0  0  0  0  0  0
    5.8223    0.0139    0.2431 N   0  0  0  0  0  0  0  0  0  0  0  0
    4.4531    0.0080   -0.0651 C   0  0  0  0  0  0  0  0  0  0  0  0
    3.7647    0.0021   -1.2684 C   0  0  0  0  0  0  0  0  0  0  0  0
    2.3673    0.0011   -1.2246 C   0  0  0  0  0  0  0  0  0  0  0  0
    6.9479    0.0716   -0.6886 C   0  0  0  0  0  0  0  0  0  0  0  0
    7.8904    0.0946   -0.0644 H   0  0  0  0  0  0  0  0  0  0  0  0
    6.8785    1.3537   -1.5402 C   0  0  0  0  0  0  0  0  0  0  0  0
    8.0250    1.3553   -2.5672 C   0  0  0  0  0  0  0  0  0  0  0  0
    8.0926    0.1485   -3.4147 N   0  0  0  0  0  0  0  0  0  0  0  0
    8.1338   -1.0694   -2.5811 C   0  0  0  0  0  0  0  0  0  0  0  0
    6.9704   -1.1845   -1.5806 C   0  0  0  0  0  0  0  0  0  0  0  0
    7.0212    0.0941   -4.4369 C   0  0  0  0  0  0  0  0  0  0  0  0
    7.3813    1.0357   -5.6152 C   0  0  0  0  0  0  0  0  0  0  0  0
    8.7371    0.7497   -6.0885 N   0  0  0  0  0  0  0  0  0  0  0  0
    9.0304    0.7689   -7.4295 C   0  0  0  0  0  0  0  0  0  0  0  0
    8.1856    1.0572   -8.2562 O   0  0  0  0  0  0  0  0  0  0  0  0
   10.4444    0.4686   -7.7889 C   0  0  0  0  0  0  0  0  0  0  0  0
   11.0797    1.3323   -8.6840 C   0  0  0  0  0  0  0  0  0  0  0  0
   12.4018    1.1034   -9.0538 C   0  0  0  0  0  0  0  0  0  0  0  0
   13.0461   -0.0113   -8.5168 C   0  0  0  0  0  0  0  0  0  0  0  0
   14.3054   -0.2371   -8.8582 F   0  0  0  0  0  0  0  0  0  0  0  0
   12.4258   -0.9009   -7.6396 C   0  0  0  0  0  0  0  0  0  0  0  0
   11.1050   -0.6479   -7.2770 C   0  0  0  0  0  0  0  0  0  0  0  0
    1.8122   -0.0029    2.1745 H   0  0  0  0  0  0  0  0  0  0  0  0
    4.2836   -0.0022   -2.2226 H   0  0  0  0  0  0  0  0  0  0  0  0
    1.8028    0.0016   -2.1582 H   0  0  0  0  0  0  0  0  0  0  0  0
    6.9503    2.2458   -0.8890 H   0  0  0  0  0  0  0  0  0  0  0  0
    5.9022    1.4398   -2.0486 H   0  0  0  0  0  0  0  0  0  0  0  0
    7.9490    2.2516   -3.2205 H   0  0  0  0  0  0  0  0  0  0  0  0
    9.0050    1.4400   -2.0423 H   0  0  0  0  0  0  0  0  0  0  0  0
    8.1626   -1.9609   -3.2437 H   0  0  0  0  0  0  0  0  0  0  0  0
    9.1064   -1.0612   -2.0361 H   0  0  0  0  0  0  0  0  0  0  0  0
    6.0114   -1.3117   -2.1122 H   0  0  0  0  0  0  0  0  0  0  0  0
    7.0866   -2.0918   -0.9581 H   0  0  0  0  0  0  0  0  0  0  0  0
    6.0211    0.3669   -4.0423 H   0  0  0  0  0  0  0  0  0  0  0  0
    6.9409   -0.9469   -4.8214 H   0  0  0  0  0  0  0  0  0  0  0  0
    7.3189    2.1025   -5.3032 H   0  0  0  0  0  0  0  0  0  0  0  0
    6.6460    0.9018   -6.4454 H   0  0  0  0  0  0  0  0  0  0  0  0
    9.4051    0.5053   -5.3700 H   0  0  0  0  0  0  0  0  0  0  0  0
   10.5297    2.1830   -9.0965 H   0  0  0  0  0  0  0  0  0  0  0  0
   12.9117    1.7732   -9.7440 H   0  0  0  0  0  0  0  0  0  0  0  0
   12.9541   -1.7686   -7.2498 H   0  0  0  0  0  0  0  0  0  0  0  0
   10.5894   -1.3297   -6.5990 H   0  0  0  0  0  0  0  0  0  0  0  0
  2  1  1  0  0  0  0
  2  3  2  0  0  0  0
  3 32  1  0  0  0  0
  4  3  1  0  0  0  0
  4  5  1  0  0  0  0
  5  6  1  0  0  0  0
  7  5  1  0  0  0  0
  7  8  2  0  0  0  0
  9  7  1  0  0  0  0
 10  9  1  0  0  0  0
 10  4  2  0  0  0  0
 11 12  2  0  0  0  0
 11 10  1  0  0  0  0
 12  2  1  0  0  0  0
 13 14  1  0  0  0  0
 13  9  1  0  0  0  0
 15 35  1  0  0  0  0
 15 13  1  0  0  0  0
 16 38  1  0  0  0  0
 16 15  1  0  0  0  0
 17 18  1  0  0  0  0
 17 16  1  0  0  0  0
 18 40  1  0  0  0  0
 18 19  1  0  0  0  0
 19 42  1  0  0  0  0
 19 13  1  0  0  0  0
 20 43  1  0  0  0  0
 20 17  1  0  0  0  0
 21 45  1  0  0  0  0
 21 20  1  0  0  0  0
 22 21  1  0  0  0  0
 22 47  1  0  0  0  0
 23 22  1  0  0  0  0
 24 23  2  0  0  0  0
 25 23  1  0  0  0  0
 25 31  2  0  0  0  0
 26 25  1  0  0  0  0
 27 26  2  0  0  0  0
 27 28  1  0  0  0  0
 28 30  2  0  0  0  0
 29 28  1  0  0  0  0
 30 31  1  0  0  0  0
 30 50  1  0  0  0  0
 31 51  1  0  0  0  0
 33 11  1  0  0  0  0
 34 12  1  0  0  0  0
 36 15  1  0  0  0  0
 37 16  1  0  0  0  0
 39 18  1  0  0  0  0
 41 19  1  0  0  0  0
 44 20  1  0  0  0  0
 46 21  1  0  0  0  0
 48 26  1  0  0  0  0
 49 27  1  0  0  0  0
M  END
$$$$
