
     RDKit          3D

 51 54  0  0  0  0  0  0  0  0999 V2000
   -0.0586    0.0941    0.6339 Cl  0  0  0  0  0  0  0  0  0  0  0  0
    1.6780    0.1221    0.4243 C   0  0  0  0  0  0  0  0  0  0  0  0
    2.4943    0.1558    1.5645 C   0  0  0  0  0  0  0  0  0  0  0  0
    3.8680    0.1774    1.3595 C   0  0  0  0  0  0  0  0  0  0  0  0
    4.9295    0.2116    2.2484 N   0  0  0  0  0  0  0  0  0  0  0  0
    4.8777    0.2278    3.2580 H   0  0  0  0  0  0  0  0  0  0  0  0
    6.1485    0.2231    1.5751 C   0  0  0  0  0  0  0  0  0  0  0  0
    7.2610    0.2522    2.0561 O   0  0  0  0  0  0  0  0  0  0  0  0
    5.8148    0.1936    0.2140 N   0  0  0  0  0  0  0  0  0  0  0  0
    4.4307    0.1659    0.0585 C   0  0  0  0  0  0  0  0  0  0  0  0
    3.6022    0.1322   -1.0607 C   0  0  0  0  0  0  0  0  0  0  0  0
    2.2132    0.1103   -0.8667 C   0  0  0  0  0  0  0  0  0  0  0  0
    6.8454    0.1979   -0.8131 C   0  0  0  0  0  0  0  0  0  0  0  0
    7.7872    0.2209   -0.2417 H   0  0  0  0  0  0  0  0  0  0  0  0
    6.7930    1.4560   -1.6910 C   0  0  0  0  0  0  0  0  0  0  0  0
    7.8872    1.3983   -2.7687 C   0  0  0  0  0  0  0  0  0  0  0  0
    7.8436    0.1805   -3.5777 N   0  0  0  0  0  0  0  0  0  0  0  0
    7.9375   -1.0054   -2.7315 C   0  0  0  0  0  0  0  0  0  0  0  0
    6.8386   -1.0816   -1.6608 C   0  0  0  0  0  0  0  0  0  0  0  0
    6.7731    0.1430   -4.5712 C   0  0  0  0  0  0  0  0  0  0  0  0
    7.0929    1.0382   -5.7687 C   0  0  0  0  0  0  0  0  0  0  0  0
    8.4130    0.7341   -6.2699 N   0  0  0  0  0  0  0  0  0  0  0  0
    8.6688    0.5162   -7.5917 C   0  0  0  0  0  0  0  0  0  0  0  0
    7.8120    0.6254   -8.4585 O   0  0  0  0  0  0  0  0  0  0  0  0
   10.0811    0.1233   -7.9303 C   0  0  0  0  0  0  0  0  0  0  0  0
   11.1713    0.3170   -7.0681 C   0  0  0  0  0  0  0  0  0  0  0  0
   12.4589   -0.0633   -7.4482 C   0  0  0  0  0  0  0  0  0  0  0  0
   12.6454   -0.6387   -8.7031 C   0  0  0  0  0  0  0  0  0  0  0  0
   13.8783   -1.0086   -9.0724 F   0  0  0  0  0  0  0  0  0  0  0  0
   11.5845   -0.8318   -9.5867 C   0  0  0  0  0  0  0  0  0  0  0  0
   10.3061   -0.4413   -9.1949 C   0  0  0  0  0  0  0  0  0  0  0  0
    2.0571    0.1645    2.5630 H   0  0  0  0  0  0  0  0  0  0  0  0
    4.0069    0.1220   -2.0718 H   0  0  0  0  0  0  0  0  0  0  0  0
    1.5409    0.0838   -1.7244 H   0  0  0  0  0  0  0  0  0  0  0  0
    6.9264    2.3508   -1.0627 H   0  0  0  0  0  0  0  0  0  0  0  0
    5.8028    1.5484   -2.1643 H   0  0  0  0  0  0  0  0  0  0  0  0
    7.8228    2.2780   -3.4260 H   0  0  0  0  0  0  0  0  0  0  0  0
    8.8764    1.4436   -2.2803 H   0  0  0  0  0  0  0  0  0  0  0  0
    7.9186   -1.9021   -3.3695 H   0  0  0  0  0  0  0  0  0  0  0  0
    8.9233   -0.9884   -2.2332 H   0  0  0  0  0  0  0  0  0  0  0  0
    5.8574   -1.2172   -2.1433 H   0  0  0  0  0  0  0  0  0  0  0  0
    6.9973   -1.9563   -1.0103 H   0  0  0  0  0  0  0  0  0  0  0  0
    5.7782    0.4248   -4.1671 H   0  0  0  0  0  0  0  0  0  0  0  0
    6.6880   -0.8962   -4.9258 H   0  0  0  0  0  0  0  0  0  0  0  0
    7.0174    2.1045   -5.4847 H   0  0  0  0  0  0  0  0  0  0  0  0
    6.3707    0.8751   -6.5810 H   0  0  0  0  0  0  0  0  0  0  0  0
    9.0799    0.4553   -5.5574 H   0  0  0  0  0  0  0  0  0  0  0  0
   11.0326    0.7951   -6.0962 H   0  0  0  0  0  0  0  0  0  0  0  0
   13.3192    0.0869   -6.7938 H   0  0  0  0  0  0  0  0  0  0  0  0
   11.7763   -1.2789  -10.5637 H   0  0  0  0  0  0  0  0  0  0  0  0
    9.4503   -0.5616   -9.8610 H   0  0  0  0  0  0  0  0  0  0  0  0
  1  2  1  0
  2  3  2  0
  2 12  1  0
  3  4  1  0
  3 32  1  0
  4  5  1  0
  4 10  2  0
  5  6  1  0
  5  7  1  0
  7  8  2  0
  7  9  1  0
  9 10  1  0
  9 13  1  0
 10 11  1  0
 11 12  2  0
 11 33  1  0
 12 34  1  0
 13 14  1  0
 13 15  1  0
 13 19  1  0
 15 16  1  0
 15 35  1  0
 15 36  1  0
 16 17  1  0
 16 37  1  0
 16 38  1  0
 17 18  1  0
 17 20  1  0
 18 19  1  0
 18 39  1  0
 18 40  1  0
 19 41  1  0
 19 42  1  0
 20 21  1  0
 20 43  1  0
 20 44  1  0
 21 22  1  0
 21 45  1  0
 21 46  1  0
 22 23  1  0
 22 47  1  0
 23 24  2  0
 23 25  1  0
 25 26  2  0
 25 31  1  0
 26 27  1  0
 26 48  1  0
 27 28  2  0
 27 49  1  0
 28 29  1  0
 28 30  1  0
 30 31  2  0
 30 50  1  0
 31 51  1  0
M  END

