
     RDKit          3D

 51 54  0  0  0  0  0  0  0  0999 V2000
    0.4209   -0.7051    0.9611 Cl  0  0  0  0  0  0  0  0  0  0  0  0
    2.1398   -0.5099    0.6928 C   0  0  0  0  0  0  0  0  0  0  0  0
    2.9770   -0.3201    1.8022 C   0  0  0  0  0  0  0  0  0  0  0  0
    4.3350   -0.1690    1.5501 C   0  0  0  0  0  0  0  0  0  0  0  0
    5.4166    0.0297    2.3908 N   0  0  0  0  0  0  0  0  0  0  0  0
    5.4012    0.0990    3.3993 H   0  0  0  0  0  0  0  0  0  0  0  0
    6.6069    0.1210    1.6683 C   0  0  0  0  0  0  0  0  0  0  0  0
    7.7236    0.2900    2.1172 O   0  0  0  0  0  0  0  0  0  0  0  0
    6.2321   -0.0211    0.3292 N   0  0  0  0  0  0  0  0  0  0  0  0
    4.8564   -0.2032    0.2333 C   0  0  0  0  0  0  0  0  0  0  0  0
    4.0104   -0.3934   -0.8547 C   0  0  0  0  0  0  0  0  0  0  0  0
    2.6374   -0.5475   -0.6134 C   0  0  0  0  0  0  0  0  0  0  0  0
    7.1898   -0.0120   -0.7762 C   0  0  0  0  0  0  0  0  0  0  0  0
    6.5890   -0.1249   -1.6934 H   0  0  0  0  0  0  0  0  0  0  0  0
    8.1587   -1.1986   -0.6903 C   0  0  0  0  0  0  0  0  0  0  0  0
    9.2291   -1.1177   -1.7889 C   0  0  0  0  0  0  0  0  0  0  0  0
    9.9402    0.1620   -1.8101 N   0  0  0  0  0  0  0  0  0  0  0  0
    9.0030    1.2649   -1.9706 C   0  0  0  0  0  0  0  0  0  0  0  0
    7.9365    1.3264   -0.8657 C   0  0  0  0  0  0  0  0  0  0  0  0
   10.8738    0.3215   -0.7044 C   0  0  0  0  0  0  0  0  0  0  0  0
   12.1674   -0.4808   -0.9459 C   0  0  0  0  0  0  0  0  0  0  0  0
   12.8020   -0.9231    0.2821 N   0  0  0  0  0  0  0  0  0  0  0  0
   12.2714   -1.9749    0.9760 C   0  0  0  0  0  0  0  0  0  0  0  0
   11.3208   -2.6199    0.5501 O   0  0  0  0  0  0  0  0  0  0  0  0
   12.9170   -2.3014    2.2911 C   0  0  0  0  0  0  0  0  0  0  0  0
   12.1677   -3.0499    3.2116 C   0  0  0  0  0  0  0  0  0  0  0  0
   12.7000   -3.3946    4.4515 C   0  0  0  0  0  0  0  0  0  0  0  0
   14.0004   -2.9962    4.7584 C   0  0  0  0  0  0  0  0  0  0  0  0
   14.5204   -3.3264    5.9469 F   0  0  0  0  0  0  0  0  0  0  0  0
   14.7775   -2.2704    3.8582 C   0  0  0  0  0  0  0  0  0  0  0  0
   14.2280   -1.9265    2.6227 C   0  0  0  0  0  0  0  0  0  0  0  0
    2.5675   -0.2951    2.8120 H   0  0  0  0  0  0  0  0  0  0  0  0
    4.3933   -0.4247   -1.8755 H   0  0  0  0  0  0  0  0  0  0  0  0
    1.9475   -0.6986   -1.4439 H   0  0  0  0  0  0  0  0  0  0  0  0
    7.5978   -2.1435   -0.7769 H   0  0  0  0  0  0  0  0  0  0  0  0
    8.6419   -1.2023    0.2970 H   0  0  0  0  0  0  0  0  0  0  0  0
    9.9468   -1.9359   -1.6405 H   0  0  0  0  0  0  0  0  0  0  0  0
    8.7628   -1.2617   -2.7804 H   0  0  0  0  0  0  0  0  0  0  0  0
    9.5634    2.2125   -2.0107 H   0  0  0  0  0  0  0  0  0  0  0  0
    8.5069    1.1487   -2.9521 H   0  0  0  0  0  0  0  0  0  0  0  0
    8.4103    1.5325    0.1054 H   0  0  0  0  0  0  0  0  0  0  0  0
    7.2188    2.1399   -1.0635 H   0  0  0  0  0  0  0  0  0  0  0  0
   10.4498    0.0132    0.2711 H   0  0  0  0  0  0  0  0  0  0  0  0
   11.1160    1.3924   -0.6081 H   0  0  0  0  0  0  0  0  0  0  0  0
   12.8909    0.1069   -1.5297 H   0  0  0  0  0  0  0  0  0  0  0  0
   11.9276   -1.3759   -1.5335 H   0  0  0  0  0  0  0  0  0  0  0  0
   13.4189   -0.2859    0.7690 H   0  0  0  0  0  0  0  0  0  0  0  0
   11.1589   -3.3534    2.9279 H   0  0  0  0  0  0  0  0  0  0  0  0
   12.1292   -3.9679    5.1839 H   0  0  0  0  0  0  0  0  0  0  0  0
   15.7981   -1.9960    4.1302 H   0  0  0  0  0  0  0  0  0  0  0  0
   14.8472   -1.3866    1.9030 H   0  0  0  0  0  0  0  0  0  0  0  0
  1  2  1  0
  2  3  2  0
  2 12  1  0
  3  4  1  0
  3 32  1  0
  4  5  1  0
  4 10  2  0
  5  6  1  0
  5  7  1  0
  7  8  2  0
  7  9  1  0
  9 10  1  0
  9 13  1  0
 10 11  1  0
 11 12  2  0
 11 33  1  0
 12 34  1  0
 13 14  1  0
 13 15  1  0
 13 19  1  0
 15 16  1  0
 15 35  1  0
 15 36  1  0
 16 17  1  0
 16 37  1  0
 16 38  1  0
 17 18  1  0
 17 20  1  0
 18 19  1  0
 18 39  1  0
 18 40  1  0
 19 41  1  0
 19 42  1  0
 20 21  1  0
 20 43  1  0
 20 44  1  0
 21 22  1  0
 21 45  1  0
 21 46  1  0
 22 23  1  0
 22 47  1  0
 23 24  2  0
 23 25  1  0
 25 26  2  0
 25 31  1  0
 26 27  1  0
 26 48  1  0
 27 28  2  0
 27 49  1  0
 28 29  1  0
 28 30  1  0
 30 31  2  0
 30 50  1  0
 31 51  1  0
M  END

