51
rmsd63.gzmat
Cl         0.00000        0.00000        0.00000
C          1.71060        0.00000        0.00000
C          2.35760        0.00000        1.23400
C          3.74150        0.00090        1.19020
N          4.69520        0.00410        2.21650
H          4.50250        0.00320        3.19600
C          5.99280        0.01780        1.65180
O          7.03510        0.02970        2.25580
N          5.82330       -0.00650        0.24470
C          4.45320        0.00590       -0.06340
C          3.76520        0.00420       -1.26690
C          2.36770        0.00000       -1.22450
C          6.94400        0.14420       -0.68390
H          7.88860        0.14740       -0.06280
C          6.83700        1.48070       -1.44370
C          7.96520        1.57720       -2.48560
N          8.03500        0.43460       -3.41770
C          8.12510       -0.83670       -2.67260
C          6.99030       -1.05050       -1.65570
C          6.93390        0.43420       -4.40890
C          7.30020        1.41010       -5.55760
N          8.58190        1.03300       -6.15730
C          8.63100        0.56490       -7.45410
O          7.64960        0.58780       -8.17220
C          9.95680        0.07600       -7.92320
C         11.13830        0.73930       -7.59150
C         12.35950        0.26320       -8.06130
C         12.35290       -0.87930       -8.86130
F         13.51010       -1.34310       -9.30710
C         11.18450       -1.55330       -9.21740
C          9.97460       -1.05540       -8.74290
H          1.81090       -0.00050        2.17400
H          4.28420        0.00410       -2.22150
H          1.80340       -0.00410       -2.15850
H          6.90200        2.32720       -0.73420
H          5.85050        1.58110       -1.92990
H          7.86160        2.51570       -3.07210
H          8.95250        1.64220       -1.97310
H          8.15670       -1.67890       -3.39740
H          9.11140       -0.84410       -2.15340
H          6.02510       -1.17880       -2.17530
H          7.14990       -1.99020       -1.09330
H          5.95160        0.71620       -3.97930
H          6.81410       -0.58820       -4.83000
H          7.38630        2.45220       -5.17560
H          6.49270        1.40970       -6.32780
H          9.31980        0.84450       -5.48920
H         11.11020        1.63900       -6.97400
H         13.28830        0.77330       -7.81410
H         11.21330       -2.43690       -9.85260
H          9.03210       -1.53870       -9.01690
