51
rmsd173.gzmat
Cl         0.00000        0.00000        0.00000
C          1.71100        0.00000        0.00000
C          2.35820        0.00000        1.23380
C          3.74250       -0.00060        1.18830
N          4.70200       -0.00540        2.20830
H          4.51600       -0.01580        3.18880
C          5.99890       -0.00340        1.63600
O          7.03730       -0.01040        2.24900
N          5.82030        0.01250        0.23350
C          4.44920        0.00590       -0.06710
C          3.76360        0.00560       -1.27180
C          2.36640        0.00190       -1.22590
C          6.91330        0.01450       -0.74180
H          6.45790        0.07550       -1.76670
C          7.73190       -1.28470       -0.61850
C          8.92220       -1.23460       -1.59370
N          9.78780       -0.04790       -1.43640
C          8.99110        1.19190       -1.50630
C          7.81900        1.23980       -0.51050
C         10.62730       -0.12290       -0.22120
C         11.95490       -0.80570       -0.64610
N         12.79600       -1.04920        0.52620
C         12.82910       -2.30420        1.10350
O         12.21840       -3.23620        0.62030
C         13.66030       -2.43360        2.33220
C         13.11900       -3.14050        3.40840
C         13.86060       -3.30790        4.57430
C         15.14240       -2.75930        4.61810
F         15.85530       -2.90900        5.72370
C         15.71080       -2.06370        3.55090
C         14.95130       -1.90880        2.39440
H          1.81260        0.00100        2.17420
H          4.28500        0.00830       -2.22510
H          1.79990        0.00270       -2.15770
H          7.10100       -2.16670       -0.82610
H          8.09250       -1.41350        0.42330
H          9.54470       -2.15030       -1.47480
H          8.55960       -1.23840       -2.64600
H          9.66450        2.06200       -1.35100
H          8.61310        1.27960       -2.55040
H          8.20010        1.24280        0.53160
H          7.24680        2.17620       -0.62600
H         10.15280       -0.69110        0.60800
H         10.83530        0.88960        0.17850
H         12.50270       -0.16770       -1.37250
H         11.74080       -1.76850       -1.16970
H         13.21690       -0.25170        0.96770
H         12.11560       -3.56910        3.32500
H         13.45170       -3.85630        5.42150
H         16.71820       -1.65710        3.61520
H         15.37560       -1.38910        1.53440
