51
rmsd64.gzmat
Cl         0.00000        0.00000        0.00000
C          1.71050        0.00000        0.00000
C          2.35700        0.00000        1.23410
C          3.74140        0.00040        1.18960
N          4.70030        0.00610        2.21040
H          4.51440        0.01350        3.19140
C          5.99670        0.00870        1.63880
O          7.03630        0.01930        2.25000
N          5.81950       -0.01720        0.23550
C          4.44810       -0.00310       -0.06550
C          3.76340       -0.00090       -1.27070
C          2.36620       -0.00020       -1.22610
C          6.91350        0.04960       -0.73580
H          6.46460       -0.00610       -1.76400
C          7.86780       -1.14250       -0.52660
C          9.06480       -1.02040       -1.48560
N          9.79440        0.26050       -1.38870
C          8.86690        1.39830       -1.55130
C          7.67790        1.37860       -0.57600
C         10.60290        0.36430       -0.15020
C         11.96090       -0.34930       -0.38050
N         12.62630        0.20450       -1.56200
C         13.82740        0.86600       -1.44690
O         14.45920        0.86050       -0.40740
C         14.33030        1.52300       -2.68630
C         13.50290        2.34050       -3.45650
C         14.00580        2.96330       -4.59590
C         15.34180        2.73930       -4.92810
F         15.82630        3.32070       -6.01460
C         16.19190        1.93540       -4.16880
C         15.67030        1.32970       -3.02900
H          1.81070        0.00000        2.17430
H          4.28570        0.00080       -2.22360
H          1.80030       -0.00040       -2.15880
H          7.33770       -2.09750       -0.68770
H          8.21880       -1.17060        0.52650
H          9.77910       -1.85400       -1.30810
H          8.72410       -1.12540       -2.54030
H          9.43760        2.34610       -1.44170
H          8.50090        1.37790       -2.60290
H          8.03520        1.48890        0.46880
H          7.00950        2.23790       -0.75750
H         10.09920       -0.06500        0.74160
H         10.79220        1.43440        0.08480
H         11.81180       -1.44100       -0.53600
H         12.60750       -0.23400        0.52220
H         12.03890        0.27930       -2.38220
H         12.46410        2.50460       -3.16640
H         13.37380        3.60770       -5.20300
H         17.23260        1.78830       -4.45200
H         16.30700        0.70820       -2.39260
