
     RDKit          3D

 51 54  0  0  0  0  0  0  0  0999 V2000
   -0.1130    0.0880    0.1044 Cl  0  0  0  0  0  0  0  0  0  0  0  0
    1.6372    0.0847    0.0857 C   0  0  0  0  0  0  0  0  0  0  0  0
    2.3237    0.1585    1.3067 C   0  0  0  0  0  0  0  0  0  0  0  0
    3.7121    0.1533    1.2519 C   0  0  0  0  0  0  0  0  0  0  0  0
    4.6783    0.2119    2.2418 N   0  0  0  0  0  0  0  0  0  0  0  0
    4.5270    0.2693    3.2399 H   0  0  0  0  0  0  0  0  0  0  0  0
    5.9614    0.1752    1.6962 C   0  0  0  0  0  0  0  0  0  0  0  0
    7.0156    0.2076    2.3009 O   0  0  0  0  0  0  0  0  0  0  0  0
    5.7683    0.0945    0.3145 N   0  0  0  0  0  0  0  0  0  0  0  0
    4.4083    0.0775    0.0207 C   0  0  0  0  0  0  0  0  0  0  0  0
    3.7104    0.0042   -1.1806 C   0  0  0  0  0  0  0  0  0  0  0  0
    2.3086    0.0085   -1.1386 C   0  0  0  0  0  0  0  0  0  0  0  0
    6.8693    0.0238   -0.6449 C   0  0  0  0  0  0  0  0  0  0  0  0
    6.3976   -0.0246   -1.6397 H   0  0  0  0  0  0  0  0  0  0  0  0
    7.7047   -1.2509   -0.4565 C   0  0  0  0  0  0  0  0  0  0  0  0
    8.9083   -1.2497   -1.4097 C   0  0  0  0  0  0  0  0  0  0  0  0
    9.7388   -0.0534   -1.2801 N   0  0  0  0  0  0  0  0  0  0  0  0
    8.9481    1.1424   -1.5364 C   0  0  0  0  0  0  0  0  0  0  0  0
    7.7403    1.2882   -0.5963 C   0  0  0  0  0  0  0  0  0  0  0  0
   10.5414    0.0187   -0.0698 C   0  0  0  0  0  0  0  0  0  0  0  0
   11.6774   -1.0108   -0.0328 C   0  0  0  0  0  0  0  0  0  0  0  0
   12.5305   -0.9627   -1.2022 N   0  0  0  0  0  0  0  0  0  0  0  0
   12.3670   -1.8354   -2.2421 C   0  0  0  0  0  0  0  0  0  0  0  0
   11.6269   -2.8086   -2.1865 O   0  0  0  0  0  0  0  0  0  0  0  0
   13.1739   -1.5432   -3.4763 C   0  0  0  0  0  0  0  0  0  0  0  0
   14.3340   -0.7538   -3.4779 C   0  0  0  0  0  0  0  0  0  0  0  0
   15.0448   -0.5309   -4.6579 C   0  0  0  0  0  0  0  0  0  0  0  0
   14.5831   -1.1094   -5.8380 C   0  0  0  0  0  0  0  0  0  0  0  0
   15.2582   -0.8964   -6.9746 F   0  0  0  0  0  0  0  0  0  0  0  0
   13.4427   -1.9110   -5.8651 C   0  0  0  0  0  0  0  0  0  0  0  0
   12.7486   -2.1301   -4.6776 C   0  0  0  0  0  0  0  0  0  0  0  0
    1.7799    0.2166    2.2496 H   0  0  0  0  0  0  0  0  0  0  0  0
    4.2288   -0.0563   -2.1382 H   0  0  0  0  0  0  0  0  0  0  0  0
    1.7315   -0.0482   -2.0618 H   0  0  0  0  0  0  0  0  0  0  0  0
    7.0736   -2.1365   -0.6370 H   0  0  0  0  0  0  0  0  0  0  0  0
    8.0426   -1.2999    0.5892 H   0  0  0  0  0  0  0  0  0  0  0  0
    9.5286   -2.1455   -1.2769 H   0  0  0  0  0  0  0  0  0  0  0  0
    8.5503   -1.2886   -2.4542 H   0  0  0  0  0  0  0  0  0  0  0  0
    9.5961    2.0304   -1.4599 H   0  0  0  0  0  0  0  0  0  0  0  0
    8.5944    1.0971   -2.5828 H   0  0  0  0  0  0  0  0  0  0  0  0
    8.0817    1.4408    0.4381 H   0  0  0  0  0  0  0  0  0  0  0  0
    7.1348    2.1660   -0.8770 H   0  0  0  0  0  0  0  0  0  0  0  0
    9.9585   -0.0892    0.8702 H   0  0  0  0  0  0  0  0  0  0  0  0
   10.9839    1.0298   -0.0330 H   0  0  0  0  0  0  0  0  0  0  0  0
   11.2838   -2.0336    0.0291 H   0  0  0  0  0  0  0  0  0  0  0  0
   12.2772   -0.8361    0.8762 H   0  0  0  0  0  0  0  0  0  0  0  0
   12.9611   -0.0713   -1.4157 H   0  0  0  0  0  0  0  0  0  0  0  0
   14.7149   -0.3275   -2.5473 H   0  0  0  0  0  0  0  0  0  0  0  0
   15.9539    0.0725   -4.6761 H   0  0  0  0  0  0  0  0  0  0  0  0
   13.1212   -2.3521   -6.8101 H   0  0  0  0  0  0  0  0  0  0  0  0
   11.8611   -2.7641   -4.6528 H   0  0  0  0  0  0  0  0  0  0  0  0
  1  2  1  0
  2  3  2  0
  2 12  1  0
  3  4  1  0
  3 32  1  0
  4  5  1  0
  4 10  2  0
  5  6  1  0
  5  7  1  0
  7  8  2  0
  7  9  1  0
  9 10  1  0
  9 13  1  0
 10 11  1  0
 11 12  2  0
 11 33  1  0
 12 34  1  0
 13 14  1  0
 13 15  1  0
 13 19  1  0
 15 16  1  0
 15 35  1  0
 15 36  1  0
 16 17  1  0
 16 37  1  0
 16 38  1  0
 17 18  1  0
 17 20  1  0
 18 19  1  0
 18 39  1  0
 18 40  1  0
 19 41  1  0
 19 42  1  0
 20 21  1  0
 20 43  1  0
 20 44  1  0
 21 22  1  0
 21 45  1  0
 21 46  1  0
 22 23  1  0
 22 47  1  0
 23 24  2  0
 23 25  1  0
 25 26  2  0
 25 31  1  0
 26 27  1  0
 26 48  1  0
 27 28  2  0
 27 49  1  0
 28 29  1  0
 28 30  1  0
 30 31  2  0
 30 50  1  0
 31 51  1  0
M  END

