rmsd48.gzmat
 OpenBabel08211713393D

 51 54  0  0  0  0  0  0  0  0999 V2000
    0.0000    0.0000    0.0000 Cl  0  0  0  0  0  0  0  0  0  0  0  0
    1.7110    0.0000    0.0000 C   0  0  0  0  0  0  0  0  0  0  0  0
    2.3566    0.0000    1.2345 C   0  0  0  0  0  0  0  0  0  0  0  0
    3.7409    0.0024    1.1905 C   0  0  0  0  0  0  0  0  0  0  0  0
    4.6989    0.0105    2.2120 N   0  0  0  0  0  0  0  0  0  0  0  0
    4.5112    0.0130    3.1924 H   0  0  0  0  0  0  0  0  0  0  0  0
    5.9959    0.0158    1.6411 C   0  0  0  0  0  0  0  0  0  0  0  0
    7.0344    0.0298    2.2550 O   0  0  0  0  0  0  0  0  0  0  0  0
    5.8195   -0.0003    0.2384 N   0  0  0  0  0  0  0  0  0  0  0  0
    4.4489    0.0015   -0.0641 C   0  0  0  0  0  0  0  0  0  0  0  0
    3.7645    0.0015   -1.2696 C   0  0  0  0  0  0  0  0  0  0  0  0
    2.3674    0.0019   -1.2257 C   0  0  0  0  0  0  0  0  0  0  0  0
    6.9185    0.0237   -0.7314 C   0  0  0  0  0  0  0  0  0  0  0  0
    6.4706   -0.0159   -1.7605 H   0  0  0  0  0  0  0  0  0  0  0  0
    7.8239   -1.2048   -0.5186 C   0  0  0  0  0  0  0  0  0  0  0  0
    9.0439   -1.1147   -1.4505 C   0  0  0  0  0  0  0  0  0  0  0  0
    9.8244    0.1307   -1.3044 N   0  0  0  0  0  0  0  0  0  0  0  0
    8.9452    1.3028   -1.5019 C   0  0  0  0  0  0  0  0  0  0  0  0
    7.7207    1.3310   -0.5704 C   0  0  0  0  0  0  0  0  0  0  0  0
   10.5554    0.2116   -0.0186 C   0  0  0  0  0  0  0  0  0  0  0  0
   11.6966   -0.8350    0.0286 C   0  0  0  0  0  0  0  0  0  0  0  0
   12.5370   -0.7879   -1.1725 N   0  0  0  0  0  0  0  0  0  0  0  0
   12.4476   -1.8247   -2.0894 C   0  0  0  0  0  0  0  0  0  0  0  0
   11.8855   -2.8684   -1.8203 O   0  0  0  0  0  0  0  0  0  0  0  0
   13.1364   -1.6035   -3.3912 C   0  0  0  0  0  0  0  0  0  0  0  0
   14.4270   -1.0781   -3.4501 C   0  0  0  0  0  0  0  0  0  0  0  0
   15.0463   -0.8929   -4.6833 C   0  0  0  0  0  0  0  0  0  0  0  0
   14.3386   -1.2510   -5.8309 C   0  0  0  0  0  0  0  0  0  0  0  0
   14.9174   -1.0735   -7.0086 F   0  0  0  0  0  0  0  0  0  0  0  0
   13.0526   -1.7904   -5.7973 C   0  0  0  0  0  0  0  0  0  0  0  0
   12.4542   -1.9701   -4.5534 C   0  0  0  0  0  0  0  0  0  0  0  0
    1.8100   -0.0022    2.1744 H   0  0  0  0  0  0  0  0  0  0  0  0
    4.2876    0.0021   -2.2222 H   0  0  0  0  0  0  0  0  0  0  0  0
    1.8013    0.0039   -2.1583 H   0  0  0  0  0  0  0  0  0  0  0  0
    7.2644   -2.1386   -0.7057 H   0  0  0  0  0  0  0  0  0  0  0  0
    8.1540   -1.2626    0.5392 H   0  0  0  0  0  0  0  0  0  0  0  0
    9.7186   -1.9882   -1.2865 H   0  0  0  0  0  0  0  0  0  0  0  0
    8.7241   -1.1805   -2.5145 H   0  0  0  0  0  0  0  0  0  0  0  0
    9.5439    2.2298   -1.3739 H   0  0  0  0  0  0  0  0  0  0  0  0
    8.6200    1.2919   -2.5670 H   0  0  0  0  0  0  0  0  0  0  0  0
    8.0443    1.4519    0.4838 H   0  0  0  0  0  0  0  0  0  0  0  0
    7.0859    2.2066   -0.7911 H   0  0  0  0  0  0  0  0  0  0  0  0
    9.8981    0.0703    0.8687 H   0  0  0  0  0  0  0  0  0  0  0  0
   10.9882    1.2322    0.0678 H   0  0  0  0  0  0  0  0  0  0  0  0
   11.2818   -1.8626    0.1655 H   0  0  0  0  0  0  0  0  0  0  0  0
   12.3433   -0.6359    0.9141 H   0  0  0  0  0  0  0  0  0  0  0  0
   12.7766    0.1385   -1.4972 H   0  0  0  0  0  0  0  0  0  0  0  0
   14.9579   -0.8215   -2.5313 H   0  0  0  0  0  0  0  0  0  0  0  0
   16.0536   -0.4854   -4.7457 H   0  0  0  0  0  0  0  0  0  0  0  0
   12.5333   -2.0708   -6.7119 H   0  0  0  0  0  0  0  0  0  0  0  0
   11.4535   -2.4042   -4.4793 H   0  0  0  0  0  0  0  0  0  0  0  0
  2  1  1  0  0  0  0
  2  3  2  0  0  0  0
  3 32  1  0  0  0  0
  4  3  1  0  0  0  0
  4  5  1  0  0  0  0
  5  6  1  0  0  0  0
  7  5  1  0  0  0  0
  7  8  2  0  0  0  0
  9  7  1  0  0  0  0
 10  9  1  0  0  0  0
 10  4  2  0  0  0  0
 11 12  2  0  0  0  0
 11 10  1  0  0  0  0
 12  2  1  0  0  0  0
 13 19  1  0  0  0  0
 13 15  1  0  0  0  0
 13  9  1  0  0  0  0
 14 13  1  0  0  0  0
 15 36  1  0  0  0  0
 16 17  1  0  0  0  0
 16 37  1  0  0  0  0
 16 15  1  0  0  0  0
 17 20  1  0  0  0  0
 18 39  1  0  0  0  0
 18 17  1  0  0  0  0
 18 19  1  0  0  0  0
 19 41  1  0  0  0  0
 20 21  1  0  0  0  0
 20 44  1  0  0  0  0
 20 43  1  0  0  0  0
 21 45  1  0  0  0  0
 21 46  1  0  0  0  0
 22 21  1  0  0  0  0
 23 24  2  0  0  0  0
 23 22  1  0  0  0  0
 25 23  1  0  0  0  0
 26 25  1  0  0  0  0
 26 48  1  0  0  0  0
 27 26  2  0  0  0  0
 28 30  2  0  0  0  0
 28 27  1  0  0  0  0
 29 28  1  0  0  0  0
 30 31  1  0  0  0  0
 31 51  1  0  0  0  0
 31 25  2  0  0  0  0
 33 11  1  0  0  0  0
 34 12  1  0  0  0  0
 35 15  1  0  0  0  0
 38 16  1  0  0  0  0
 40 18  1  0  0  0  0
 42 19  1  0  0  0  0
 47 22  1  0  0  0  0
 49 27  1  0  0  0  0
 50 30  1  0  0  0  0
M  END
$$$$
