51
rmsd48.gzmat
Cl         0.00000        0.00000        0.00000
C          1.71100        0.00000        0.00000
C          2.35660        0.00000        1.23450
C          3.74090        0.00240        1.19050
N          4.69890        0.01050        2.21200
H          4.51120        0.01300        3.19240
C          5.99590        0.01580        1.64110
O          7.03440        0.02980        2.25500
N          5.81950       -0.00030        0.23840
C          4.44890        0.00150       -0.06410
C          3.76450        0.00150       -1.26960
C          2.36740        0.00190       -1.22570
C          6.91850        0.02370       -0.73140
H          6.47060       -0.01590       -1.76050
C          7.82390       -1.20480       -0.51860
C          9.04390       -1.11470       -1.45050
N          9.82440        0.13070       -1.30440
C          8.94520        1.30280       -1.50190
C          7.72070        1.33100       -0.57040
C         10.55540        0.21160       -0.01860
C         11.69660       -0.83500        0.02860
N         12.53700       -0.78790       -1.17250
C         12.44760       -1.82470       -2.08940
O         11.88550       -2.86840       -1.82030
C         13.13640       -1.60350       -3.39120
C         14.42700       -1.07810       -3.45010
C         15.04630       -0.89290       -4.68330
C         14.33860       -1.25100       -5.83090
F         14.91740       -1.07350       -7.00860
C         13.05260       -1.79040       -5.79730
C         12.45420       -1.97010       -4.55340
H          1.81000       -0.00220        2.17440
H          4.28760        0.00210       -2.22220
H          1.80130        0.00390       -2.15830
H          7.26440       -2.13860       -0.70570
H          8.15400       -1.26260        0.53920
H          9.71860       -1.98820       -1.28650
H          8.72410       -1.18050       -2.51450
H          9.54390        2.22980       -1.37390
H          8.62000        1.29190       -2.56700
H          8.04430        1.45190        0.48380
H          7.08590        2.20660       -0.79110
H          9.89810        0.07030        0.86870
H         10.98820        1.23220        0.06780
H         11.28180       -1.86260        0.16550
H         12.34330       -0.63590        0.91410
H         12.77660        0.13850       -1.49720
H         14.95790       -0.82150       -2.53130
H         16.05360       -0.48540       -4.74570
H         12.53330       -2.07080       -6.71190
H         11.45350       -2.40420       -4.47930
