rmsd63.gzmat
 OpenBabel08211713393D

 51 54  0  0  0  0  0  0  0  0999 V2000
    0.0000    0.0000    0.0000 Cl  0  0  0  0  0  0  0  0  0  0  0  0
    1.7106    0.0000    0.0000 C   0  0  0  0  0  0  0  0  0  0  0  0
    2.3576    0.0000    1.2340 C   0  0  0  0  0  0  0  0  0  0  0  0
    3.7415    0.0009    1.1902 C   0  0  0  0  0  0  0  0  0  0  0  0
    4.6952    0.0041    2.2165 N   0  0  0  0  0  0  0  0  0  0  0  0
    4.5025    0.0032    3.1960 H   0  0  0  0  0  0  0  0  0  0  0  0
    5.9928    0.0178    1.6518 C   0  0  0  0  0  0  0  0  0  0  0  0
    7.0351    0.0297    2.2558 O   0  0  0  0  0  0  0  0  0  0  0  0
    5.8233   -0.0065    0.2447 N   0  0  0  0  0  0  0  0  0  0  0  0
    4.4532    0.0059   -0.0634 C   0  0  0  0  0  0  0  0  0  0  0  0
    3.7652    0.0042   -1.2669 C   0  0  0  0  0  0  0  0  0  0  0  0
    2.3677    0.0000   -1.2245 C   0  0  0  0  0  0  0  0  0  0  0  0
    6.9440    0.1442   -0.6839 C   0  0  0  0  0  0  0  0  0  0  0  0
    7.8886    0.1474   -0.0628 H   0  0  0  0  0  0  0  0  0  0  0  0
    6.8370    1.4807   -1.4437 C   0  0  0  0  0  0  0  0  0  0  0  0
    7.9652    1.5772   -2.4856 C   0  0  0  0  0  0  0  0  0  0  0  0
    8.0350    0.4346   -3.4177 N   0  0  0  0  0  0  0  0  0  0  0  0
    8.1251   -0.8367   -2.6726 C   0  0  0  0  0  0  0  0  0  0  0  0
    6.9903   -1.0505   -1.6557 C   0  0  0  0  0  0  0  0  0  0  0  0
    6.9339    0.4342   -4.4089 C   0  0  0  0  0  0  0  0  0  0  0  0
    7.3002    1.4101   -5.5576 C   0  0  0  0  0  0  0  0  0  0  0  0
    8.5819    1.0330   -6.1573 N   0  0  0  0  0  0  0  0  0  0  0  0
    8.6310    0.5649   -7.4541 C   0  0  0  0  0  0  0  0  0  0  0  0
    7.6496    0.5878   -8.1722 O   0  0  0  0  0  0  0  0  0  0  0  0
    9.9568    0.0760   -7.9232 C   0  0  0  0  0  0  0  0  0  0  0  0
   11.1383    0.7393   -7.5915 C   0  0  0  0  0  0  0  0  0  0  0  0
   12.3595    0.2632   -8.0613 C   0  0  0  0  0  0  0  0  0  0  0  0
   12.3529   -0.8793   -8.8613 C   0  0  0  0  0  0  0  0  0  0  0  0
   13.5101   -1.3431   -9.3071 F   0  0  0  0  0  0  0  0  0  0  0  0
   11.1845   -1.5533   -9.2174 C   0  0  0  0  0  0  0  0  0  0  0  0
    9.9746   -1.0554   -8.7429 C   0  0  0  0  0  0  0  0  0  0  0  0
    1.8109   -0.0005    2.1740 H   0  0  0  0  0  0  0  0  0  0  0  0
    4.2842    0.0041   -2.2215 H   0  0  0  0  0  0  0  0  0  0  0  0
    1.8034   -0.0041   -2.1585 H   0  0  0  0  0  0  0  0  0  0  0  0
    6.9020    2.3272   -0.7342 H   0  0  0  0  0  0  0  0  0  0  0  0
    5.8505    1.5811   -1.9299 H   0  0  0  0  0  0  0  0  0  0  0  0
    7.8616    2.5157   -3.0721 H   0  0  0  0  0  0  0  0  0  0  0  0
    8.9525    1.6422   -1.9731 H   0  0  0  0  0  0  0  0  0  0  0  0
    8.1567   -1.6789   -3.3974 H   0  0  0  0  0  0  0  0  0  0  0  0
    9.1114   -0.8441   -2.1534 H   0  0  0  0  0  0  0  0  0  0  0  0
    6.0251   -1.1788   -2.1753 H   0  0  0  0  0  0  0  0  0  0  0  0
    7.1499   -1.9902   -1.0933 H   0  0  0  0  0  0  0  0  0  0  0  0
    5.9516    0.7162   -3.9793 H   0  0  0  0  0  0  0  0  0  0  0  0
    6.8141   -0.5882   -4.8300 H   0  0  0  0  0  0  0  0  0  0  0  0
    7.3863    2.4522   -5.1756 H   0  0  0  0  0  0  0  0  0  0  0  0
    6.4927    1.4097   -6.3278 H   0  0  0  0  0  0  0  0  0  0  0  0
    9.3198    0.8445   -5.4892 H   0  0  0  0  0  0  0  0  0  0  0  0
   11.1102    1.6390   -6.9740 H   0  0  0  0  0  0  0  0  0  0  0  0
   13.2883    0.7733   -7.8141 H   0  0  0  0  0  0  0  0  0  0  0  0
   11.2133   -2.4369   -9.8526 H   0  0  0  0  0  0  0  0  0  0  0  0
    9.0321   -1.5387   -9.0169 H   0  0  0  0  0  0  0  0  0  0  0  0
  2  1  1  0  0  0  0
  2  3  2  0  0  0  0
  3 32  1  0  0  0  0
  4  3  1  0  0  0  0
  4  5  1  0  0  0  0
  5  6  1  0  0  0  0
  7  5  1  0  0  0  0
  7  8  2  0  0  0  0
  9  7  1  0  0  0  0
 10  9  1  0  0  0  0
 10  4  2  0  0  0  0
 11 12  2  0  0  0  0
 11 10  1  0  0  0  0
 12  2  1  0  0  0  0
 13 14  1  0  0  0  0
 13  9  1  0  0  0  0
 15 35  1  0  0  0  0
 15 13  1  0  0  0  0
 16 38  1  0  0  0  0
 16 15  1  0  0  0  0
 17 18  1  0  0  0  0
 17 16  1  0  0  0  0
 18 40  1  0  0  0  0
 18 19  1  0  0  0  0
 19 42  1  0  0  0  0
 19 13  1  0  0  0  0
 20 43  1  0  0  0  0
 20 17  1  0  0  0  0
 21 45  1  0  0  0  0
 21 20  1  0  0  0  0
 22 21  1  0  0  0  0
 22 47  1  0  0  0  0
 23 22  1  0  0  0  0
 24 23  2  0  0  0  0
 25 26  1  0  0  0  0
 25 23  1  0  0  0  0
 26 48  1  0  0  0  0
 27 49  1  0  0  0  0
 27 26  2  0  0  0  0
 28 27  1  0  0  0  0
 29 28  1  0  0  0  0
 30 28  2  0  0  0  0
 30 31  1  0  0  0  0
 31 25  2  0  0  0  0
 33 11  1  0  0  0  0
 34 12  1  0  0  0  0
 36 15  1  0  0  0  0
 37 16  1  0  0  0  0
 39 18  1  0  0  0  0
 41 19  1  0  0  0  0
 44 20  1  0  0  0  0
 46 21  1  0  0  0  0
 50 30  1  0  0  0  0
 51 31  1  0  0  0  0
M  END
$$$$
