51
rmsd203.gzmat
Cl         0.00000        0.00000        0.00000
C          1.71030        0.00000        0.00000
C          2.35760        0.00000        1.23290
C          3.74250        0.00020        1.18650
N          4.70390        0.01620        2.20590
H          4.51790        0.02710        3.18650
C          5.99690        0.03290        1.63020
O          7.03350        0.06310        2.25250
N          5.82240       -0.03500        0.22860
C          4.44740       -0.00310       -0.06750
C          3.76180       -0.00210       -1.27270
C          2.36550        0.00170       -1.22710
C          6.89680        0.19240       -0.74900
H          6.47210        0.00770       -1.77250
C          8.03140       -0.81340       -0.48680
C          9.26720       -0.46240       -1.33100
N          9.74560        0.92130       -1.14820
C          8.65180        1.85700       -1.49290
C          7.37720        1.65460       -0.65180
C         10.27130        1.22390        0.20620
C         11.34560        0.21900        0.67590
N         10.77760       -0.77040        1.59960
C         10.83610       -2.11610        1.30180
O         11.47890       -2.51900        0.34900
C         10.12980       -3.04320        2.22720
C         10.74860       -4.26900        2.49000
C         10.13050       -5.20100        3.31790
C          8.88720       -4.87050        3.85700
F          8.28930       -5.74880        4.64750
C          8.24280       -3.66050        3.60080
C          8.88270       -2.74100        2.77390
H          1.81190        0.00180        2.17360
H          4.28520       -0.00640       -2.22560
H          1.79770        0.00660       -2.15890
H          7.69350       -1.84250       -0.70850
H          8.30850       -0.81670        0.58630
H         10.09920       -1.17080       -1.10710
H          9.05040       -0.59750       -2.41420
H          9.02130        2.89880       -1.38380
H          8.42610        1.72240       -2.57450
H          7.57500        1.91920        0.40610
H          6.58330        2.34370       -0.98860
H          9.46640        1.29800        0.97280
H         10.73660        2.23490        0.13670
H         12.16300        0.76000        1.20520
H         11.82440       -0.28760       -0.19860
H         10.15780       -0.41750        2.31410
H         11.71780       -4.49220        2.03310
H         10.60300       -6.15780        3.53050
H          7.26760       -3.43460        4.02820
H          8.38820       -1.78880        2.55710
