rmsd59.gzmat
 OpenBabel08211713393D

 51 54  0  0  0  0  0  0  0  0999 V2000
    0.0000    0.0000    0.0000 Cl  0  0  0  0  0  0  0  0  0  0  0  0
    1.7106    0.0000    0.0000 C   0  0  0  0  0  0  0  0  0  0  0  0
    2.3567    0.0000    1.2342 C   0  0  0  0  0  0  0  0  0  0  0  0
    3.7410   -0.0028    1.1898 C   0  0  0  0  0  0  0  0  0  0  0  0
    4.6995   -0.0028    2.2111 N   0  0  0  0  0  0  0  0  0  0  0  0
    4.5127   -0.0032    3.1921 H   0  0  0  0  0  0  0  0  0  0  0  0
    5.9957   -0.0041    1.6402 C   0  0  0  0  0  0  0  0  0  0  0  0
    7.0352   -0.0023    2.2520 O   0  0  0  0  0  0  0  0  0  0  0  0
    5.8194   -0.0123    0.2369 N   0  0  0  0  0  0  0  0  0  0  0  0
    4.4486   -0.0052   -0.0648 C   0  0  0  0  0  0  0  0  0  0  0  0
    3.7644   -0.0033   -1.2702 C   0  0  0  0  0  0  0  0  0  0  0  0
    2.3670    0.0000   -1.2258 C   0  0  0  0  0  0  0  0  0  0  0  0
    6.9182    0.0072   -0.7321 C   0  0  0  0  0  0  0  0  0  0  0  0
    6.4719   -0.0149   -1.7622 H   0  0  0  0  0  0  0  0  0  0  0  0
    7.8054   -1.2367   -0.5292 C   0  0  0  0  0  0  0  0  0  0  0  0
    9.0302   -1.1585   -1.4566 C   0  0  0  0  0  0  0  0  0  0  0  0
    9.8254    0.0770   -1.2997 N   0  0  0  0  0  0  0  0  0  0  0  0
    8.9641    1.2626   -1.4883 C   0  0  0  0  0  0  0  0  0  0  0  0
    7.7414    1.2995   -0.5560 C   0  0  0  0  0  0  0  0  0  0  0  0
   10.5602    0.1209   -0.0118 C   0  0  0  0  0  0  0  0  0  0  0  0
   11.8349   -0.7489   -0.1252 C   0  0  0  0  0  0  0  0  0  0  0  0
   12.6957   -0.2187   -1.1869 N   0  0  0  0  0  0  0  0  0  0  0  0
   14.0615   -0.2481   -1.0536 C   0  0  0  0  0  0  0  0  0  0  0  0
   14.5891   -0.7317   -0.0695 O   0  0  0  0  0  0  0  0  0  0  0  0
   14.8432    0.3254   -2.1844 C   0  0  0  0  0  0  0  0  0  0  0  0
   14.5300    1.5742   -2.7207 C   0  0  0  0  0  0  0  0  0  0  0  0
   15.2943    2.0948   -3.7617 C   0  0  0  0  0  0  0  0  0  0  0  0
   16.3612    1.3316   -4.2356 C   0  0  0  0  0  0  0  0  0  0  0  0
   17.0875    1.8142   -5.2322 F   0  0  0  0  0  0  0  0  0  0  0  0
   16.7020    0.0863   -3.7077 C   0  0  0  0  0  0  0  0  0  0  0  0
   15.9302   -0.4104   -2.6612 C   0  0  0  0  0  0  0  0  0  0  0  0
    1.8106    0.0031    2.1747 H   0  0  0  0  0  0  0  0  0  0  0  0
    4.2882   -0.0039   -2.2221 H   0  0  0  0  0  0  0  0  0  0  0  0
    1.8010    0.0033   -2.1583 H   0  0  0  0  0  0  0  0  0  0  0  0
    7.2308   -2.1593   -0.7215 H   0  0  0  0  0  0  0  0  0  0  0  0
    8.1304   -1.3044    0.5306 H   0  0  0  0  0  0  0  0  0  0  0  0
    9.6920   -2.0361   -1.2877 H   0  0  0  0  0  0  0  0  0  0  0  0
    8.7130   -1.2154   -2.5221 H   0  0  0  0  0  0  0  0  0  0  0  0
    9.5787    2.1785   -1.3513 H   0  0  0  0  0  0  0  0  0  0  0  0
    8.6374    1.2684   -2.5528 H   0  0  0  0  0  0  0  0  0  0  0  0
    8.0678    1.4024    0.4995 H   0  0  0  0  0  0  0  0  0  0  0  0
    7.1197    2.1873   -0.7649 H   0  0  0  0  0  0  0  0  0  0  0  0
    9.9521   -0.2191    0.8545 H   0  0  0  0  0  0  0  0  0  0  0  0
   10.8535    1.1712    0.2073 H   0  0  0  0  0  0  0  0  0  0  0  0
   11.5768   -1.8077   -0.3503 H   0  0  0  0  0  0  0  0  0  0  0  0
   12.3833   -0.7508    0.8476 H   0  0  0  0  0  0  0  0  0  0  0  0
   12.2169    0.1337   -2.0019 H   0  0  0  0  0  0  0  0  0  0  0  0
   13.6945    2.1508   -2.3208 H   0  0  0  0  0  0  0  0  0  0  0  0
   15.0659    3.0695   -4.1879 H   0  0  0  0  0  0  0  0  0  0  0  0
   17.5476   -0.4796   -4.0945 H   0  0  0  0  0  0  0  0  0  0  0  0
   16.1755   -1.3722   -2.2017 H   0  0  0  0  0  0  0  0  0  0  0  0
  1  2  1  0  0  0  0
  2  3  2  0  0  0  0
  3 32  1  0  0  0  0
  4  3  1  0  0  0  0
  4  5  1  0  0  0  0
  5  6  1  0  0  0  0
  7  5  1  0  0  0  0
  7  8  2  0  0  0  0
  9  7  1  0  0  0  0
 10  9  1  0  0  0  0
 10  4  2  0  0  0  0
 11 12  2  0  0  0  0
 11 10  1  0  0  0  0
 12  2  1  0  0  0  0
 13 19  1  0  0  0  0
 13 15  1  0  0  0  0
 13  9  1  0  0  0  0
 14 13  1  0  0  0  0
 15 36  1  0  0  0  0
 16 17  1  0  0  0  0
 16 37  1  0  0  0  0
 16 15  1  0  0  0  0
 17 20  1  0  0  0  0
 18 39  1  0  0  0  0
 18 17  1  0  0  0  0
 18 19  1  0  0  0  0
 19 41  1  0  0  0  0
 20 44  1  0  0  0  0
 20 43  1  0  0  0  0
 21 20  1  0  0  0  0
 21 46  1  0  0  0  0
 22 23  1  0  0  0  0
 22 21  1  0  0  0  0
 23 24  2  0  0  0  0
 25 23  1  0  0  0  0
 26 48  1  0  0  0  0
 26 25  2  0  0  0  0
 27 26  1  0  0  0  0
 28 27  2  0  0  0  0
 28 30  1  0  0  0  0
 29 28  1  0  0  0  0
 30 31  2  0  0  0  0
 31 51  1  0  0  0  0
 31 25  1  0  0  0  0
 33 11  1  0  0  0  0
 34 12  1  0  0  0  0
 35 15  1  0  0  0  0
 38 16  1  0  0  0  0
 40 18  1  0  0  0  0
 42 19  1  0  0  0  0
 45 21  1  0  0  0  0
 47 22  1  0  0  0  0
 49 27  1  0  0  0  0
 50 30  1  0  0  0  0
M  END
$$$$
