
     RDKit          3D

 51 54  0  0  0  0  0  0  0  0999 V2000
    0.0679   -0.3811   -0.5506 Cl  0  0  0  0  0  0  0  0  0  0  0  0
    1.8056   -0.2563   -0.3912 C   0  0  0  0  0  0  0  0  0  0  0  0
    2.3802   -0.4339    0.8761 C   0  0  0  0  0  0  0  0  0  0  0  0
    3.7628   -0.3273    0.9633 C   0  0  0  0  0  0  0  0  0  0  0  0
    4.6350   -0.4430    2.0330 N   0  0  0  0  0  0  0  0  0  0  0  0
    4.3968   -0.6387    2.9961 H   0  0  0  0  0  0  0  0  0  0  0  0
    5.9553   -0.2536    1.6290 C   0  0  0  0  0  0  0  0  0  0  0  0
    6.9502   -0.2915    2.3266 O   0  0  0  0  0  0  0  0  0  0  0  0
    5.8852   -0.0117    0.2537 N   0  0  0  0  0  0  0  0  0  0  0  0
    4.5609   -0.0518   -0.1736 C   0  0  0  0  0  0  0  0  0  0  0  0
    3.9739    0.1214   -1.4229 C   0  0  0  0  0  0  0  0  0  0  0  0
    2.5792    0.0162   -1.5240 C   0  0  0  0  0  0  0  0  0  0  0  0
    7.0627    0.2409   -0.5723 C   0  0  0  0  0  0  0  0  0  0  0  0
    6.6857    0.3904   -1.5970 H   0  0  0  0  0  0  0  0  0  0  0  0
    8.0104   -0.9679   -0.5869 C   0  0  0  0  0  0  0  0  0  0  0  0
    9.2868   -0.6422   -1.3748 C   0  0  0  0  0  0  0  0  0  0  0  0
    9.9708    0.5600   -0.8978 N   0  0  0  0  0  0  0  0  0  0  0  0
    9.0755    1.7111   -0.9590 C   0  0  0  0  0  0  0  0  0  0  0  0
    7.7886    1.5244   -0.1422 C   0  0  0  0  0  0  0  0  0  0  0  0
   10.6563    0.4050    0.3871 C   0  0  0  0  0  0  0  0  0  0  0  0
   11.8910   -0.4836    0.2560 C   0  0  0  0  0  0  0  0  0  0  0  0
   12.6763   -0.0323   -0.8699 N   0  0  0  0  0  0  0  0  0  0  0  0
   13.9535   -0.4513   -1.0801 C   0  0  0  0  0  0  0  0  0  0  0  0
   14.5327   -1.2010   -0.3050 O   0  0  0  0  0  0  0  0  0  0  0  0
   14.6203    0.0624   -2.3277 C   0  0  0  0  0  0  0  0  0  0  0  0
   14.1525    1.1627   -3.0626 C   0  0  0  0  0  0  0  0  0  0  0  0
   14.8224    1.5925   -4.2088 C   0  0  0  0  0  0  0  0  0  0  0  0
   15.9683    0.9102   -4.6116 C   0  0  0  0  0  0  0  0  0  0  0  0
   16.6140    1.3165   -5.7128 F   0  0  0  0  0  0  0  0  0  0  0  0
   16.4642   -0.1781   -3.8953 C   0  0  0  0  0  0  0  0  0  0  0  0
   15.7871   -0.5917   -2.7504 C   0  0  0  0  0  0  0  0  0  0  0  0
    1.7581   -0.6457    1.7456 H   0  0  0  0  0  0  0  0  0  0  0  0
    4.5719    0.3340   -2.3100 H   0  0  0  0  0  0  0  0  0  0  0  0
    2.0872    0.1462   -2.4881 H   0  0  0  0  0  0  0  0  0  0  0  0
    7.4975   -1.8356   -1.0327 H   0  0  0  0  0  0  0  0  0  0  0  0
    8.2584   -1.2331    0.4509 H   0  0  0  0  0  0  0  0  0  0  0  0
    9.9797   -1.4958   -1.3464 H   0  0  0  0  0  0  0  0  0  0  0  0
    9.0341   -0.4819   -2.4383 H   0  0  0  0  0  0  0  0  0  0  0  0
    9.6182    2.6058   -0.6162 H   0  0  0  0  0  0  0  0  0  0  0  0
    8.8166    1.8820   -2.0199 H   0  0  0  0  0  0  0  0  0  0  0  0
    8.0264    1.4528    0.9293 H   0  0  0  0  0  0  0  0  0  0  0  0
    7.1197    2.3904   -0.2748 H   0  0  0  0  0  0  0  0  0  0  0  0
   10.0086    0.0097    1.1940 H   0  0  0  0  0  0  0  0  0  0  0  0
   10.9793    1.4103    0.7014 H   0  0  0  0  0  0  0  0  0  0  0  0
   11.6068   -1.5469    0.1416 H   0  0  0  0  0  0  0  0  0  0  0  0
   12.4967   -0.4341    1.1731 H   0  0  0  0  0  0  0  0  0  0  0  0
   12.1348    0.4174   -1.6021 H   0  0  0  0  0  0  0  0  0  0  0  0
   13.2713    1.7162   -2.7315 H   0  0  0  0  0  0  0  0  0  0  0  0
   14.4778    2.4505   -4.7884 H   0  0  0  0  0  0  0  0  0  0  0  0
   17.3696   -0.6792   -4.2421 H   0  0  0  0  0  0  0  0  0  0  0  0
   16.1476   -1.4304   -2.1526 H   0  0  0  0  0  0  0  0  0  0  0  0
  1  2  1  0
  2  3  2  0
  2 12  1  0
  3  4  1  0
  3 32  1  0
  4  5  1  0
  4 10  2  0
  5  6  1  0
  5  7  1  0
  7  8  2  0
  7  9  1  0
  9 10  1  0
  9 13  1  0
 10 11  1  0
 11 12  2  0
 11 33  1  0
 12 34  1  0
 13 14  1  0
 13 15  1  0
 13 19  1  0
 15 16  1  0
 15 35  1  0
 15 36  1  0
 16 17  1  0
 16 37  1  0
 16 38  1  0
 17 18  1  0
 17 20  1  0
 18 19  1  0
 18 39  1  0
 18 40  1  0
 19 41  1  0
 19 42  1  0
 20 21  1  0
 20 43  1  0
 20 44  1  0
 21 22  1  0
 21 45  1  0
 21 46  1  0
 22 23  1  0
 22 47  1  0
 23 24  2  0
 23 25  1  0
 25 26  2  0
 25 31  1  0
 26 27  1  0
 26 48  1  0
 27 28  2  0
 27 49  1  0
 28 29  1  0
 28 30  1  0
 30 31  2  0
 30 50  1  0
 31 51  1  0
M  END

