
     RDKit          3D

 40 41  0  0  0  0  0  0  0  0999 V2000
    0.2138   -0.4016    0.0012 S   0  0  0  0  0  0  0  0  0  0  0  0
    1.9782   -0.1910    0.0332 C   0  0  0  0  0  0  0  0  0  0  0  0
    2.6833    0.0151    1.2472 C   0  0  0  0  0  0  0  0  0  0  0  0
    1.9803    0.0040    2.4820 N   0  0  0  0  0  0  0  0  0  0  0  0
    2.5196    0.8221    3.5519 C   0  0  0  0  0  0  0  0  0  0  0  0
    1.5349   -1.3218    2.9248 C   0  0  0  0  0  0  0  0  0  0  0  0
    2.6835   -2.2908    3.3044 C   0  0  0  0  0  0  0  0  0  0  0  0
    2.6069   -3.6063    2.6594 N   0  0  0  0  0  0  0  0  0  0  0  0
    1.5346   -4.4405    3.1683 C   0  0  0  0  0  0  0  0  0  0  0  0
    2.7977   -3.5919    1.2514 C   0  0  0  0  0  0  0  0  0  0  0  0
    1.7431   -3.8184    0.3534 C   0  0  0  0  0  0  0  0  0  0  0  0
    1.9421   -3.7911   -1.0276 C   0  0  0  0  0  0  0  0  0  0  0  0
    3.2135   -3.5355   -1.5404 C   0  0  0  0  0  0  0  0  0  0  0  0
    4.2824   -3.3340   -0.6676 C   0  0  0  0  0  0  0  0  0  0  0  0
    4.0935   -3.3679    0.7184 C   0  0  0  0  0  0  0  0  0  0  0  0
    5.5138   -3.1663    1.7673 S   0  0  0  0  0  0  0  0  0  0  0  0
    4.0653    0.2500    1.1777 C   0  0  0  0  0  0  0  0  0  0  0  0
    4.7454    0.2478   -0.0408 C   0  0  0  0  0  0  0  0  0  0  0  0
    4.0476    0.0095   -1.2244 C   0  0  0  0  0  0  0  0  0  0  0  0
    2.6694   -0.1998   -1.1833 C   0  0  0  0  0  0  0  0  0  0  0  0
    0.0271    0.2189    1.1934 H   0  0  0  0  0  0  0  0  0  0  0  0
    2.7543    1.8267    3.1719 H   0  0  0  0  0  0  0  0  0  0  0  0
    3.4384    0.4140    4.0216 H   0  0  0  0  0  0  0  0  0  0  0  0
    1.7611    0.9198    4.3450 H   0  0  0  0  0  0  0  0  0  0  0  0
    0.9476   -1.7702    2.1104 H   0  0  0  0  0  0  0  0  0  0  0  0
    0.8418   -1.1740    3.7689 H   0  0  0  0  0  0  0  0  0  0  0  0
    2.7221   -2.4572    4.3933 H   0  0  0  0  0  0  0  0  0  0  0  0
    3.6420   -1.8317    3.0223 H   0  0  0  0  0  0  0  0  0  0  0  0
    1.5856   -5.4371    2.7068 H   0  0  0  0  0  0  0  0  0  0  0  0
    0.5165   -4.0364    2.9909 H   0  0  0  0  0  0  0  0  0  0  0  0
    1.6569   -4.5560    4.2572 H   0  0  0  0  0  0  0  0  0  0  0  0
    0.7397   -3.9933    0.7417 H   0  0  0  0  0  0  0  0  0  0  0  0
    1.0959   -3.9555   -1.6983 H   0  0  0  0  0  0  0  0  0  0  0  0
    3.3807   -3.5029   -2.6192 H   0  0  0  0  0  0  0  0  0  0  0  0
    5.2869   -3.1657   -1.0611 H   0  0  0  0  0  0  0  0  0  0  0  0
    4.9425   -3.8085    2.8173 H   0  0  0  0  0  0  0  0  0  0  0  0
    4.6262    0.4114    2.0983 H   0  0  0  0  0  0  0  0  0  0  0  0
    5.8242    0.4181   -0.0573 H   0  0  0  0  0  0  0  0  0  0  0  0
    4.5696   -0.0034   -2.1838 H   0  0  0  0  0  0  0  0  0  0  0  0
    2.1108   -0.3546   -2.1086 H   0  0  0  0  0  0  0  0  0  0  0  0
  1  2  1  0
  1 21  1  0
  2  3  2  0
  2 20  1  0
  3  4  1  0
  3 17  1  0
  4  5  1  0
  4  6  1  0
  5 22  1  0
  5 23  1  0
  5 24  1  0
  6  7  1  0
  6 25  1  0
  6 26  1  0
  7  8  1  0
  7 27  1  0
  7 28  1  0
  8  9  1  0
  8 10  1  0
  9 29  1  0
  9 30  1  0
  9 31  1  0
 10 11  2  0
 10 15  1  0
 11 12  1  0
 11 32  1  0
 12 13  2  0
 12 33  1  0
 13 14  1  0
 13 34  1  0
 14 15  2  0
 14 35  1  0
 15 16  1  0
 16 36  1  0
 17 18  2  0
 17 37  1  0
 18 19  1  0
 18 38  1  0
 19 20  2  0
 19 39  1  0
 20 40  1  0
M  END

