40

S          0.21380       -0.40160        0.00120
C          1.97820       -0.19100        0.03320
C          2.68330        0.01510        1.24720
N          1.98030        0.00400        2.48200
C          2.51960        0.82210        3.55190
C          1.53490       -1.32180        2.92480
C          2.68350       -2.29080        3.30440
N          2.60690       -3.60630        2.65940
C          1.53460       -4.44050        3.16830
C          2.79770       -3.59190        1.25140
C          1.74310       -3.81840        0.35340
C          1.94210       -3.79110       -1.02760
C          3.21350       -3.53550       -1.54040
C          4.28240       -3.33400       -0.66760
C          4.09350       -3.36790        0.71840
S          5.51380       -3.16630        1.76730
C          4.06530        0.25000        1.17770
C          4.74540        0.24780       -0.04080
C          4.04760        0.00950       -1.22440
C          2.66940       -0.19980       -1.18330
H          0.02710        0.21890        1.19340
H          2.75430        1.82670        3.17190
H          3.43840        0.41400        4.02160
H          1.76110        0.91980        4.34500
H          0.94760       -1.77020        2.11040
H          0.84180       -1.17400        3.76890
H          2.72210       -2.45720        4.39330
H          3.64200       -1.83170        3.02230
H          1.58560       -5.43710        2.70680
H          0.51650       -4.03640        2.99090
H          1.65690       -4.55600        4.25720
H          0.73970       -3.99330        0.74170
H          1.09590       -3.95550       -1.69830
H          3.38070       -3.50290       -2.61920
H          5.28690       -3.16570       -1.06110
H          4.94250       -3.80850        2.81730
H          4.62620        0.41140        2.09830
H          5.82420        0.41810       -0.05730
H          4.56960       -0.00340       -2.18380
H          2.11080       -0.35460       -2.10860
