40
rmsd79.gzmat
S          0.00000        0.00000        0.00000
C          1.76570        0.00000        0.00000
C          2.52200        0.00000        1.18440
N          1.80200       -0.05720        2.42560
C          2.40610        0.74720        3.50500
C          1.50380       -1.44260        2.84910
C          2.73080       -2.33340        3.17790
N          2.62750       -3.56350        2.35360
C          3.25320       -3.40760        1.02380
C          3.14690       -4.71660        3.04980
C          4.48410       -4.83380        3.44230
C          4.90900       -5.97100        4.12180
C          4.00320       -6.99070        4.41120
C          2.67130       -6.87990        4.02040
C          2.23660       -5.74360        3.33740
S          0.53850       -5.65390        2.86760
C          3.91760        0.09380        1.10970
C          4.55060        0.13610       -0.12860
C          3.79940        0.08100       -1.30040
C          2.40950        0.02210       -1.23590
H         -0.24490        0.37520        1.26980
H          2.60280        1.76820        3.13500
H          3.34070        0.33980        3.91800
H          1.67190        0.83040        4.32630
H          0.90060       -1.92980        2.04550
H          0.83360       -1.38270        3.73440
H          2.71340       -2.60670        4.25550
H          3.67990       -1.78640        3.00940
H          4.32990       -3.18380        1.05090
H          2.74400       -2.58870        0.48390
H          3.10390       -4.33420        0.44350
H          5.18870       -4.03700        3.21480
H          5.94940       -6.06490        4.42860
H          4.33820       -7.87880        4.94480
H          1.97820       -7.69020        4.25500
H          0.52730       -4.49330        2.18220
H          4.51380        0.13250        2.01820
H          5.63630        0.20950       -0.18050
H          4.29740        0.09530       -2.26830
H          1.83440        0.00360       -2.16480
