
     RDKit          3D

 40 41  0  0  0  0  0  0  0  0999 V2000
    0.0788    0.1667    0.0661 S   0  0  0  0  0  0  0  0  0  0  0  0
    1.8483    0.0111    0.0017 C   0  0  0  0  0  0  0  0  0  0  0  0
    2.6329   -0.0442    1.1827 C   0  0  0  0  0  0  0  0  0  0  0  0
    2.0085    0.0923    2.4503 N   0  0  0  0  0  0  0  0  0  0  0  0
    2.5893   -0.6451    3.5589 C   0  0  0  0  0  0  0  0  0  0  0  0
    1.5746    1.4521    2.7886 C   0  0  0  0  0  0  0  0  0  0  0  0
    2.7309    2.4378    3.0189 C   0  0  0  0  0  0  0  0  0  0  0  0
    2.2969    3.7975    3.3573 N   0  0  0  0  0  0  0  0  0  0  0  0
    1.7160    4.5349    2.2487 C   0  0  0  0  0  0  0  0  0  0  0  0
    1.6726    3.9339    4.6249 C   0  0  0  0  0  0  0  0  0  0  0  0
    0.2911    4.1505    4.7563 C   0  0  0  0  0  0  0  0  0  0  0  0
   -0.3139    4.2658    6.0087 C   0  0  0  0  0  0  0  0  0  0  0  0
    0.4610    4.1641    7.1658 C   0  0  0  0  0  0  0  0  0  0  0  0
    1.8401    3.9814    7.0599 C   0  0  0  0  0  0  0  0  0  0  0  0
    2.4573    3.8788    5.8059 C   0  0  0  0  0  0  0  0  0  0  0  0
    4.2268    3.7235    5.7415 S   0  0  0  0  0  0  0  0  0  0  0  0
    4.0144   -0.2609    1.0515 C   0  0  0  0  0  0  0  0  0  0  0  0
    4.6194   -0.3763   -0.2010 C   0  0  0  0  0  0  0  0  0  0  0  0
    3.8446   -0.2745   -1.3581 C   0  0  0  0  0  0  0  0  0  0  0  0
    2.4655   -0.0917   -1.2523 C   0  0  0  0  0  0  0  0  0  0  0  0
    0.0041   -0.2680    1.3495 H   0  0  0  0  0  0  0  0  0  0  0  0
    2.7703   -1.6863    3.2555 H   0  0  0  0  0  0  0  0  0  0  0  0
    1.8756   -0.6482    4.3975 H   0  0  0  0  0  0  0  0  0  0  0  0
    3.5434   -0.2312    3.9422 H   0  0  0  0  0  0  0  0  0  0  0  0
    0.9534    1.3944    3.6971 H   0  0  0  0  0  0  0  0  0  0  0  0
    0.9247    1.8194    1.9810 H   0  0  0  0  0  0  0  0  0  0  0  0
    3.3520    2.4955    2.1104 H   0  0  0  0  0  0  0  0  0  0  0  0
    3.3808    2.0703    3.8265 H   0  0  0  0  0  0  0  0  0  0  0  0
    1.5351    5.5761    2.5522 H   0  0  0  0  0  0  0  0  0  0  0  0
    0.7619    4.1210    1.8655 H   0  0  0  0  0  0  0  0  0  0  0  0
    2.4297    4.5380    1.4101 H   0  0  0  0  0  0  0  0  0  0  0  0
   -0.3236    4.2077    3.8567 H   0  0  0  0  0  0  0  0  0  0  0  0
   -1.3923    4.4260    6.0775 H   0  0  0  0  0  0  0  0  0  0  0  0
   -0.0010    4.2487    8.1520 H   0  0  0  0  0  0  0  0  0  0  0  0
    2.4584    3.9484    7.9600 H   0  0  0  0  0  0  0  0  0  0  0  0
    4.3015    4.1588    4.4582 H   0  0  0  0  0  0  0  0  0  0  0  0
    4.6290   -0.3181    1.9511 H   0  0  0  0  0  0  0  0  0  0  0  0
    5.6978   -0.5367   -0.2697 H   0  0  0  0  0  0  0  0  0  0  0  0
    4.3067   -0.3592   -2.3442 H   0  0  0  0  0  0  0  0  0  0  0  0
    1.8473   -0.0585   -2.1524 H   0  0  0  0  0  0  0  0  0  0  0  0
  1  2  1  0
  1 21  1  0
  2  3  2  0
  2 20  1  0
  3  4  1  0
  3 17  1  0
  4  5  1  0
  4  6  1  0
  5 22  1  0
  5 23  1  0
  5 24  1  0
  6  7  1  0
  6 25  1  0
  6 26  1  0
  7  8  1  0
  7 27  1  0
  7 28  1  0
  8  9  1  0
  8 10  1  0
  9 29  1  0
  9 30  1  0
  9 31  1  0
 10 11  2  0
 10 15  1  0
 11 12  1  0
 11 32  1  0
 12 13  2  0
 12 33  1  0
 13 14  1  0
 13 34  1  0
 14 15  2  0
 14 35  1  0
 15 16  1  0
 16 36  1  0
 17 18  2  0
 17 37  1  0
 18 19  1  0
 18 38  1  0
 19 20  2  0
 19 39  1  0
 20 40  1  0
M  END

