40

S          0.27460        0.72680       -0.08780
C          2.00880        0.33850       -0.02580
C          2.64490       -0.05710        1.17950
N          1.90790       -0.08780        2.39180
C          2.29190       -1.08160        3.37740
C          1.57010        1.22230        2.95220
C          2.76670        2.00210        3.51610
N          2.37610        3.35970        3.87710
C          2.26390        4.26350        2.73230
C          3.05480        3.94850        4.98360
C          4.42240        3.73910        5.21300
C          5.07700        4.33270        6.29390
C          4.36290        5.16030        7.16320
C          2.99990        5.37630        6.95780
C          2.33420        4.77640        5.87940
S          0.59480        5.05690        5.67180
C          3.99610       -0.43770        1.12010
C          4.71770       -0.38760       -0.07330
C          4.09480        0.04990       -1.24370
C          2.74470        0.39980       -1.21690
H         -0.01280        0.04090        1.04680
H          2.39550       -2.06370        2.89390
H          1.49970       -1.15360        4.13910
H          3.24080       -0.86340        3.90850
H          0.82370        1.08070        3.75090
H          1.08200        1.81730        2.16840
H          3.59090        1.99100        2.77320
H          3.14130        1.50210        4.42050
H          1.82020        5.21670        3.05240
H          1.61110        3.82780        1.96200
H          3.25180        4.47090        2.27300
H          4.98430        3.10870        4.52080
H          6.14340        4.15470        6.44990
H          4.86300        5.63220        8.01210
H          2.43420        6.00190        7.65210
H          0.46610        4.02540        4.79720
H          4.49710       -0.75910        2.03430
H          5.76950       -0.68250       -0.08350
H          4.64970        0.09790       -2.18330
H          2.23780        0.69590       -2.13820
