rmsd189.gzmat
 OpenBabel08211713413D

 40 41  0  0  0  0  0  0  0  0999 V2000
    0.0000    0.0000    0.0000 S   0  0  0  0  0  0  0  0  0  0  0  0
    1.7645    0.0000    0.0000 C   0  0  0  0  0  0  0  0  0  0  0  0
    2.5148    0.0000    1.1846 C   0  0  0  0  0  0  0  0  0  0  0  0
    1.7778   -0.0121    2.4263 N   0  0  0  0  0  0  0  0  0  0  0  0
    2.2781   -1.0391    3.3639 C   0  0  0  0  0  0  0  0  0  0  0  0
    1.7658    1.3430    3.0311 C   0  0  0  0  0  0  0  0  0  0  0  0
    0.5257    1.4444    3.9537 C   0  0  0  0  0  0  0  0  0  0  0  0
    0.1644    2.8201    4.3525 N   0  0  0  0  0  0  0  0  0  0  0  0
   -0.3556    3.6274    3.2309 C   0  0  0  0  0  0  0  0  0  0  0  0
    1.2218    3.4739    5.0789 C   0  0  0  0  0  0  0  0  0  0  0  0
    2.2677    4.1641    4.4547 C   0  0  0  0  0  0  0  0  0  0  0  0
    3.2534    4.7774    5.2209 C   0  0  0  0  0  0  0  0  0  0  0  0
    3.2005    4.7092    6.6119 C   0  0  0  0  0  0  0  0  0  0  0  0
    2.1536    4.0397    7.2406 C   0  0  0  0  0  0  0  0  0  0  0  0
    1.1587    3.4265    6.4796 C   0  0  0  0  0  0  0  0  0  0  0  0
   -0.1541    2.6186    7.3405 S   0  0  0  0  0  0  0  0  0  0  0  0
    3.9126    0.0070    1.1260 C   0  0  0  0  0  0  0  0  0  0  0  0
    4.5553    0.0103   -0.1077 C   0  0  0  0  0  0  0  0  0  0  0  0
    3.8083    0.0131   -1.2849 C   0  0  0  0  0  0  0  0  0  0  0  0
    2.4169    0.0066   -1.2326 C   0  0  0  0  0  0  0  0  0  0  0  0
   -0.2534   -0.2234    1.3028 H   0  0  0  0  0  0  0  0  0  0  0  0
    3.2704   -0.8275    3.7896 H   0  0  0  0  0  0  0  0  0  0  0  0
    2.3224   -2.0131    2.8468 H   0  0  0  0  0  0  0  0  0  0  0  0
    1.5569   -1.1364    4.1937 H   0  0  0  0  0  0  0  0  0  0  0  0
    1.6966    2.1007    2.2193 H   0  0  0  0  0  0  0  0  0  0  0  0
    2.6916    1.5715    3.5991 H   0  0  0  0  0  0  0  0  0  0  0  0
    0.7004    0.8532    4.8805 H   0  0  0  0  0  0  0  0  0  0  0  0
   -0.3583    0.9896    3.4520 H   0  0  0  0  0  0  0  0  0  0  0  0
   -0.6097    4.6364    3.5982 H   0  0  0  0  0  0  0  0  0  0  0  0
   -1.2880    3.1602    2.8681 H   0  0  0  0  0  0  0  0  0  0  0  0
    0.3298    3.7310    2.3764 H   0  0  0  0  0  0  0  0  0  0  0  0
    2.3123    4.2224    3.3689 H   0  0  0  0  0  0  0  0  0  0  0  0
    4.0679    5.3099    4.7318 H   0  0  0  0  0  0  0  0  0  0  0  0
    3.9753    5.1855    7.2100 H   0  0  0  0  0  0  0  0  0  0  0  0
    2.1200    4.0094    8.3315 H   0  0  0  0  0  0  0  0  0  0  0  0
   -1.0328    2.4330    6.3379 H   0  0  0  0  0  0  0  0  0  0  0  0
    4.4961    0.0119    2.0445 H   0  0  0  0  0  0  0  0  0  0  0  0
    5.6435    0.0121   -0.1535 H   0  0  0  0  0  0  0  0  0  0  0  0
    4.3139    0.0198   -2.2492 H   0  0  0  0  0  0  0  0  0  0  0  0
    1.8484    0.0040   -2.1647 H   0  0  0  0  0  0  0  0  0  0  0  0
  1  2  1  0  0  0  0
  1 21  1  0  0  0  0
  2  3  2  0  0  0  0
  3  4  1  0  0  0  0
  4  6  1  0  0  0  0
  4  5  1  0  0  0  0
  5 22  1  0  0  0  0
  5 24  1  0  0  0  0
  6 26  1  0  0  0  0
  6  7  1  0  0  0  0
  7  8  1  0  0  0  0
  7 27  1  0  0  0  0
  8 10  1  0  0  0  0
  9 29  1  0  0  0  0
  9  8  1  0  0  0  0
 10 15  1  0  0  0  0
 11 10  2  0  0  0  0
 11 12  1  0  0  0  0
 12 13  2  0  0  0  0
 13 34  1  0  0  0  0
 13 14  1  0  0  0  0
 14 35  1  0  0  0  0
 15 14  2  0  0  0  0
 15 16  1  0  0  0  0
 17  3  1  0  0  0  0
 17 37  1  0  0  0  0
 18 17  2  0  0  0  0
 19 20  2  0  0  0  0
 19 18  1  0  0  0  0
 20  2  1  0  0  0  0
 23  5  1  0  0  0  0
 25  6  1  0  0  0  0
 28  7  1  0  0  0  0
 30  9  1  0  0  0  0
 31  9  1  0  0  0  0
 32 11  1  0  0  0  0
 33 12  1  0  0  0  0
 36 16  1  0  0  0  0
 38 18  1  0  0  0  0
 39 19  1  0  0  0  0
 40 20  1  0  0  0  0
M  END
$$$$
