40
rmsd224.gzmat
S          0.00000        0.00000        0.00000
C          1.76480        0.00000        0.00000
C          2.51660        0.00000        1.18550
N          1.76600        0.00270        2.41750
C          1.91080       -1.27020        3.14920
C          1.99340        1.20920        3.23670
C          3.26770        1.23540        4.11950
N          3.04160        1.37510        5.57700
C          2.51460        2.70600        5.93750
C          2.27980        0.28540        6.12330
C          0.88630        0.31790        6.26450
C          0.21070       -0.78000        6.78730
C          0.91810       -1.91460        7.17960
C          2.30680       -1.94070        7.07900
C          2.99280       -0.84160        6.56440
S          4.75530       -0.92840        6.51260
C          3.91310       -0.00230        1.12310
C          4.55430        0.00780       -0.11230
C          3.80640        0.00820       -1.28820
C          2.41450        0.00070       -1.23410
H         -0.25590       -0.02260        1.32240
H          1.49990       -2.08330        2.52470
H          1.31940       -1.22680        4.08070
H          2.94650       -1.53550        3.41400
H          1.08470        1.31680        3.87410
H          1.99210        2.08970        2.55510
H          3.92990        2.07390        3.80840
H          3.86050        0.30610        3.96060
H          1.60750        3.00610        5.39240
H          3.30400        3.45260        5.73780
H          2.29950        2.73910        7.01910
H          0.32490        1.19910        5.96170
H         -0.87380       -0.75150        6.88660
H          0.38690       -2.77870        7.57530
H          2.84700       -2.82870        7.41590
H          5.06380        0.37600        6.39430
H          4.50300       -0.01510        2.03710
H          5.64200        0.01290       -0.15900
H          4.30950        0.01290       -2.25380
H          1.84500       -0.00500       -2.16600
