40
rmsd189.gzmat
S          0.00000        0.00000        0.00000
C          1.76450        0.00000        0.00000
C          2.51480        0.00000        1.18460
N          1.77780       -0.01210        2.42630
C          2.27810       -1.03910        3.36390
C          1.76580        1.34300        3.03110
C          0.52570        1.44440        3.95370
N          0.16440        2.82010        4.35250
C         -0.35560        3.62740        3.23090
C          1.22180        3.47390        5.07890
C          2.26770        4.16410        4.45470
C          3.25340        4.77740        5.22090
C          3.20050        4.70920        6.61190
C          2.15360        4.03970        7.24060
C          1.15870        3.42650        6.47960
S         -0.15410        2.61860        7.34050
C          3.91260        0.00700        1.12600
C          4.55530        0.01030       -0.10770
C          3.80830        0.01310       -1.28490
C          2.41690        0.00660       -1.23260
H         -0.25340       -0.22340        1.30280
H          3.27040       -0.82750        3.78960
H          2.32240       -2.01310        2.84680
H          1.55690       -1.13640        4.19370
H          1.69660        2.10070        2.21930
H          2.69160        1.57150        3.59910
H          0.70040        0.85320        4.88050
H         -0.35830        0.98960        3.45200
H         -0.60970        4.63640        3.59820
H         -1.28800        3.16020        2.86810
H          0.32980        3.73100        2.37640
H          2.31230        4.22240        3.36890
H          4.06790        5.30990        4.73180
H          3.97530        5.18550        7.21000
H          2.12000        4.00940        8.33150
H         -1.03280        2.43300        6.33790
H          4.49610        0.01190        2.04450
H          5.64350        0.01210       -0.15350
H          4.31390        0.01980       -2.24920
H          1.84840        0.00400       -2.16470
