40
rmsd63.gzmat
S          0.00000        0.00000        0.00000
C          1.76530        0.00000        0.00000
C          2.51770        0.00000        1.18560
N          1.78540        0.01950        2.42440
C          2.31680       -0.92010        3.43060
C          1.60220        1.38840        2.94890
C          2.88950        2.05660        3.49890
N          2.56920        3.48900        3.71140
C          2.96230        4.32420        2.55500
C          3.14160        3.99170        4.93820
C          4.51210        3.94200        5.21520
C          4.99270        4.42620        6.42740
C          4.11020        4.96350        7.36360
C          2.74560        5.01850        7.09180
C          2.25410        4.53120        5.88000
S          0.51530        4.61800        5.59480
C          3.91480       -0.04990        1.11900
C          4.55490       -0.06240       -0.11620
C          3.80620       -0.03270       -1.29100
C          2.41470       -0.00970       -1.23370
H         -0.25070       -0.31990        1.28400
H          2.34950       -1.93290        2.99250
H          1.62050       -0.95000        4.28700
H          3.32000       -0.67550        3.80930
H          0.83510        1.33930        3.75420
H          1.16690        2.02110        2.14180
H          3.73670        1.90910        2.79840
H          3.17880        1.57630        4.45760
H          2.60610        5.35600        2.72230
H          2.46520        3.94040        1.64760
H          4.04690        4.35950        2.37030
H          5.19930        3.52510        4.48230
H          6.05870        4.38600        6.64590
H          4.48820        5.34150        8.31250
H          2.07160        5.44390        7.83770
H          0.43010        4.04680        4.37770
H          4.50480       -0.08060        2.03250
H          5.64250       -0.09540       -0.16320
H          4.30790       -0.03570       -2.25710
H          1.84470       -0.00640       -2.16540
