40
rmsd243.gzmat
S          0.00000        0.00000        0.00000
C          1.76580        0.00000        0.00000
C          2.51980        0.00000        1.18450
N          1.79560        0.02720        2.42710
C          2.39890       -0.81260        3.48080
C          1.52750        1.40620        2.88660
C          2.79090        2.27530        3.10950
N          2.52220        3.69750        3.40140
C          1.92700        4.41690        2.25790
C          1.78520        3.87350        4.62610
C          0.38860        3.81310        4.69720
C         -0.25600        4.00260        5.91550
C          0.48740        4.25580        7.06730
C          1.87610        4.33500        7.00140
C          2.53010        4.15070        5.78330
S          4.28960        4.29150        5.76420
C          3.91730       -0.06230        1.11450
C          4.55370       -0.08740       -0.12200
C          3.80360       -0.04900       -1.29580
C          2.41280       -0.01290       -1.23540
H         -0.24700       -0.39340        1.26380
H          2.58240       -1.82400        3.07850
H          1.66990       -0.91250        4.30490
H          3.34050       -0.42560        3.89720
H          0.93720        1.34260        3.82850
H          0.86780        1.89440        2.13410
H          3.44290        2.24010        2.20620
H          3.39030        1.85950        3.94980
H          1.75810        5.46980        2.54310
H          0.97740        4.00070        1.88970
H          2.65310        4.40900        1.42590
H         -0.19610        3.61910        3.80000
H         -1.34240        3.95140        5.96890
H         -0.01840        4.39890        8.02060
H          2.44070        4.54920        7.91140
H          4.51980        4.37540        4.44010
H          4.51130       -0.08700        2.02600
H          5.64100       -0.13270       -0.17170
H          4.30480       -0.05530       -2.26200
H          1.84070       -0.00490       -2.16590
