40

S          0.59810        1.43000       -0.10390
C          2.14080        0.56760        0.07430
C          2.45460       -0.14120        1.26240
N          1.54500       -0.11420        2.35560
C          1.46120       -1.32390        3.15820
C          1.56990        1.13040        3.13300
C          2.89010        1.39160        3.90570
N          2.75140        1.53390        5.36260
C          2.14240        2.78810        5.76620
C          2.33010        0.36690        6.04730
C          1.04300        0.24840        6.59900
C          0.62550       -0.92030        7.23750
C          1.49850       -2.00490        7.34180
C          2.79480       -1.89700        6.83780
C          3.22470       -0.72370        6.20390
S          4.90440       -0.64500        5.63030
C          3.65560       -0.86760        1.30710
C          4.54580       -0.86800        0.23170
C          4.24620       -0.13460       -0.91800
C          3.04490        0.57090       -0.99640
H          0.01430        0.74390        0.91250
H          1.32800       -2.19210        2.49660
H          0.59030       -1.25300        3.82680
H          2.34360       -1.51070        3.79840
H          0.72780        1.08970        3.84270
H          1.36180        1.96230        2.44450
H          3.37540        2.30790        3.53510
H          3.59300        0.57290        3.69890
H          1.09690        2.92160        5.41900
H          2.73260        3.62110        5.35320
H          2.14730        2.87050        6.86260
H          0.34670        1.08270        6.50640
H         -0.38580       -0.98310        7.64570
H          1.18260       -2.92640        7.83580
H          3.49900       -2.72360        6.95740
H          4.92380        0.71120        5.59580
H          3.90700       -1.42420        2.21120
H          5.47670       -1.43560        0.29920
H          4.93630       -0.12530       -1.76480
H          2.78570        1.11120       -1.90990
