
     RDKit          3D

 40 41  0  0  0  0  0  0  0  0999 V2000
   -0.1249   -0.5625    0.4568 S   0  0  0  0  0  0  0  0  0  0  0  0
    1.5930   -0.2350    0.1358 C   0  0  0  0  0  0  0  0  0  0  0  0
    2.4964    0.0966    1.1787 C   0  0  0  0  0  0  0  0  0  0  0  0
    2.0458    0.1121    2.5247 N   0  0  0  0  0  0  0  0  0  0  0  0
    2.6639    1.0726    3.4219 C   0  0  0  0  0  0  0  0  0  0  0  0
    1.8032   -1.2035    3.1203 C   0  0  0  0  0  0  0  0  0  0  0  0
    3.0789   -1.9967    3.4206 C   0  0  0  0  0  0  0  0  0  0  0  0
    2.7968   -3.3328    3.9588 N   0  0  0  0  0  0  0  0  0  0  0  0
    2.3283   -4.2696    2.9525 C   0  0  0  0  0  0  0  0  0  0  0  0
    3.7757   -3.8153    4.8672 C   0  0  0  0  0  0  0  0  0  0  0  0
    4.6699   -4.8430    4.5285 C   0  0  0  0  0  0  0  0  0  0  0  0
    5.6366   -5.2937    5.4298 C   0  0  0  0  0  0  0  0  0  0  0  0
    5.7272   -4.7195    6.6983 C   0  0  0  0  0  0  0  0  0  0  0  0
    4.8295   -3.7163    7.0674 C   0  0  0  0  0  0  0  0  0  0  0  0
    3.8510   -3.2651    6.1733 C   0  0  0  0  0  0  0  0  0  0  0  0
    2.7035   -2.0223    6.7258 S   0  0  0  0  0  0  0  0  0  0  0  0
    3.8151    0.4324    0.8306 C   0  0  0  0  0  0  0  0  0  0  0  0
    4.2514    0.3992   -0.4946 C   0  0  0  0  0  0  0  0  0  0  0  0
    3.3667    0.0253   -1.5080 C   0  0  0  0  0  0  0  0  0  0  0  0
    2.0428   -0.2793   -1.1906 C   0  0  0  0  0  0  0  0  0  0  0  0
   -0.1152    0.0839    1.6498 H   0  0  0  0  0  0  0  0  0  0  0  0
    2.6625    2.0685    2.9557 H   0  0  0  0  0  0  0  0  0  0  0  0
    3.7071    0.8326    3.7094 H   0  0  0  0  0  0  0  0  0  0  0  0
    2.0769    1.1211    4.3519 H   0  0  0  0  0  0  0  0  0  0  0  0
    1.1522   -1.7734    2.4431 H   0  0  0  0  0  0  0  0  0  0  0  0
    1.2400   -1.0587    4.0565 H   0  0  0  0  0  0  0  0  0  0  0  0
    3.6802   -1.4524    4.1600 H   0  0  0  0  0  0  0  0  0  0  0  0
    3.6926   -2.0758    2.4999 H   0  0  0  0  0  0  0  0  0  0  0  0
    2.0805   -5.2315    3.4226 H   0  0  0  0  0  0  0  0  0  0  0  0
    3.0673   -4.4529    2.1445 H   0  0  0  0  0  0  0  0  0  0  0  0
    1.4171   -3.8802    2.4765 H   0  0  0  0  0  0  0  0  0  0  0  0
    4.6216   -5.2849    3.5327 H   0  0  0  0  0  0  0  0  0  0  0  0
    6.3231   -6.0902    5.1333 H   0  0  0  0  0  0  0  0  0  0  0  0
    6.4803   -5.0633    7.4109 H   0  0  0  0  0  0  0  0  0  0  0  0
    4.8641   -3.2933    8.0740 H   0  0  0  0  0  0  0  0  0  0  0  0
    1.7579   -2.3681    5.8173 H   0  0  0  0  0  0  0  0  0  0  0  0
    4.5183    0.7040    1.6190 H   0  0  0  0  0  0  0  0  0  0  0  0
    5.2861    0.6576   -0.7312 H   0  0  0  0  0  0  0  0  0  0  0  0
    3.6971   -0.0084   -2.5485 H   0  0  0  0  0  0  0  0  0  0  0  0
    1.3327   -0.5257   -1.9835 H   0  0  0  0  0  0  0  0  0  0  0  0
  1  2  1  0
  1 21  1  0
  2  3  2  0
  2 20  1  0
  3  4  1  0
  3 17  1  0
  4  5  1  0
  4  6  1  0
  5 22  1  0
  5 23  1  0
  5 24  1  0
  6  7  1  0
  6 25  1  0
  6 26  1  0
  7  8  1  0
  7 27  1  0
  7 28  1  0
  8  9  1  0
  8 10  1  0
  9 29  1  0
  9 30  1  0
  9 31  1  0
 10 11  2  0
 10 15  1  0
 11 12  1  0
 11 32  1  0
 12 13  2  0
 12 33  1  0
 13 14  1  0
 13 34  1  0
 14 15  2  0
 14 35  1  0
 15 16  1  0
 16 36  1  0
 17 18  2  0
 17 37  1  0
 18 19  1  0
 18 38  1  0
 19 20  2  0
 19 39  1  0
 20 40  1  0
M  END

