40

S          0.19290        0.84340        0.04060
C          1.87630        0.27020       -0.01120
C          2.57370       -0.09510        1.16920
N          1.93430        0.03960        2.43040
C          2.33770       -0.89190        3.46770
C          1.81450        1.42240        2.89690
C          0.63130        1.64120        3.84500
N          0.39230        3.06300        4.04700
C         -0.36280        3.69570        2.96550
C         -0.04210        3.46950        5.34200
C         -0.96190        2.71680        6.08610
C         -1.39180        3.13500        7.34690
C         -0.90720        4.33240        7.87820
C          0.01300        5.09380        7.15720
C          0.45640        4.67470        5.89450
S          1.64730        5.66010        5.02440
C          3.87650       -0.60130        1.04160
C          4.49410       -0.71530       -0.20560
C          3.81290       -0.31980       -1.35750
C          2.50690        0.16210       -1.25700
H         -0.05380        0.28470        1.25180
H          2.38750       -1.91000        3.05720
H          1.59370       -0.89230        4.27800
H          3.32150       -0.64860        3.92190
H          1.68820        2.06620        2.01800
H          2.74660        1.75210        3.40120
H          0.84430        1.18700        4.82240
H         -0.25890        1.11880        3.43480
H         -1.42730        3.38450        2.97230
H          0.06380        3.42120        1.99010
H         -0.31880        4.78940        3.06810
H         -1.35660        1.79220        5.65940
H         -2.10950        2.53110        7.90660
H         -1.23650        4.67270        8.86270
H          0.41220        6.01720        7.58300
H          1.93430        4.66120        4.14980
H          4.42480       -0.89370        1.93810
H          5.51180       -1.10680       -0.27210
H          4.28660       -0.40280       -2.33820
H          1.95240        0.43350       -2.15830
