rmsd212.gzmat
 OpenBabel08211713413D

 40 41  0  0  0  0  0  0  0  0999 V2000
    0.0000    0.0000    0.0000 S   0  0  0  0  0  0  0  0  0  0  0  0
    1.7663    0.0000    0.0000 C   0  0  0  0  0  0  0  0  0  0  0  0
    2.5203    0.0000    1.1840 C   0  0  0  0  0  0  0  0  0  0  0  0
    1.7939   -0.0121    2.4261 N   0  0  0  0  0  0  0  0  0  0  0  0
    2.4055    0.8294    3.4735 C   0  0  0  0  0  0  0  0  0  0  0  0
    1.4983   -1.3802    2.9032 C   0  0  0  0  0  0  0  0  0  0  0  0
    2.7281   -2.2323    3.3106 C   0  0  0  0  0  0  0  0  0  0  0  0
    2.7891   -3.5902    2.7283 N   0  0  0  0  0  0  0  0  0  0  0  0
    1.6718   -4.4462    3.1740 C   0  0  0  0  0  0  0  0  0  0  0  0
    2.9655   -3.5768    1.3001 C   0  0  0  0  0  0  0  0  0  0  0  0
    1.8987   -3.6118    0.3942 C   0  0  0  0  0  0  0  0  0  0  0  0
    2.1450   -3.6012   -0.9749 C   0  0  0  0  0  0  0  0  0  0  0  0
    3.4542   -3.5648   -1.4502 C   0  0  0  0  0  0  0  0  0  0  0  0
    4.5215   -3.5584   -0.5561 C   0  0  0  0  0  0  0  0  0  0  0  0
    4.2833   -3.5743    0.8173 C   0  0  0  0  0  0  0  0  0  0  0  0
    5.6877   -3.6049    1.8876 S   0  0  0  0  0  0  0  0  0  0  0  0
    3.9173    0.0584    1.1125 C   0  0  0  0  0  0  0  0  0  0  0  0
    4.5531    0.0726   -0.1247 C   0  0  0  0  0  0  0  0  0  0  0  0
    3.8022    0.0386   -1.2980 C   0  0  0  0  0  0  0  0  0  0  0  0
    2.4114    0.0113   -1.2359 C   0  0  0  0  0  0  0  0  0  0  0  0
   -0.2477    0.4186    1.2541 H   0  0  0  0  0  0  0  0  0  0  0  0
    2.6201    1.8294    3.0574 H   0  0  0  0  0  0  0  0  0  0  0  0
    3.3328    0.4265    3.9065 H   0  0  0  0  0  0  0  0  0  0  0  0
    1.6700    0.9607    4.2861 H   0  0  0  0  0  0  0  0  0  0  0  0
    0.9301   -1.9020    2.0991 H   0  0  0  0  0  0  0  0  0  0  0  0
    0.7980   -1.2829    3.7618 H   0  0  0  0  0  0  0  0  0  0  0  0
    2.7641   -2.3483    4.4164 H   0  0  0  0  0  0  0  0  0  0  0  0
    3.6653   -1.7015    3.0261 H   0  0  0  0  0  0  0  0  0  0  0  0
    1.7431   -5.4286    2.6749 H   0  0  0  0  0  0  0  0  0  0  0  0
    0.6699   -4.0333    2.9862 H   0  0  0  0  0  0  0  0  0  0  0  0
    1.7794   -4.6192    4.2588 H   0  0  0  0  0  0  0  0  0  0  0  0
    0.8716   -3.6375    0.7524 H   0  0  0  0  0  0  0  0  0  0  0  0
    1.3096   -3.6116   -1.6743 H   0  0  0  0  0  0  0  0  0  0  0  0
    3.6449   -3.5451   -2.5213 H   0  0  0  0  0  0  0  0  0  0  0  0
    5.5416   -3.5444   -0.9454 H   0  0  0  0  0  0  0  0  0  0  0  0
    5.1165   -4.0062    3.0373 H   0  0  0  0  0  0  0  0  0  0  0  0
    4.5154    0.0799    2.0212 H   0  0  0  0  0  0  0  0  0  0  0  0
    5.6414    0.1005   -0.1725 H   0  0  0  0  0  0  0  0  0  0  0  0
    4.3022    0.0386   -2.2647 H   0  0  0  0  0  0  0  0  0  0  0  0
    1.8370    0.0034   -2.1644 H   0  0  0  0  0  0  0  0  0  0  0  0
  1  2  1  0  0  0  0
  1 21  1  0  0  0  0
  2  3  2  0  0  0  0
  3  4  1  0  0  0  0
  4  6  1  0  0  0  0
  4  5  1  0  0  0  0
  5 23  1  0  0  0  0
  5 24  1  0  0  0  0
  6  7  1  0  0  0  0
  6 26  1  0  0  0  0
  7 27  1  0  0  0  0
  8  9  1  0  0  0  0
  8  7  1  0  0  0  0
  9 31  1  0  0  0  0
 10  8  1  0  0  0  0
 11 32  1  0  0  0  0
 11 10  2  0  0  0  0
 12 11  1  0  0  0  0
 13 12  2  0  0  0  0
 13 14  1  0  0  0  0
 14 15  2  0  0  0  0
 15 10  1  0  0  0  0
 15 16  1  0  0  0  0
 16 36  1  0  0  0  0
 17  3  1  0  0  0  0
 17 37  1  0  0  0  0
 18 17  2  0  0  0  0
 19 20  2  0  0  0  0
 19 18  1  0  0  0  0
 20  2  1  0  0  0  0
 22  5  1  0  0  0  0
 25  6  1  0  0  0  0
 28  7  1  0  0  0  0
 29  9  1  0  0  0  0
 30  9  1  0  0  0  0
 33 12  1  0  0  0  0
 34 13  1  0  0  0  0
 35 14  1  0  0  0  0
 38 18  1  0  0  0  0
 39 19  1  0  0  0  0
 40 20  1  0  0  0  0
M  END
$$$$
