rmsd224.gzmat
 OpenBabel08211713413D

 40 41  0  0  0  0  0  0  0  0999 V2000
    0.0000    0.0000    0.0000 S   0  0  0  0  0  0  0  0  0  0  0  0
    1.7648    0.0000    0.0000 C   0  0  0  0  0  0  0  0  0  0  0  0
    2.5166    0.0000    1.1855 C   0  0  0  0  0  0  0  0  0  0  0  0
    1.7660    0.0027    2.4175 N   0  0  0  0  0  0  0  0  0  0  0  0
    1.9108   -1.2702    3.1492 C   0  0  0  0  0  0  0  0  0  0  0  0
    1.9934    1.2092    3.2367 C   0  0  0  0  0  0  0  0  0  0  0  0
    3.2677    1.2354    4.1195 C   0  0  0  0  0  0  0  0  0  0  0  0
    3.0416    1.3751    5.5770 N   0  0  0  0  0  0  0  0  0  0  0  0
    2.5146    2.7060    5.9375 C   0  0  0  0  0  0  0  0  0  0  0  0
    2.2798    0.2854    6.1233 C   0  0  0  0  0  0  0  0  0  0  0  0
    0.8863    0.3179    6.2645 C   0  0  0  0  0  0  0  0  0  0  0  0
    0.2107   -0.7800    6.7873 C   0  0  0  0  0  0  0  0  0  0  0  0
    0.9181   -1.9146    7.1796 C   0  0  0  0  0  0  0  0  0  0  0  0
    2.3068   -1.9407    7.0790 C   0  0  0  0  0  0  0  0  0  0  0  0
    2.9928   -0.8416    6.5644 C   0  0  0  0  0  0  0  0  0  0  0  0
    4.7553   -0.9284    6.5126 S   0  0  0  0  0  0  0  0  0  0  0  0
    3.9131   -0.0023    1.1231 C   0  0  0  0  0  0  0  0  0  0  0  0
    4.5543    0.0078   -0.1123 C   0  0  0  0  0  0  0  0  0  0  0  0
    3.8064    0.0082   -1.2882 C   0  0  0  0  0  0  0  0  0  0  0  0
    2.4145    0.0007   -1.2341 C   0  0  0  0  0  0  0  0  0  0  0  0
   -0.2559   -0.0226    1.3224 H   0  0  0  0  0  0  0  0  0  0  0  0
    1.4999   -2.0833    2.5247 H   0  0  0  0  0  0  0  0  0  0  0  0
    1.3194   -1.2268    4.0807 H   0  0  0  0  0  0  0  0  0  0  0  0
    2.9465   -1.5355    3.4140 H   0  0  0  0  0  0  0  0  0  0  0  0
    1.0847    1.3168    3.8741 H   0  0  0  0  0  0  0  0  0  0  0  0
    1.9921    2.0897    2.5551 H   0  0  0  0  0  0  0  0  0  0  0  0
    3.9299    2.0739    3.8084 H   0  0  0  0  0  0  0  0  0  0  0  0
    3.8605    0.3061    3.9606 H   0  0  0  0  0  0  0  0  0  0  0  0
    1.6075    3.0061    5.3924 H   0  0  0  0  0  0  0  0  0  0  0  0
    3.3040    3.4526    5.7378 H   0  0  0  0  0  0  0  0  0  0  0  0
    2.2995    2.7391    7.0191 H   0  0  0  0  0  0  0  0  0  0  0  0
    0.3249    1.1991    5.9617 H   0  0  0  0  0  0  0  0  0  0  0  0
   -0.8738   -0.7515    6.8866 H   0  0  0  0  0  0  0  0  0  0  0  0
    0.3869   -2.7787    7.5753 H   0  0  0  0  0  0  0  0  0  0  0  0
    2.8470   -2.8287    7.4159 H   0  0  0  0  0  0  0  0  0  0  0  0
    5.0638    0.3760    6.3943 H   0  0  0  0  0  0  0  0  0  0  0  0
    4.5030   -0.0151    2.0371 H   0  0  0  0  0  0  0  0  0  0  0  0
    5.6420    0.0129   -0.1590 H   0  0  0  0  0  0  0  0  0  0  0  0
    4.3095    0.0129   -2.2538 H   0  0  0  0  0  0  0  0  0  0  0  0
    1.8450   -0.0050   -2.1660 H   0  0  0  0  0  0  0  0  0  0  0  0
  1  2  1  0  0  0  0
  1 21  1  0  0  0  0
  2  3  2  0  0  0  0
  3  4  1  0  0  0  0
  4  5  1  0  0  0  0
  4  6  1  0  0  0  0
  5 24  1  0  0  0  0
  5 23  1  0  0  0  0
  6 25  1  0  0  0  0
  6  7  1  0  0  0  0
  7  8  1  0  0  0  0
  8  9  1  0  0  0  0
  8 10  1  0  0  0  0
  9 31  1  0  0  0  0
 10 11  2  0  0  0  0
 10 15  1  0  0  0  0
 11 12  1  0  0  0  0
 12 33  1  0  0  0  0
 12 13  2  0  0  0  0
 13 34  1  0  0  0  0
 14 13  1  0  0  0  0
 14 35  1  0  0  0  0
 15 14  2  0  0  0  0
 16 15  1  0  0  0  0
 17  3  1  0  0  0  0
 17 37  1  0  0  0  0
 18 17  2  0  0  0  0
 19 20  2  0  0  0  0
 19 18  1  0  0  0  0
 20  2  1  0  0  0  0
 22  5  1  0  0  0  0
 26  6  1  0  0  0  0
 27  7  1  0  0  0  0
 28  7  1  0  0  0  0
 29  9  1  0  0  0  0
 30  9  1  0  0  0  0
 32 11  1  0  0  0  0
 36 16  1  0  0  0  0
 38 18  1  0  0  0  0
 39 19  1  0  0  0  0
 40 20  1  0  0  0  0
M  END
$$$$
