40
rmsd250.gzmat
S          0.00000        0.00000        0.00000
C          1.76590        0.00000        0.00000
C          2.52040        0.00000        1.18440
N          1.78910        0.00850        2.42400
C          2.34340       -0.92020        3.42760
C          1.57230        1.37500        2.94630
C          2.84290        2.17200        3.33830
N          2.95990        2.56760        4.75920
C          1.94830        3.56840        5.15180
C          3.02920        1.44120        5.64880
C          1.90130        0.86550        6.24790
C          2.04200       -0.22750        7.09690
C          3.30660       -0.74980        7.36020
C          4.43630       -0.16340        6.79510
C          4.30540        0.93600        5.94750
S          5.78560        1.64710        5.30120
C          3.91720       -0.05820        1.11450
C          4.55380       -0.07360       -0.12260
C          3.80310       -0.04340       -1.29610
C          2.41190       -0.01640       -1.23560
H         -0.25090       -0.32200        1.28300
H          2.52580       -1.90250        2.96040
H          1.59090       -1.06210        4.22360
H          3.27810       -0.58400        3.90310
H          0.88500        1.28300        3.81660
H          1.01090        1.94440        2.17020
H          2.90250        3.10510        2.73300
H          3.75380        1.58930        3.07180
H          0.90790        3.28330        4.93620
H          2.17080        4.50800        4.61400
H          2.03600        3.77920        6.23160
H          0.91030        1.26780        6.04870
H          1.16090       -0.67640        7.55430
H          3.41360       -1.61230        8.01590
H          5.42160       -0.57190        7.03170
H          5.32300        2.82610        4.84510
H          4.51260       -0.09440        2.02630
H          5.64110       -0.11020       -0.17140
H          4.30310       -0.05030       -2.26290
H          1.83910       -0.01760       -2.16520
