37
rmsd39.gzmat
N          0.00000        0.00000        0.00000
C          1.35970        0.00000        0.00000
C          2.11140        0.00000        1.18900
C          1.42860       -0.01200        2.40470
C          0.03240       -0.01530        2.41010
C         -0.64460       -0.00700        1.18320
C         -2.13710       -0.01320        1.12450
C          2.18830        0.00270        3.68550
N          1.97640        0.07760       -1.27270
C          3.20610       -0.55980       -1.49990
O          3.76380       -1.17640       -0.62060
C          3.81990       -0.39240       -2.84730
C          4.37200        0.83520       -3.21040
C          4.99300        0.96450       -4.45050
C          5.06290       -0.12870       -5.31370
C          4.51790       -1.35550       -4.93830
C          3.89780       -1.49330       -3.69770
C          1.13380        0.46550       -2.42640
C          0.46070       -0.74220       -3.08290
H          3.19950        0.00060        1.16470
H         -0.52180       -0.02400        3.34050
H         -2.50800        0.08380        0.09060
H         -2.56440        0.81530        1.70600
H         -2.54270       -0.95310        1.52710
H          1.64700       -0.49930        4.49930
H          2.37940        1.03810        4.01000
H          3.16680       -0.49380        3.59490
H          4.32390        1.68260       -2.52670
H          5.42700        1.91830       -4.74370
H          5.54930       -0.02430       -6.28210
H          4.58130       -2.20860       -5.61110
H          3.48890       -2.45600       -3.39040
H          1.76760        1.01290       -3.15890
H          0.35790        1.18800       -2.07390
H          1.18830       -1.43120       -3.52240
H         -0.22530       -0.42450       -3.87500
H         -0.13080       -1.30420       -2.34430
