rmsd55.gzmat
 OpenBabel08211713393D

 37 38  0  0  0  0  0  0  0  0999 V2000
    0.0000    0.0000    0.0000 N   0  0  0  0  0  0  0  0  0  0  0  0
    1.3593    0.0000    0.0000 C   0  0  0  0  0  0  0  0  0  0  0  0
    2.1105    0.0000    1.1902 C   0  0  0  0  0  0  0  0  0  0  0  0
    1.4275   -0.0135    2.4048 C   0  0  0  0  0  0  0  0  0  0  0  0
    0.0303   -0.0201    2.4095 C   0  0  0  0  0  0  0  0  0  0  0  0
   -0.6460   -0.0099    1.1828 C   0  0  0  0  0  0  0  0  0  0  0  0
   -2.1383   -0.0213    1.1207 C   0  0  0  0  0  0  0  0  0  0  0  0
    2.1778   -0.0271    3.6911 C   0  0  0  0  0  0  0  0  0  0  0  0
    1.9735    0.0737   -1.2742 N   0  0  0  0  0  0  0  0  0  0  0  0
    3.2084   -0.5552   -1.4998 C   0  0  0  0  0  0  0  0  0  0  0  0
    3.7791   -1.1521   -0.6155 O   0  0  0  0  0  0  0  0  0  0  0  0
    3.8088   -0.4033   -2.8553 C   0  0  0  0  0  0  0  0  0  0  0  0
    4.3695    0.8165   -3.2321 C   0  0  0  0  0  0  0  0  0  0  0  0
    4.9715    0.9334   -4.4828 C   0  0  0  0  0  0  0  0  0  0  0  0
    5.0142   -0.1643   -5.3422 C   0  0  0  0  0  0  0  0  0  0  0  0
    4.4622   -1.3835   -4.9524 C   0  0  0  0  0  0  0  0  0  0  0  0
    3.8597   -1.5086   -3.7021 C   0  0  0  0  0  0  0  0  0  0  0  0
    1.1229    0.4393   -2.4294 C   0  0  0  0  0  0  0  0  0  0  0  0
    0.4250   -0.7770   -3.0425 C   0  0  0  0  0  0  0  0  0  0  0  0
    3.1987   -0.0003    1.1662 H   0  0  0  0  0  0  0  0  0  0  0  0
   -0.5230   -0.0348    3.3403 H   0  0  0  0  0  0  0  0  0  0  0  0
   -2.5081    0.1475    0.0955 H   0  0  0  0  0  0  0  0  0  0  0  0
   -2.5740    0.7574    1.7611 H   0  0  0  0  0  0  0  0  0  0  0  0
   -2.5356   -0.9932    1.4505 H   0  0  0  0  0  0  0  0  0  0  0  0
    2.1045   -1.0147    4.1743 H   0  0  0  0  0  0  0  0  0  0  0  0
    1.7838    0.7135    4.4017 H   0  0  0  0  0  0  0  0  0  0  0  0
    3.2489    0.1849    3.5601 H   0  0  0  0  0  0  0  0  0  0  0  0
    4.3398    1.6682   -2.5521 H   0  0  0  0  0  0  0  0  0  0  0  0
    5.4113    1.8813   -4.7871 H   0  0  0  0  0  0  0  0  0  0  0  0
    5.4844   -0.0695   -6.3195 H   0  0  0  0  0  0  0  0  0  0  0  0
    4.5053   -2.2406   -5.6225 H   0  0  0  0  0  0  0  0  0  0  0  0
    3.4409   -2.4644   -3.3853 H   0  0  0  0  0  0  0  0  0  0  0  0
    1.7542    0.9571   -3.1855 H   0  0  0  0  0  0  0  0  0  0  0  0
    0.3606    1.1818   -2.0888 H   0  0  0  0  0  0  0  0  0  0  0  0
    1.1383   -1.5174   -3.4176 H   0  0  0  0  0  0  0  0  0  0  0  0
   -0.2205   -0.4796   -3.8752 H   0  0  0  0  0  0  0  0  0  0  0  0
   -0.2126   -1.2744   -2.2949 H   0  0  0  0  0  0  0  0  0  0  0  0
  1  6  2  0  0  0  0
  2  1  2  0  0  0  0
  2  3  1  0  0  0  0
  3  4  1  0  0  0  0
  4  5  2  0  0  0  0
  4  8  1  0  0  0  0
  5 21  1  0  0  0  0
  6  5  1  0  0  0  0
  7  6  1  0  0  0  0
  7 24  1  0  0  0  0
  7 23  1  0  0  0  0
  8 25  1  0  0  0  0
  8 26  1  0  0  0  0
  9  2  1  0  0  0  0
 10  9  1  0  0  0  0
 10 11  2  0  0  0  0
 12 10  1  0  0  0  0
 13 12  1  0  0  0  0
 13 28  1  0  0  0  0
 14 13  2  0  0  0  0
 15 16  2  0  0  0  0
 15 14  1  0  0  0  0
 16 17  1  0  0  0  0
 17 32  1  0  0  0  0
 17 12  2  0  0  0  0
 18 34  1  0  0  0  0
 18  9  1  0  0  0  0
 19 18  1  0  0  0  0
 19 37  1  0  0  0  0
 20  3  1  0  0  0  0
 22  7  1  0  0  0  0
 27  8  1  0  0  0  0
 29 14  1  0  0  0  0
 30 15  1  0  0  0  0
 31 16  1  0  0  0  0
 33 18  1  0  0  0  0
 35 19  1  0  0  0  0
 36 19  1  0  0  0  0
M  RAD  1   3   2
M  END
$$$$
