37
rmsd57.gzmat
N          0.00000        0.00000        0.00000
C          1.36030        0.00000        0.00000
C          2.11010        0.00000        1.18890
C          1.42690       -0.02060        2.40510
C          0.03160       -0.02410        2.41030
C         -0.64490       -0.01110        1.18230
C         -2.13740       -0.02670        1.12220
C          2.19410       -0.02540        3.68130
N          1.97410        0.05930       -1.27570
C          3.19990       -0.58550       -1.49770
O          3.78880       -1.14040       -0.59780
C          3.76780       -0.51600       -2.87390
C          4.36530        0.65970       -3.32520
C          4.92740        0.69360       -4.59950
C          4.89410       -0.44230       -5.40810
C          4.31120       -1.61930       -4.94140
C          3.74870       -1.66130       -3.66730
C          1.13190        0.44770       -2.42940
C          0.41290       -0.74870       -3.05710
H          3.19880        0.00680        1.16840
H         -0.52340       -0.03950        3.34010
H         -2.50860        0.09530        0.09130
H         -2.57310        0.78080        1.72640
H         -2.53340       -0.98230        1.49720
H          1.58250       -0.32170        4.54380
H          2.60140        0.97530        3.89670
H          3.05080       -0.71670        3.63830
H          4.39580        1.54160       -2.68560
H          5.39400        1.60700       -4.96310
H          5.32990       -0.41100       -6.40510
H          4.29900       -2.50770       -5.56940
H          3.30600       -2.58380       -3.29010
H          1.77470        0.96080       -3.17920
H          0.38190        1.20060       -2.08400
H          1.11240       -1.51010       -3.41540
H         -0.20320       -0.43320       -3.90520
H         -0.25430       -1.22700       -2.32370
