rmsd16.gzmat
 OpenBabel08211713393D

 37 38  0  0  0  0  0  0  0  0999 V2000
    0.0000    0.0000    0.0000 N   0  0  0  0  0  0  0  0  0  0  0  0
    1.3598    0.0000    0.0000 C   0  0  0  0  0  0  0  0  0  0  0  0
    2.1125    0.0000    1.1870 C   0  0  0  0  0  0  0  0  0  0  0  0
    1.4303    0.0210    2.4039 C   0  0  0  0  0  0  0  0  0  0  0  0
    0.0348    0.0340    2.4095 C   0  0  0  0  0  0  0  0  0  0  0  0
   -0.6438    0.0161    1.1826 C   0  0  0  0  0  0  0  0  0  0  0  0
   -2.1364    0.0219    1.1255 C   0  0  0  0  0  0  0  0  0  0  0  0
    2.1967    0.0401    3.6804 C   0  0  0  0  0  0  0  0  0  0  0  0
    1.9762   -0.0652   -1.2745 N   0  0  0  0  0  0  0  0  0  0  0  0
    3.1727    0.6283   -1.5073 C   0  0  0  0  0  0  0  0  0  0  0  0
    3.7282    1.2318   -0.6173 O   0  0  0  0  0  0  0  0  0  0  0  0
    3.7519    0.5417   -2.8774 C   0  0  0  0  0  0  0  0  0  0  0  0
    4.4197   -0.6146   -3.2772 C   0  0  0  0  0  0  0  0  0  0  0  0
    4.9934   -0.6678   -4.5454 C   0  0  0  0  0  0  0  0  0  0  0  0
    4.8993    0.4303   -5.4002 C   0  0  0  0  0  0  0  0  0  0  0  0
    4.2437    1.5887   -4.9861 C   0  0  0  0  0  0  0  0  0  0  0  0
    3.6717    1.6511   -3.7167 C   0  0  0  0  0  0  0  0  0  0  0  0
    1.1478   -0.5108   -2.4170 C   0  0  0  0  0  0  0  0  0  0  0  0
    0.3624    0.6381   -3.0532 C   0  0  0  0  0  0  0  0  0  0  0  0
    3.2006   -0.0041    1.1614 H   0  0  0  0  0  0  0  0  0  0  0  0
   -0.5203    0.0573    3.3393 H   0  0  0  0  0  0  0  0  0  0  0  0
   -2.5091   -0.0841    0.0935 H   0  0  0  0  0  0  0  0  0  0  0  0
   -2.5411    0.9647    1.5218 H   0  0  0  0  0  0  0  0  0  0  0  0
   -2.5629   -0.8023    1.7136 H   0  0  0  0  0  0  0  0  0  0  0  0
    1.5881   -0.2522    4.5463 H   0  0  0  0  0  0  0  0  0  0  0  0
    2.5858    1.0526    3.8807 H   0  0  0  0  0  0  0  0  0  0  0  0
    3.0655   -0.6345    3.6487 H   0  0  0  0  0  0  0  0  0  0  0  0
    4.4951   -1.4664   -2.6017 H   0  0  0  0  0  0  0  0  0  0  0  0
    5.5169   -1.5651   -4.8688 H   0  0  0  0  0  0  0  0  0  0  0  0
    5.3447    0.3836   -6.3923 H   0  0  0  0  0  0  0  0  0  0  0  0
    4.1814    2.4466   -5.6524 H   0  0  0  0  0  0  0  0  0  0  0  0
    3.1752    2.5617   -3.3804 H   0  0  0  0  0  0  0  0  0  0  0  0
    0.4417   -1.2971   -2.0547 H   0  0  0  0  0  0  0  0  0  0  0  0
    1.8124   -0.9994   -3.1644 H   0  0  0  0  0  0  0  0  0  0  0  0
   -0.3013    1.1102   -2.3115 H   0  0  0  0  0  0  0  0  0  0  0  0
   -0.2691    0.2762   -3.8708 H   0  0  0  0  0  0  0  0  0  0  0  0
    1.0196    1.4161   -3.4527 H   0  0  0  0  0  0  0  0  0  0  0  0
  1  6  2  0  0  0  0
  2  1  2  0  0  0  0
  2  3  1  0  0  0  0
  3  4  1  0  0  0  0
  4  5  2  0  0  0  0
  4  8  1  0  0  0  0
  5 21  1  0  0  0  0
  6  5  1  0  0  0  0
  7  6  1  0  0  0  0
  7 23  1  0  0  0  0
  7 24  1  0  0  0  0
  8 26  1  0  0  0  0
  8 25  1  0  0  0  0
  9  2  1  0  0  0  0
 10  9  1  0  0  0  0
 10 11  2  0  0  0  0
 12 10  1  0  0  0  0
 13 12  1  0  0  0  0
 13 28  1  0  0  0  0
 14 13  2  0  0  0  0
 15 16  2  0  0  0  0
 15 14  1  0  0  0  0
 16 17  1  0  0  0  0
 17 32  1  0  0  0  0
 17 12  2  0  0  0  0
 18 33  1  0  0  0  0
 18  9  1  0  0  0  0
 19 18  1  0  0  0  0
 19 35  1  0  0  0  0
 20  3  1  0  0  0  0
 22  7  1  0  0  0  0
 27  8  1  0  0  0  0
 29 14  1  0  0  0  0
 30 15  1  0  0  0  0
 31 16  1  0  0  0  0
 34 18  1  0  0  0  0
 36 19  1  0  0  0  0
 37 19  1  0  0  0  0
M  RAD  1   3   2
M  END
$$$$
