37
rmsd63.gzmat
N          0.00000        0.00000        0.00000
C          1.35950        0.00000        0.00000
C          2.11040        0.00000        1.19010
C          1.42710       -0.02100        2.40440
C          0.03010       -0.03170        2.40880
C         -0.64630       -0.01360        1.18240
C         -2.13860       -0.01550        1.12060
C          2.17470       -0.03000        3.69230
N          1.97130        0.06840       -1.27570
C          3.21210       -0.54680       -1.49900
O          3.80910       -1.09930       -0.60290
C          3.78660       -0.44560       -2.87040
C          4.36070        0.75030       -3.29840
C          4.94220        0.81390       -4.56270
C          4.94710       -0.31170       -5.38630
C          4.37980       -1.50680       -4.94620
C          3.80150       -1.57940       -3.68030
C          1.11790        0.43190       -2.42970
C          0.42910       -0.78610       -3.04920
H          3.19870        0.00880        1.16660
H         -0.52260       -0.05190        3.33970
H         -2.50730        0.16130        0.09680
H         -2.56810        0.76320        1.76520
H         -2.54310       -0.98560        1.44540
H          1.96550       -0.94730        4.26450
H          1.89150        0.82160        4.32850
H          3.26450        0.01760        3.55160
H          4.35660        1.62550       -2.64880
H          5.39450        1.74210       -4.90700
H          5.39920       -0.25780       -6.37520
H          4.39230       -2.38540       -5.58890
H          3.37380       -2.51650       -3.32250
H          1.74530        0.95840       -3.18260
H          0.34990        1.16730       -2.08550
H          1.14460       -1.48360       -3.49460
H         -0.27630       -0.48090       -3.82910
H         -0.14680       -1.33490       -2.28810
