rmsd67.gzmat
 OpenBabel08211713393D

 37 38  0  0  0  0  0  0  0  0999 V2000
    0.0000    0.0000    0.0000 N   0  0  0  0  0  0  0  0  0  0  0  0
    1.3598    0.0000    0.0000 C   0  0  0  0  0  0  0  0  0  0  0  0
    2.1119    0.0000    1.1883 C   0  0  0  0  0  0  0  0  0  0  0  0
    1.4301   -0.0208    2.4048 C   0  0  0  0  0  0  0  0  0  0  0  0
    0.0341   -0.0266    2.4103 C   0  0  0  0  0  0  0  0  0  0  0  0
   -0.6439   -0.0118    1.1833 C   0  0  0  0  0  0  0  0  0  0  0  0
   -2.1365   -0.0238    1.1261 C   0  0  0  0  0  0  0  0  0  0  0  0
    2.1946   -0.0203    3.6826 C   0  0  0  0  0  0  0  0  0  0  0  0
    1.9773    0.0701   -1.2731 N   0  0  0  0  0  0  0  0  0  0  0  0
    3.1989   -0.5829   -1.4981 C   0  0  0  0  0  0  0  0  0  0  0  0
    3.7539   -1.1950   -0.6138 O   0  0  0  0  0  0  0  0  0  0  0  0
    3.8068   -0.4380   -2.8508 C   0  0  0  0  0  0  0  0  0  0  0  0
    4.4126    0.7646   -3.2120 C   0  0  0  0  0  0  0  0  0  0  0  0
    5.0256    0.8730   -4.4581 C   0  0  0  0  0  0  0  0  0  0  0  0
    5.0325   -0.2156   -5.3298 C   0  0  0  0  0  0  0  0  0  0  0  0
    4.4326   -1.4176   -4.9568 C   0  0  0  0  0  0  0  0  0  0  0  0
    3.8212   -1.5349   -3.7099 C   0  0  0  0  0  0  0  0  0  0  0  0
    1.1396    0.4695   -2.4261 C   0  0  0  0  0  0  0  0  0  0  0  0
    0.4262   -0.7232   -3.0672 C   0  0  0  0  0  0  0  0  0  0  0  0
    3.2000    0.0055    1.1638 H   0  0  0  0  0  0  0  0  0  0  0  0
   -0.5198   -0.0416    3.3407 H   0  0  0  0  0  0  0  0  0  0  0  0
   -2.5110    0.1532    0.1045 H   0  0  0  0  0  0  0  0  0  0  0  0
   -2.5708    0.7488    1.7748 H   0  0  0  0  0  0  0  0  0  0  0  0
   -2.5307   -0.9990    1.4500 H   0  0  0  0  0  0  0  0  0  0  0  0
    1.6179   -0.4358    4.5201 H   0  0  0  0  0  0  0  0  0  0  0  0
    2.4860    1.0043    3.9626 H   0  0  0  0  0  0  0  0  0  0  0  0
    3.1219   -0.6090    3.6059 H   0  0  0  0  0  0  0  0  0  0  0  0
    4.4110    1.6095   -2.5229 H   0  0  0  0  0  0  0  0  0  0  0  0
    5.5017    1.8069   -4.7499 H   0  0  0  0  0  0  0  0  0  0  0  0
    5.5110   -0.1269   -6.3036 H   0  0  0  0  0  0  0  0  0  0  0  0
    4.4459   -2.2671   -5.6371 H   0  0  0  0  0  0  0  0  0  0  0  0
    3.3673   -2.4784   -3.4053 H   0  0  0  0  0  0  0  0  0  0  0  0
    1.7849    0.9908   -3.1682 H   0  0  0  0  0  0  0  0  0  0  0  0
    0.3872    1.2173   -2.0753 H   0  0  0  0  0  0  0  0  0  0  0  0
    1.1299   -1.4467   -3.4893 H   0  0  0  0  0  0  0  0  0  0  0  0
   -0.2421   -0.3943   -3.8697 H   0  0  0  0  0  0  0  0  0  0  0  0
   -0.1910   -1.2503   -2.3232 H   0  0  0  0  0  0  0  0  0  0  0  0
  1  6  2  0  0  0  0
  2  1  2  0  0  0  0
  2  3  1  0  0  0  0
  3  4  1  0  0  0  0
  4  5  2  0  0  0  0
  4  8  1  0  0  0  0
  5 21  1  0  0  0  0
  6  5  1  0  0  0  0
  7  6  1  0  0  0  0
  7 24  1  0  0  0  0
  7 23  1  0  0  0  0
  8 26  1  0  0  0  0
  8 25  1  0  0  0  0
  9  2  1  0  0  0  0
 10  9  1  0  0  0  0
 10 11  2  0  0  0  0
 12 10  1  0  0  0  0
 13 12  1  0  0  0  0
 13 28  1  0  0  0  0
 14 13  2  0  0  0  0
 15 16  2  0  0  0  0
 15 14  1  0  0  0  0
 16 17  1  0  0  0  0
 17 32  1  0  0  0  0
 17 12  2  0  0  0  0
 18 34  1  0  0  0  0
 18  9  1  0  0  0  0
 19 18  1  0  0  0  0
 19 37  1  0  0  0  0
 20  3  1  0  0  0  0
 22  7  1  0  0  0  0
 27  8  1  0  0  0  0
 29 14  1  0  0  0  0
 30 15  1  0  0  0  0
 31 16  1  0  0  0  0
 33 18  1  0  0  0  0
 35 19  1  0  0  0  0
 36 19  1  0  0  0  0
M  RAD  1   3   2
M  END
$$$$
