rmsd11.gzmat
 OpenBabel08211713393D

 37 38  0  0  0  0  0  0  0  0999 V2000
    0.0000    0.0000    0.0000 N   0  0  0  0  0  0  0  0  0  0  0  0
    1.3598    0.0000    0.0000 C   0  0  0  0  0  0  0  0  0  0  0  0
    2.1107    0.0000    1.1888 C   0  0  0  0  0  0  0  0  0  0  0  0
    1.4281   -0.0330    2.4047 C   0  0  0  0  0  0  0  0  0  0  0  0
    0.0322   -0.0489    2.4093 C   0  0  0  0  0  0  0  0  0  0  0  0
   -0.6450   -0.0210    1.1823 C   0  0  0  0  0  0  0  0  0  0  0  0
   -2.1377   -0.0233    1.1239 C   0  0  0  0  0  0  0  0  0  0  0  0
    2.1855   -0.0326    3.6869 C   0  0  0  0  0  0  0  0  0  0  0  0
    1.9750    0.0573   -1.2765 N   0  0  0  0  0  0  0  0  0  0  0  0
    3.1763   -0.6308   -1.5035 C   0  0  0  0  0  0  0  0  0  0  0  0
    3.7551   -1.1892   -0.5987 O   0  0  0  0  0  0  0  0  0  0  0  0
    3.7346   -0.6116   -2.8855 C   0  0  0  0  0  0  0  0  0  0  0  0
    4.3169    0.5470   -3.3967 C   0  0  0  0  0  0  0  0  0  0  0  0
    4.8842    0.5225   -4.6693 C   0  0  0  0  0  0  0  0  0  0  0  0
    4.8725   -0.6544   -5.4172 C   0  0  0  0  0  0  0  0  0  0  0  0
    4.3003   -1.8128   -4.8932 C   0  0  0  0  0  0  0  0  0  0  0  0
    3.7321   -1.7959   -3.6208 C   0  0  0  0  0  0  0  0  0  0  0  0
    1.1366    0.4675   -2.4250 C   0  0  0  0  0  0  0  0  0  0  0  0
    0.3931   -0.7112   -3.0572 C   0  0  0  0  0  0  0  0  0  0  0  0
    3.1990    0.0125    1.1641 H   0  0  0  0  0  0  0  0  0  0  0  0
   -0.5222   -0.0838    3.3388 H   0  0  0  0  0  0  0  0  0  0  0  0
   -2.5090    0.0180    0.0866 H   0  0  0  0  0  0  0  0  0  0  0  0
   -2.5577    0.8414    1.6565 H   0  0  0  0  0  0  0  0  0  0  0  0
   -2.5490   -0.9355    1.5796 H   0  0  0  0  0  0  0  0  0  0  0  0
    1.6537   -0.5661    4.4871 H   0  0  0  0  0  0  0  0  0  0  0  0
    2.3543    0.9975    4.0386 H   0  0  0  0  0  0  0  0  0  0  0  0
    3.1741   -0.5058    3.5863 H   0  0  0  0  0  0  0  0  0  0  0  0
    4.3311    1.4625   -2.8057 H   0  0  0  0  0  0  0  0  0  0  0  0
    5.3397    1.4224   -5.0777 H   0  0  0  0  0  0  0  0  0  0  0  0
    5.3159   -0.6702   -6.4115 H   0  0  0  0  0  0  0  0  0  0  0  0
    4.3043   -2.7330   -5.4748 H   0  0  0  0  0  0  0  0  0  0  0  0
    3.2998   -2.7035   -3.1978 H   0  0  0  0  0  0  0  0  0  0  0  0
    1.7858    0.9737   -3.1736 H   0  0  0  0  0  0  0  0  0  0  0  0
    0.4028    1.2323   -2.0716 H   0  0  0  0  0  0  0  0  0  0  0  0
    1.0774   -1.4556   -3.4754 H   0  0  0  0  0  0  0  0  0  0  0  0
   -0.2670   -0.3703   -3.8614 H   0  0  0  0  0  0  0  0  0  0  0  0
   -0.2371   -1.2168   -2.3091 H   0  0  0  0  0  0  0  0  0  0  0  0
  1  6  2  0  0  0  0
  2  1  2  0  0  0  0
  2  3  1  0  0  0  0
  3  4  1  0  0  0  0
  4  5  2  0  0  0  0
  4  8  1  0  0  0  0
  5 21  1  0  0  0  0
  6  5  1  0  0  0  0
  7  6  1  0  0  0  0
  7 24  1  0  0  0  0
  7 23  1  0  0  0  0
  8 26  1  0  0  0  0
  8 25  1  0  0  0  0
  9  2  1  0  0  0  0
 10  9  1  0  0  0  0
 10 11  2  0  0  0  0
 12 10  1  0  0  0  0
 13 12  1  0  0  0  0
 13 28  1  0  0  0  0
 14 13  2  0  0  0  0
 15 16  2  0  0  0  0
 15 14  1  0  0  0  0
 16 17  1  0  0  0  0
 17 32  1  0  0  0  0
 17 12  2  0  0  0  0
 18 34  1  0  0  0  0
 18  9  1  0  0  0  0
 19 18  1  0  0  0  0
 19 37  1  0  0  0  0
 20  3  1  0  0  0  0
 22  7  1  0  0  0  0
 27  8  1  0  0  0  0
 29 14  1  0  0  0  0
 30 15  1  0  0  0  0
 31 16  1  0  0  0  0
 33 18  1  0  0  0  0
 35 19  1  0  0  0  0
 36 19  1  0  0  0  0
M  RAD  1   3   2
M  END
$$$$
