rmsd57.gzmat
 OpenBabel08211713393D

 37 38  0  0  0  0  0  0  0  0999 V2000
    0.0000    0.0000    0.0000 N   0  0  0  0  0  0  0  0  0  0  0  0
    1.3603    0.0000    0.0000 C   0  0  0  0  0  0  0  0  0  0  0  0
    2.1101    0.0000    1.1889 C   0  0  0  0  0  0  0  0  0  0  0  0
    1.4269   -0.0206    2.4051 C   0  0  0  0  0  0  0  0  0  0  0  0
    0.0316   -0.0241    2.4103 C   0  0  0  0  0  0  0  0  0  0  0  0
   -0.6449   -0.0111    1.1823 C   0  0  0  0  0  0  0  0  0  0  0  0
   -2.1374   -0.0267    1.1222 C   0  0  0  0  0  0  0  0  0  0  0  0
    2.1941   -0.0254    3.6813 C   0  0  0  0  0  0  0  0  0  0  0  0
    1.9741    0.0593   -1.2757 N   0  0  0  0  0  0  0  0  0  0  0  0
    3.1999   -0.5855   -1.4977 C   0  0  0  0  0  0  0  0  0  0  0  0
    3.7888   -1.1404   -0.5978 O   0  0  0  0  0  0  0  0  0  0  0  0
    3.7678   -0.5160   -2.8739 C   0  0  0  0  0  0  0  0  0  0  0  0
    4.3653    0.6597   -3.3252 C   0  0  0  0  0  0  0  0  0  0  0  0
    4.9274    0.6936   -4.5995 C   0  0  0  0  0  0  0  0  0  0  0  0
    4.8941   -0.4423   -5.4081 C   0  0  0  0  0  0  0  0  0  0  0  0
    4.3112   -1.6193   -4.9414 C   0  0  0  0  0  0  0  0  0  0  0  0
    3.7487   -1.6613   -3.6673 C   0  0  0  0  0  0  0  0  0  0  0  0
    1.1319    0.4477   -2.4294 C   0  0  0  0  0  0  0  0  0  0  0  0
    0.4129   -0.7487   -3.0571 C   0  0  0  0  0  0  0  0  0  0  0  0
    3.1988    0.0068    1.1684 H   0  0  0  0  0  0  0  0  0  0  0  0
   -0.5234   -0.0395    3.3401 H   0  0  0  0  0  0  0  0  0  0  0  0
   -2.5086    0.0953    0.0913 H   0  0  0  0  0  0  0  0  0  0  0  0
   -2.5731    0.7808    1.7264 H   0  0  0  0  0  0  0  0  0  0  0  0
   -2.5334   -0.9823    1.4972 H   0  0  0  0  0  0  0  0  0  0  0  0
    1.5825   -0.3217    4.5438 H   0  0  0  0  0  0  0  0  0  0  0  0
    2.6014    0.9753    3.8967 H   0  0  0  0  0  0  0  0  0  0  0  0
    3.0508   -0.7167    3.6383 H   0  0  0  0  0  0  0  0  0  0  0  0
    4.3958    1.5416   -2.6856 H   0  0  0  0  0  0  0  0  0  0  0  0
    5.3940    1.6070   -4.9631 H   0  0  0  0  0  0  0  0  0  0  0  0
    5.3299   -0.4110   -6.4051 H   0  0  0  0  0  0  0  0  0  0  0  0
    4.2990   -2.5077   -5.5694 H   0  0  0  0  0  0  0  0  0  0  0  0
    3.3060   -2.5838   -3.2901 H   0  0  0  0  0  0  0  0  0  0  0  0
    1.7747    0.9608   -3.1792 H   0  0  0  0  0  0  0  0  0  0  0  0
    0.3819    1.2006   -2.0840 H   0  0  0  0  0  0  0  0  0  0  0  0
    1.1124   -1.5101   -3.4154 H   0  0  0  0  0  0  0  0  0  0  0  0
   -0.2032   -0.4332   -3.9052 H   0  0  0  0  0  0  0  0  0  0  0  0
   -0.2543   -1.2270   -2.3237 H   0  0  0  0  0  0  0  0  0  0  0  0
  1  6  2  0  0  0  0
  2  1  2  0  0  0  0
  2  3  1  0  0  0  0
  3  4  1  0  0  0  0
  4  5  2  0  0  0  0
  4  8  1  0  0  0  0
  5 21  1  0  0  0  0
  6  5  1  0  0  0  0
  7  6  1  0  0  0  0
  7 24  1  0  0  0  0
  7 23  1  0  0  0  0
  8 26  1  0  0  0  0
  8 25  1  0  0  0  0
  9  2  1  0  0  0  0
 10  9  1  0  0  0  0
 10 11  2  0  0  0  0
 12 10  1  0  0  0  0
 13 12  1  0  0  0  0
 13 28  1  0  0  0  0
 14 13  2  0  0  0  0
 15 16  2  0  0  0  0
 15 14  1  0  0  0  0
 16 17  1  0  0  0  0
 17 32  1  0  0  0  0
 17 12  2  0  0  0  0
 18 34  1  0  0  0  0
 18  9  1  0  0  0  0
 19 18  1  0  0  0  0
 19 37  1  0  0  0  0
 20  3  1  0  0  0  0
 22  7  1  0  0  0  0
 27  8  1  0  0  0  0
 29 14  1  0  0  0  0
 30 15  1  0  0  0  0
 31 16  1  0  0  0  0
 33 18  1  0  0  0  0
 35 19  1  0  0  0  0
 36 19  1  0  0  0  0
M  RAD  1   3   2
M  END
$$$$
