rmsd54.gzmat
 OpenBabel08211713393D

 37 38  0  0  0  0  0  0  0  0999 V2000
    0.0000    0.0000    0.0000 N   0  0  0  0  0  0  0  0  0  0  0  0
    1.3604    0.0000    0.0000 C   0  0  0  0  0  0  0  0  0  0  0  0
    2.1103    0.0000    1.1894 C   0  0  0  0  0  0  0  0  0  0  0  0
    1.4259   -0.0158    2.4047 C   0  0  0  0  0  0  0  0  0  0  0  0
    0.0297   -0.0186    2.4089 C   0  0  0  0  0  0  0  0  0  0  0  0
   -0.6465   -0.0083    1.1812 C   0  0  0  0  0  0  0  0  0  0  0  0
   -2.1391   -0.0209    1.1181 C   0  0  0  0  0  0  0  0  0  0  0  0
    2.1837   -0.0132    3.6867 C   0  0  0  0  0  0  0  0  0  0  0  0
    1.9679    0.0641   -1.2778 N   0  0  0  0  0  0  0  0  0  0  0  0
    3.2055   -0.5542   -1.5090 C   0  0  0  0  0  0  0  0  0  0  0  0
    3.8175   -1.0916   -0.6141 O   0  0  0  0  0  0  0  0  0  0  0  0
    3.7519   -0.4721   -2.8933 C   0  0  0  0  0  0  0  0  0  0  0  0
    4.3299    0.7143   -3.3422 C   0  0  0  0  0  0  0  0  0  0  0  0
    4.8599    0.7710   -4.6290 C   0  0  0  0  0  0  0  0  0  0  0  0
    4.8116   -0.3527   -5.4535 C   0  0  0  0  0  0  0  0  0  0  0  0
    4.2499   -1.5410   -4.9891 C   0  0  0  0  0  0  0  0  0  0  0  0
    3.7236   -1.6074   -3.7002 C   0  0  0  0  0  0  0  0  0  0  0  0
    1.1127    0.4440   -2.4255 C   0  0  0  0  0  0  0  0  0  0  0  0
    0.3901   -0.7583   -3.0376 C   0  0  0  0  0  0  0  0  0  0  0  0
    3.1988    0.0039    1.1676 H   0  0  0  0  0  0  0  0  0  0  0  0
   -0.5269   -0.0302    3.3378 H   0  0  0  0  0  0  0  0  0  0  0  0
   -2.5086    0.1240    0.0894 H   0  0  0  0  0  0  0  0  0  0  0  0
   -2.5749    0.7735    1.7392 H   0  0  0  0  0  0  0  0  0  0  0  0
   -2.5364   -0.9843    1.4711 H   0  0  0  0  0  0  0  0  0  0  0  0
    1.6464   -0.5355    4.4904 H   0  0  0  0  0  0  0  0  0  0  0  0
    2.3632    1.0176    4.0309 H   0  0  0  0  0  0  0  0  0  0  0  0
    3.1679   -0.4971    3.5898 H   0  0  0  0  0  0  0  0  0  0  0  0
    4.3681    1.5876   -2.6916 H   0  0  0  0  0  0  0  0  0  0  0  0
    5.3122    1.6926   -4.9897 H   0  0  0  0  0  0  0  0  0  0  0  0
    5.2185   -0.3028   -6.4618 H   0  0  0  0  0  0  0  0  0  0  0  0
    4.2231   -2.4190   -5.6316 H   0  0  0  0  0  0  0  0  0  0  0  0
    3.3010   -2.5398   -3.3245 H   0  0  0  0  0  0  0  0  0  0  0  0
    1.7443    0.9551   -3.1858 H   0  0  0  0  0  0  0  0  0  0  0  0
    0.3650    1.1972   -2.0759 H   0  0  0  0  0  0  0  0  0  0  0  0
    1.0863   -1.4863   -3.4644 H   0  0  0  0  0  0  0  0  0  0  0  0
   -0.2934   -0.4393   -3.8314 H   0  0  0  0  0  0  0  0  0  0  0  0
   -0.2128   -1.2763   -2.2759 H   0  0  0  0  0  0  0  0  0  0  0  0
  1  6  2  0  0  0  0
  2  1  2  0  0  0  0
  2  3  1  0  0  0  0
  3  4  1  0  0  0  0
  4  5  2  0  0  0  0
  4  8  1  0  0  0  0
  5 21  1  0  0  0  0
  6  5  1  0  0  0  0
  7  6  1  0  0  0  0
  7 24  1  0  0  0  0
  7 23  1  0  0  0  0
  8 26  1  0  0  0  0
  8 25  1  0  0  0  0
  9  2  1  0  0  0  0
 10  9  1  0  0  0  0
 10 11  2  0  0  0  0
 12 10  1  0  0  0  0
 13 12  1  0  0  0  0
 13 28  1  0  0  0  0
 14 13  2  0  0  0  0
 15 16  2  0  0  0  0
 15 14  1  0  0  0  0
 16 17  1  0  0  0  0
 17 32  1  0  0  0  0
 17 12  2  0  0  0  0
 18 34  1  0  0  0  0
 18  9  1  0  0  0  0
 19 18  1  0  0  0  0
 19 37  1  0  0  0  0
 20  3  1  0  0  0  0
 22  7  1  0  0  0  0
 27  8  1  0  0  0  0
 29 14  1  0  0  0  0
 30 15  1  0  0  0  0
 31 16  1  0  0  0  0
 33 18  1  0  0  0  0
 35 19  1  0  0  0  0
 36 19  1  0  0  0  0
M  RAD  1   3   2
M  END
$$$$
