41
rmsd172.gzmat
S          0.00000        0.00000        0.00000
O          1.43340        0.00000        0.00000
O         -0.73810        0.00000       -1.23530
N         -0.60950        1.45390        0.79040
C         -0.59300        1.63720        2.15330
O          0.05630        0.97000        2.93180
N         -1.39510        2.67940        2.72800
C         -2.52040        3.25830        2.18080
N         -3.26770        4.04650        3.01880
C         -4.38430        4.58510        2.45760
N         -4.79350        4.38180        1.17080
C         -3.99310        3.60200        0.40630
N         -2.84700        3.04170        0.87090
C         -4.40660        3.35930       -1.03000
C         -3.44440        4.11390       -1.95140
C         -4.39970        1.85950       -1.32690
O         -5.19690        5.37450        3.16440
C         -4.79890        5.62760        4.52130
C         -0.57350       -1.30220        1.03840
C         -1.87830       -1.41300        1.50700
Cl        -3.04450       -0.20390        1.17000
C         -2.30180       -2.47980        2.29030
C         -1.37840       -3.46650        2.63200
C         -0.05820       -3.36790        2.19540
C          0.34230       -2.29150        1.40490
H         -1.24290        2.06090        0.23120
H         -1.21980        2.86680        3.72630
H         -5.44690        3.76370       -1.16950
H         -2.42170        3.72020       -1.87380
H         -3.40990        5.18360       -1.71400
H         -3.75260        4.01680       -2.99920
H         -3.38150        1.44030       -1.28780
H         -4.78900        1.65510       -2.33060
H         -5.01250        1.29880       -0.61280
H         -5.62510        6.25940        4.87230
H         -3.84180        6.15940        4.54890
H         -4.73380        4.69430        5.09120
H         -3.33190       -2.54740        2.64080
H         -1.68980       -4.31120        3.24720
H          0.66590       -4.13070        2.47880
H          1.39300       -2.23060        1.08750
