41

S          0.09090        0.04270        0.18270
O          1.55190        0.04790        0.21000
O         -0.64060        0.04830       -1.07490
N         -0.31530        1.39940        1.09920
C         -1.55990        1.63060        1.64120
O         -2.58000        1.05930        1.33520
N         -1.55930        2.61950        2.64570
C         -0.51670        3.23020        3.30370
N          0.73680        3.01160        2.88780
C          1.69480        3.60470        3.60690
N          1.47300        4.39450        4.65480
C          0.18770        4.57450        4.97730
N         -0.84570        4.00980        4.33800
C         -0.11240        5.47600        6.15150
C          0.50710        4.90150        7.43390
C          0.39180        6.89910        5.87030
O          2.95740        3.40660        3.27350
C          3.25020        2.56940        2.14930
C         -0.53780       -1.32720        1.16090
C         -0.13230       -1.57990        2.47950
Cl         0.95560       -0.52000        3.34050
C         -0.63820       -2.69030        3.15910
C         -1.54340       -3.54170        2.52280
C         -1.95790       -3.28370        1.21410
C         -1.45770       -2.17280        0.53640
H          0.47950        1.87900        1.55940
H         -2.47860        2.81100        3.03340
H         -1.20800        5.49070        6.25110
H          1.60070        4.83350        7.33230
H          0.11880        3.89390        7.65030
H          0.27380        5.54920        8.29310
H          1.48180        6.89520        5.71900
H          0.15750        7.56080        6.71850
H         -0.07880        7.32060        4.96830
H          4.34360        2.54520        2.07750
H          2.82300        2.98780        1.22590
H          2.85770        1.55210        2.28930
H         -0.31830       -2.87400        4.18550
H         -1.93190       -4.40810        3.06250
H         -2.67590       -3.94200        0.72160
H         -1.77170       -1.93180       -0.47940
