41
rmsd17.gzmat
S          0.00000        0.00000        0.00000
O          1.44040        0.00000        0.00000
O         -0.73600        0.00000       -1.22980
N         -0.35100        1.45480        0.93040
C         -1.51990        1.65200        1.63060
O         -2.53610        1.00990        1.46880
N         -1.56280        2.67720        2.63170
C         -0.49550        3.20840        3.32550
N          0.78870        2.95180        2.92870
C          1.76550        3.49700        3.70460
N          1.54270        4.29060        4.78710
C          0.24200        4.51820        5.10220
N         -0.79910        3.99030        4.40820
C         -0.09710        5.40680        6.28110
C          0.78510        5.05180        7.47770
C          0.10030        6.86300        5.84910
O          3.05290        3.26790        3.44070
C          3.32920        2.43850        2.29940
C         -0.59670       -1.30220        1.02370
C         -0.32600       -1.42140        2.38240
Cl         0.55930       -0.21510        3.21780
C         -0.77570       -2.49460        3.14200
C         -1.53990       -3.48070        2.52030
C         -1.84820       -3.37270        1.16520
C         -1.38300       -2.28870        0.42250
H          0.46560        2.04010        1.18930
H         -2.50150        2.89110        3.00230
H         -1.17600        5.24420        6.55080
H          1.85020        5.21050        7.24770
H          0.67660        3.99930        7.76450
H          0.53570        5.66540        8.34960
H          1.13520        7.05160        5.53100
H         -0.11920        7.54890        6.67540
H         -0.55950        7.12740        5.01370
H          4.42610        2.40580        2.32370
H          2.96340        2.90410        1.37920
H          2.90120        1.43670        2.42320
H         -0.54550       -2.56860        4.20520
H         -1.90090       -4.33210        3.09810
H         -2.46020       -4.13480        0.68450
H         -1.65660       -2.21930       -0.64000
