rmsd17.gzmat
 OpenBabel08211713413D

 41 42  0  0  0  0  0  0  0  0999 V2000
    0.0000    0.0000    0.0000 S   0  0  0  0  0  0  0  0  0  0  0  0
    1.4404    0.0000    0.0000 O   0  0  0  0  0  0  0  0  0  0  0  0
   -0.7360    0.0000   -1.2298 O   0  0  0  0  0  0  0  0  0  0  0  0
   -0.3510    1.4548    0.9304 N   0  0  0  0  0  0  0  0  0  0  0  0
   -1.5199    1.6520    1.6306 C   0  0  0  0  0  0  0  0  0  0  0  0
   -2.5361    1.0099    1.4688 O   0  0  0  0  0  0  0  0  0  0  0  0
   -1.5628    2.6772    2.6317 N   0  0  0  0  0  0  0  0  0  0  0  0
   -0.4955    3.2084    3.3255 C   0  0  0  0  0  0  0  0  0  0  0  0
    0.7887    2.9518    2.9287 N   0  0  0  0  0  0  0  0  0  0  0  0
    1.7655    3.4970    3.7046 C   0  0  0  0  0  0  0  0  0  0  0  0
    1.5427    4.2906    4.7871 N   0  0  0  0  0  0  0  0  0  0  0  0
    0.2420    4.5182    5.1022 C   0  0  0  0  0  0  0  0  0  0  0  0
   -0.7991    3.9903    4.4082 N   0  0  0  0  0  0  0  0  0  0  0  0
   -0.0971    5.4068    6.2811 C   0  0  0  0  0  0  0  0  0  0  0  0
    0.7851    5.0518    7.4777 C   0  0  0  0  0  0  0  0  0  0  0  0
    0.1003    6.8630    5.8491 C   0  0  0  0  0  0  0  0  0  0  0  0
    3.0529    3.2679    3.4407 O   0  0  0  0  0  0  0  0  0  0  0  0
    3.3292    2.4385    2.2994 C   0  0  0  0  0  0  0  0  0  0  0  0
   -0.5967   -1.3022    1.0237 C   0  0  0  0  0  0  0  0  0  0  0  0
   -0.3260   -1.4214    2.3824 C   0  0  0  0  0  0  0  0  0  0  0  0
    0.5593   -0.2151    3.2178 Cl  0  0  0  0  0  0  0  0  0  0  0  0
   -0.7757   -2.4946    3.1420 C   0  0  0  0  0  0  0  0  0  0  0  0
   -1.5399   -3.4807    2.5203 C   0  0  0  0  0  0  0  0  0  0  0  0
   -1.8482   -3.3727    1.1652 C   0  0  0  0  0  0  0  0  0  0  0  0
   -1.3830   -2.2887    0.4225 C   0  0  0  0  0  0  0  0  0  0  0  0
    0.4656    2.0401    1.1893 H   0  0  0  0  0  0  0  0  0  0  0  0
   -2.5015    2.8911    3.0023 H   0  0  0  0  0  0  0  0  0  0  0  0
   -1.1760    5.2442    6.5508 H   0  0  0  0  0  0  0  0  0  0  0  0
    1.8502    5.2105    7.2477 H   0  0  0  0  0  0  0  0  0  0  0  0
    0.6766    3.9993    7.7645 H   0  0  0  0  0  0  0  0  0  0  0  0
    0.5357    5.6654    8.3496 H   0  0  0  0  0  0  0  0  0  0  0  0
    1.1352    7.0516    5.5310 H   0  0  0  0  0  0  0  0  0  0  0  0
   -0.1192    7.5489    6.6754 H   0  0  0  0  0  0  0  0  0  0  0  0
   -0.5595    7.1274    5.0137 H   0  0  0  0  0  0  0  0  0  0  0  0
    4.4261    2.4058    2.3237 H   0  0  0  0  0  0  0  0  0  0  0  0
    2.9634    2.9041    1.3792 H   0  0  0  0  0  0  0  0  0  0  0  0
    2.9012    1.4367    2.4232 H   0  0  0  0  0  0  0  0  0  0  0  0
   -0.5455   -2.5686    4.2052 H   0  0  0  0  0  0  0  0  0  0  0  0
   -1.9009   -4.3321    3.0981 H   0  0  0  0  0  0  0  0  0  0  0  0
   -2.4602   -4.1348    0.6845 H   0  0  0  0  0  0  0  0  0  0  0  0
   -1.6566   -2.2193   -0.6400 H   0  0  0  0  0  0  0  0  0  0  0  0
  1  2  2  0  0  0  0
  1  4  1  0  0  0  0
  1 19  1  0  0  0  0
  3  1  2  0  0  0  0
  4 26  1  0  0  0  0
  4  5  1  0  0  0  0
  5  7  1  0  0  0  0
  6  5  2  0  0  0  0
  7 27  1  0  0  0  0
  7  8  1  0  0  0  0
  8 13  2  0  0  0  0
  9  8  2  0  0  0  0
  9 10  2  0  0  0  0
 10 11  2  0  0  0  0
 11 12  2  0  0  0  0
 12 14  1  0  0  0  0
 13 12  2  0  0  0  0
 14 28  1  0  0  0  0
 14 15  1  0  0  0  0
 15 30  1  0  0  0  0
 15 31  1  0  0  0  0
 16 14  1  0  0  0  0
 16 33  1  0  0  0  0
 17 10  1  0  0  0  0
 18 35  1  0  0  0  0
 18 37  1  0  0  0  0
 18 17  1  0  0  0  0
 19 20  1  0  0  0  0
 20 22  2  0  0  0  0
 20 21  1  0  0  0  0
 22 38  1  0  0  0  0
 23 39  1  0  0  0  0
 23 22  1  0  0  0  0
 24 23  2  0  0  0  0
 25 19  2  0  0  0  0
 25 24  1  0  0  0  0
 29 15  1  0  0  0  0
 32 16  1  0  0  0  0
 34 16  1  0  0  0  0
 36 18  1  0  0  0  0
 40 24  1  0  0  0  0
 41 25  1  0  0  0  0
M  END
$$$$
