41
rmsd221.gzmat
S          0.00000        0.00000        0.00000
O          1.43910        0.00000        0.00000
O         -0.73520        0.00000       -1.23050
N         -0.36310        1.45240        0.93240
C         -1.52620        1.61940        1.64740
O         -2.53470        0.96370        1.48820
N         -1.57780        2.62240        2.67310
C         -0.50790        3.15210        3.36400
N         -0.80570        3.86000        4.50040
C          0.27250        4.34940        5.17150
N          1.57580        4.16880        4.80580
C          1.78290        3.46890        3.66580
N          0.76940        2.96630        2.91460
C          3.21170        3.25280        3.21410
C          3.45270        1.76860        2.93670
C          3.46010        4.10110        1.96390
O          0.11920        5.06390        6.28930
C         -1.23690        5.28000        6.71200
C         -0.60170       -1.30190        1.02340
C         -0.34110       -1.41700        2.38470
Cl         0.55610       -0.21810        3.21780
C         -0.81240       -2.47870        3.14720
C         -1.58490       -3.45820        2.52520
C         -1.87800       -3.35730        1.16610
C         -1.39160       -2.28450        0.42090
H          0.44470        2.05850        1.18330
H         -2.51310        2.79400        3.07050
H          3.89790        3.59420        4.03740
H          2.82960        1.39960        2.10610
H          3.23300        1.14920        3.81310
H          4.49530        1.58460        2.65370
H          2.79030        3.81210        1.14230
H          4.48830        3.97280        1.60460
H          3.30790        5.16880        2.16170
H         -1.08470        5.87330        7.62270
H         -1.73260        4.32740        6.92810
H         -1.79610        5.83890        5.95380
H         -0.59480       -2.54740        4.21310
H         -1.96590       -4.29870        3.10590
H         -2.49500       -4.11510        0.68520
H         -1.65210       -2.21990       -0.64510
