41

S         -0.29080       -0.03740       -0.00710
O          1.16160        0.00050       -0.09480
O         -1.11990       -0.09210       -1.20790
N         -0.85810        1.33290        0.79780
C         -0.59590        1.61970        2.11570
O          0.22170        1.06580        2.81350
N         -1.40500        2.64970        2.64040
C         -2.49600        3.29120        2.10410
N         -3.13040        4.14880        2.91400
C         -4.18850        4.74500        2.36810
N         -4.64450        4.54850        1.12160
C         -3.94770        3.68330        0.39430
N         -2.85960        3.03470        0.84530
C         -4.36410        3.41950       -1.03190
C         -3.33260        4.03450       -1.99270
C         -4.55030        1.91960       -1.30100
O         -4.88150        5.61370        3.08660
C         -4.46110        5.87980        4.42300
C         -0.72170       -1.38180        1.10520
C         -2.03730       -1.65020        1.51030
Cl        -3.37560       -0.63540        1.04150
C         -2.29530       -2.73970        2.34570
C         -1.24450       -3.55420        2.77110
C          0.06760       -3.27990        2.37790
C          0.32770       -2.18980        1.54890
H         -1.67350        1.81720        0.37190
H         -1.19970        2.87470        3.60910
H         -5.32500        3.93980       -1.15900
H         -2.35220        3.54780       -1.87210
H         -3.20990        5.11400       -1.81440
H         -3.65640        3.89360       -3.03530
H         -3.59800        1.37270       -1.23270
H         -4.94910        1.77080       -2.31620
H         -5.25940        1.46710       -0.59030
H         -5.17030        6.61830        4.81570
H         -3.43820        6.28420        4.44000
H         -4.48510        4.96400        5.03200
H         -3.32220       -2.93630        2.65660
H         -1.45730       -4.40470        3.42260
H          0.89060       -3.90940        2.72130
H          1.34090       -1.93600        1.23630
