rmsd229.gzmat
 OpenBabel08211713413D

 41 42  0  0  0  0  0  0  0  0999 V2000
    0.0000    0.0000    0.0000 S   0  0  0  0  0  0  0  0  0  0  0  0
    1.4338    0.0000    0.0000 O   0  0  0  0  0  0  0  0  0  0  0  0
   -0.7356    0.0000   -1.2363 O   0  0  0  0  0  0  0  0  0  0  0  0
   -0.6018    1.4581    0.7890 N   0  0  0  0  0  0  0  0  0  0  0  0
   -0.6060    1.6308    2.1536 C   0  0  0  0  0  0  0  0  0  0  0  0
    0.0032    0.9334    2.9383 O   0  0  0  0  0  0  0  0  0  0  0  0
   -1.3753    2.7012    2.7198 N   0  0  0  0  0  0  0  0  0  0  0  0
   -2.4746    3.3183    2.1621 C   0  0  0  0  0  0  0  0  0  0  0  0
   -3.1740    4.1677    2.9814 N   0  0  0  0  0  0  0  0  0  0  0  0
   -4.2629    4.7507    2.4107 C   0  0  0  0  0  0  0  0  0  0  0  0
   -4.6909    4.5332    1.1322 N   0  0  0  0  0  0  0  0  0  0  0  0
   -3.9430    3.6840    0.3893 C   0  0  0  0  0  0  0  0  0  0  0  0
   -2.8242    3.0770    0.8624 N   0  0  0  0  0  0  0  0  0  0  0  0
   -4.3989    3.3993   -1.0262 C   0  0  0  0  0  0  0  0  0  0  0  0
   -3.2807    3.7496   -2.0091 C   0  0  0  0  0  0  0  0  0  0  0  0
   -4.7875    1.9224   -1.1303 C   0  0  0  0  0  0  0  0  0  0  0  0
   -5.0265    5.6030    3.0987 O   0  0  0  0  0  0  0  0  0  0  0  0
   -4.6022    5.8777    4.4433 C   0  0  0  0  0  0  0  0  0  0  0  0
   -0.5671   -1.3077    1.0350 C   0  0  0  0  0  0  0  0  0  0  0  0
   -1.8570   -1.4108    1.5437 C   0  0  0  0  0  0  0  0  0  0  0  0
   -3.0217   -0.1860    1.2591 Cl  0  0  0  0  0  0  0  0  0  0  0  0
   -2.2666   -2.4833    2.3270 C   0  0  0  0  0  0  0  0  0  0  0  0
   -1.3454   -3.4866    2.6231 C   0  0  0  0  0  0  0  0  0  0  0  0
   -0.0403   -3.3990    2.1412 C   0  0  0  0  0  0  0  0  0  0  0  0
    0.3473   -2.3141    1.3566 C   0  0  0  0  0  0  0  0  0  0  0  0
   -1.2166    2.0780    0.2250 H   0  0  0  0  0  0  0  0  0  0  0  0
   -1.1975    2.8892    3.7175 H   0  0  0  0  0  0  0  0  0  0  0  0
   -5.2995    4.0377   -1.2417 H   0  0  0  0  0  0  0  0  0  0  0  0
   -2.3995    3.1080   -1.8620 H   0  0  0  0  0  0  0  0  0  0  0  0
   -2.9552    4.7903   -1.9022 H   0  0  0  0  0  0  0  0  0  0  0  0
   -3.6128    3.6088   -3.0446 H   0  0  0  0  0  0  0  0  0  0  0  0
   -3.9082    1.2682   -1.0383 H   0  0  0  0  0  0  0  0  0  0  0  0
   -5.2477    1.7058   -2.1010 H   0  0  0  0  0  0  0  0  0  0  0  0
   -5.5026    1.6326   -0.3525 H   0  0  0  0  0  0  0  0  0  0  0  0
   -5.4053    6.5404    4.7904 H   0  0  0  0  0  0  0  0  0  0  0  0
   -3.6312    6.3844    4.4416 H   0  0  0  0  0  0  0  0  0  0  0  0
   -4.5531    4.9580    5.0366 H   0  0  0  0  0  0  0  0  0  0  0  0
   -3.2844   -2.5421    2.7132 H   0  0  0  0  0  0  0  0  0  0  0  0
   -1.6455   -4.3360    3.2372 H   0  0  0  0  0  0  0  0  0  0  0  0
    0.6821   -4.1775    2.3835 H   0  0  0  0  0  0  0  0  0  0  0  0
    1.3884   -2.2601    1.0075 H   0  0  0  0  0  0  0  0  0  0  0  0
  1  4  1  0  0  0  0
  1 19  1  0  0  0  0
  2  1  2  0  0  0  0
  3  1  2  0  0  0  0
  4  5  1  0  0  0  0
  5  7  1  0  0  0  0
  5  6  2  0  0  0  0
  7 27  1  0  0  0  0
  8  7  1  0  0  0  0
  8  9  2  0  0  0  0
 10  9  2  0  0  0  0
 10 17  1  0  0  0  0
 11 10  2  0  0  0  0
 12 13  2  0  0  0  0
 12 11  2  0  0  0  0
 13  8  2  0  0  0  0
 14 12  1  0  0  0  0
 15 30  1  0  0  0  0
 15 29  1  0  0  0  0
 15 14  1  0  0  0  0
 16 32  1  0  0  0  0
 16 14  1  0  0  0  0
 16 34  1  0  0  0  0
 17 18  1  0  0  0  0
 18 35  1  0  0  0  0
 18 37  1  0  0  0  0
 19 25  2  0  0  0  0
 19 20  1  0  0  0  0
 20 22  2  0  0  0  0
 21 20  1  0  0  0  0
 22 23  1  0  0  0  0
 22 38  1  0  0  0  0
 23 39  1  0  0  0  0
 24 40  1  0  0  0  0
 24 23  2  0  0  0  0
 25 24  1  0  0  0  0
 26  4  1  0  0  0  0
 28 14  1  0  0  0  0
 31 15  1  0  0  0  0
 33 16  1  0  0  0  0
 36 18  1  0  0  0  0
 41 25  1  0  0  0  0
M  END
$$$$
