41
rmsd153.gzmat
S          0.00000        0.00000        0.00000
O          1.43880        0.00000        0.00000
O         -0.73480        0.00000       -1.23060
N         -0.36790        1.44990        0.93400
C         -1.54830        1.62290        1.61900
O         -2.55470        0.97010        1.43570
N         -1.62440        2.62960        2.63850
C         -0.57520        3.16060        3.35940
N         -0.91280        3.88600        4.47370
C          0.13980        4.38090        5.17900
N          1.45480        4.19250        4.86320
C          1.70210        3.47510        3.74220
N          0.71710        2.96150        2.96080
C          3.14870        3.24160        3.36090
C          3.43690        1.73890        3.37540
C          3.41240        3.84520        1.98020
O         -0.05340        5.10800        6.28210
C         -1.42400        5.33630        6.64790
C         -0.59850       -1.30660        1.02050
C         -0.36050       -1.41290        2.38630
Cl         0.50290       -0.20000        3.23490
C         -0.82590       -2.48040        3.14490
C         -1.56700       -3.47730        2.51290
C         -1.83460       -3.38740        1.14770
C         -1.35720       -2.30700        0.40730
H          0.43750        2.04820        1.20690
H         -2.57130        2.80820        3.00540
H          3.80080        3.75260        4.12210
H          2.91910        1.21910        2.55440
H          3.12370        1.27050        4.31510
H          4.50850        1.54520        3.25140
H          2.78790        3.37370        1.20810
H          4.45760        3.69870        1.68300
H          3.20800        4.92150        1.96240
H         -1.30400        5.93870        7.55790
H         -1.93560        4.38920        6.85280
H         -1.94780        5.89170        5.86190
H         -0.62500       -2.54020        4.21490
H         -1.94250       -4.32290        3.08970
H         -2.42450       -4.16070        0.65740
H         -1.59920       -2.25200       -0.66370
