
     RDKit          3D

 41 42  0  0  0  0  0  0  0  0999 V2000
    0.0909    0.0427    0.1827 S   0  0  0  0  0  0  0  0  0  0  0  0
    1.5519    0.0479    0.2100 O   0  0  0  0  0  0  0  0  0  0  0  0
   -0.6406    0.0483   -1.0749 O   0  0  0  0  0  0  0  0  0  0  0  0
   -0.3153    1.3994    1.0992 N   0  0  0  0  0  0  0  0  0  0  0  0
   -1.5599    1.6306    1.6412 C   0  0  0  0  0  0  0  0  0  0  0  0
   -2.5800    1.0593    1.3352 O   0  0  0  0  0  0  0  0  0  0  0  0
   -1.5593    2.6195    2.6457 N   0  0  0  0  0  0  0  0  0  0  0  0
   -0.5167    3.2302    3.3037 C   0  0  0  0  0  0  0  0  0  0  0  0
    0.7368    3.0116    2.8878 N   0  0  0  0  0  0  0  0  0  0  0  0
    1.6948    3.6047    3.6069 C   0  0  0  0  0  0  0  0  0  0  0  0
    1.4730    4.3945    4.6548 N   0  0  0  0  0  0  0  0  0  0  0  0
    0.1877    4.5745    4.9773 C   0  0  0  0  0  0  0  0  0  0  0  0
   -0.8457    4.0098    4.3380 N   0  0  0  0  0  0  0  0  0  0  0  0
   -0.1124    5.4760    6.1515 C   0  0  0  0  0  0  0  0  0  0  0  0
    0.5071    4.9015    7.4339 C   0  0  0  0  0  0  0  0  0  0  0  0
    0.3918    6.8991    5.8703 C   0  0  0  0  0  0  0  0  0  0  0  0
    2.9574    3.4066    3.2735 O   0  0  0  0  0  0  0  0  0  0  0  0
    3.2502    2.5694    2.1493 C   0  0  0  0  0  0  0  0  0  0  0  0
   -0.5378   -1.3272    1.1609 C   0  0  0  0  0  0  0  0  0  0  0  0
   -0.1323   -1.5799    2.4795 C   0  0  0  0  0  0  0  0  0  0  0  0
    0.9556   -0.5200    3.3405 Cl  0  0  0  0  0  0  0  0  0  0  0  0
   -0.6382   -2.6903    3.1591 C   0  0  0  0  0  0  0  0  0  0  0  0
   -1.5434   -3.5417    2.5228 C   0  0  0  0  0  0  0  0  0  0  0  0
   -1.9579   -3.2837    1.2141 C   0  0  0  0  0  0  0  0  0  0  0  0
   -1.4577   -2.1728    0.5364 C   0  0  0  0  0  0  0  0  0  0  0  0
    0.4795    1.8790    1.5594 H   0  0  0  0  0  0  0  0  0  0  0  0
   -2.4786    2.8110    3.0334 H   0  0  0  0  0  0  0  0  0  0  0  0
   -1.2080    5.4907    6.2511 H   0  0  0  0  0  0  0  0  0  0  0  0
    1.6007    4.8335    7.3323 H   0  0  0  0  0  0  0  0  0  0  0  0
    0.1188    3.8939    7.6503 H   0  0  0  0  0  0  0  0  0  0  0  0
    0.2738    5.5492    8.2931 H   0  0  0  0  0  0  0  0  0  0  0  0
    1.4818    6.8952    5.7190 H   0  0  0  0  0  0  0  0  0  0  0  0
    0.1575    7.5608    6.7185 H   0  0  0  0  0  0  0  0  0  0  0  0
   -0.0788    7.3206    4.9683 H   0  0  0  0  0  0  0  0  0  0  0  0
    4.3436    2.5452    2.0775 H   0  0  0  0  0  0  0  0  0  0  0  0
    2.8230    2.9878    1.2259 H   0  0  0  0  0  0  0  0  0  0  0  0
    2.8577    1.5521    2.2893 H   0  0  0  0  0  0  0  0  0  0  0  0
   -0.3183   -2.8740    4.1855 H   0  0  0  0  0  0  0  0  0  0  0  0
   -1.9319   -4.4081    3.0625 H   0  0  0  0  0  0  0  0  0  0  0  0
   -2.6759   -3.9420    0.7216 H   0  0  0  0  0  0  0  0  0  0  0  0
   -1.7717   -1.9318   -0.4794 H   0  0  0  0  0  0  0  0  0  0  0  0
  1  2  2  0
  1  3  2  0
  1  4  1  0
  1 19  1  0
  4  5  1  0
  4 26  1  0
  5  6  2  0
  5  7  1  0
  7  8  1  0
  7 27  1  0
  8  9  2  0
  8 13  1  0
  9 10  1  0
 10 11  2  0
 10 17  1  0
 11 12  1  0
 12 13  2  0
 12 14  1  0
 14 15  1  0
 14 16  1  0
 14 28  1  0
 15 29  1  0
 15 30  1  0
 15 31  1  0
 16 32  1  0
 16 33  1  0
 16 34  1  0
 17 18  1  0
 18 35  1  0
 18 36  1  0
 18 37  1  0
 19 20  2  0
 19 25  1  0
 20 21  1  0
 20 22  1  0
 22 23  2  0
 22 38  1  0
 23 24  1  0
 23 39  1  0
 24 25  2  0
 24 40  1  0
 25 41  1  0
M  END

