rmsd71.gzmat
 OpenBabel08211713363D

 60 63  0  0  1  0  0  0  0  0999 V2000
    0.0000    0.0000    0.0000 C   0  0  0  0  0  0  0  0  0  0  0  0
    1.3933    0.0000    0.0000 C   0  0  0  0  0  0  0  0  0  0  0  0
    2.1023    0.0000    1.2041 C   0  0  0  0  0  0  0  0  0  0  0  0
    1.4266   -0.0853    2.4187 C   0  0  0  0  0  0  0  0  0  0  0  0
    0.0342   -0.1553    2.4231 C   0  0  0  0  0  0  0  0  0  0  0  0
   -0.6728   -0.1033    1.2264 C   0  0  0  0  0  0  0  0  0  0  0  0
    3.5947    0.1244    1.1736 C   0  0  0  0  0  0  0  0  0  0  0  0
    3.9484    1.5817    0.9109 N   0  0  0  0  0  0  0  0  0  0  0  0
    3.4442    1.9316    0.0164 H   0  0  0  0  0  0  0  0  0  0  0  0
    3.6291    2.1767    1.6973 H   0  0  0  0  0  0  0  0  0  0  0  0
    4.9615    1.7069    0.7939 H   0  0  0  0  0  0  0  0  0  0  0  0
   -0.8235    0.1069   -1.2596 C   0  0  1  0  0  0  0  0  0  0  0  0
   -1.5433   -0.7631   -1.2452 H   0  0  0  0  0  0  0  0  0  0  0  0
   -1.6657    1.4011   -1.2505 C   0  0  0  0  0  0  0  0  0  0  0  0
   -0.9175    2.6481   -1.7713 C   0  0  0  0  0  0  0  0  0  0  0  0
    0.5036    2.3775   -2.0179 N   0  0  0  0  0  0  0  0  0  0  0  0
    1.4751    2.7322   -1.1402 C   0  0  0  0  0  0  0  0  0  0  0  0
    2.6217    2.2707   -1.2716 O   0  0  0  0  0  0  0  0  0  0  0  0
    1.2067    3.7172   -0.0688 C   0  0  1  0  0  0  0  0  0  0  0  0
    0.7646    3.2795    1.1801 C   0  0  0  0  0  0  0  0  0  0  0  0
    0.5676    4.2081    2.1957 C   0  0  0  0  0  0  0  0  0  0  0  0
    0.1286    3.7821    3.5559 C   0  0  0  0  0  0  0  0  0  0  0  0
    1.1945    4.1031    4.6171 C   0  0  0  0  0  0  0  0  0  0  0  0
    2.4585    3.3355    4.3818 C   0  0  0  0  0  0  0  0  0  0  0  0
    3.5255    3.9256    3.6993 C   0  0  0  0  0  0  0  0  0  0  0  0
    4.7240    3.2341    3.5407 C   0  0  0  0  0  0  0  0  0  0  0  0
    4.8568    1.9405    4.0439 C   0  0  0  0  0  0  0  0  0  0  0  0
    3.7876    1.3416    4.7078 C   0  0  0  0  0  0  0  0  0  0  0  0
    2.5922    2.0362    4.8774 C   0  0  0  0  0  0  0  0  0  0  0  0
    0.8020    5.5671    1.8999 C   0  0  0  0  0  0  0  0  0  0  0  0
    1.2368    5.9846    0.7021 N   0  0  0  0  0  0  0  0  0  0  0  0
    1.4467    5.0811   -0.2730 C   0  0  0  0  0  0  0  0  0  0  0  0
    0.7399    1.2760   -2.9651 C   0  0  0  0  0  0  0  0  0  0  0  0
   -0.0298   -0.0043   -2.5716 C   0  0  0  0  0  0  0  0  0  0  0  0
    1.9433    0.0120   -0.9453 H   0  0  0  0  0  0  0  0  0  0  0  0
    1.9732   -0.1070    3.3622 H   0  0  0  0  0  0  0  0  0  0  0  0
   -0.5024   -0.2548    3.3687 H   0  0  0  0  0  0  0  0  0  0  0  0
   -1.7640   -0.1520    1.2454 H   0  0  0  0  0  0  0  0  0  0  0  0
    4.0389   -0.5052    0.3640 H   0  0  0  0  0  0  0  0  0  0  0  0
    4.0629   -0.1983    2.1343 H   0  0  0  0  0  0  0  0  0  0  0  0
   -2.0499    1.5973   -0.2315 H   0  0  0  0  0  0  0  0  0  0  0  0
   -2.5696    1.2419   -1.8759 H   0  0  0  0  0  0  0  0  0  0  0  0
   -1.3672    2.9879   -2.7380 H   0  0  0  0  0  0  0  0  0  0  0  0
   -1.0375    3.4977   -1.0628 H   0  0  0  0  0  0  0  0  0  0  0  0
    0.5669    2.2199    1.3548 H   0  0  0  0  0  0  0  0  0  0  0  0
   -0.1076    2.6972    3.5826 H   0  0  0  0  0  0  0  0  0  0  0  0
   -0.8264    4.2892    3.8248 H   0  0  0  0  0  0  0  0  0  0  0  0
    0.7878    3.8746    5.6280 H   0  0  0  0  0  0  0  0  0  0  0  0
    1.3959    5.1955    4.6394 H   0  0  0  0  0  0  0  0  0  0  0  0
    3.4329    4.9446    3.3215 H   0  0  0  0  0  0  0  0  0  0  0  0
    5.5737    3.7269    3.0675 H   0  0  0  0  0  0  0  0  0  0  0  0
    5.8090    1.4174    3.9639 H   0  0  0  0  0  0  0  0  0  0  0  0
    3.8979    0.3410    5.1281 H   0  0  0  0  0  0  0  0  0  0  0  0
    1.7684    1.5764    5.4238 H   0  0  0  0  0  0  0  0  0  0  0  0
    0.6359    6.3550    2.6492 H   0  0  0  0  0  0  0  0  0  0  0  0
    1.8113    5.4777   -1.2320 H   0  0  0  0  0  0  0  0  0  0  0  0
    0.4170    1.6278   -3.9750 H   0  0  0  0  0  0  0  0  0  0  0  0
    1.8341    1.0739   -3.0475 H   0  0  0  0  0  0  0  0  0  0  0  0
   -0.7375   -0.2620   -3.3887 H   0  0  0  0  0  0  0  0  0  0  0  0
    0.6673   -0.8629   -2.5182 H   0  0  0  0  0  0  0  0  0  0  0  0
  1  2  2  0  0  0  0
  1  6  1  0  0  0  0
  2  3  1  0  0  0  0
  3  4  2  0  0  0  0
  4  5  1  0  0  0  0
  4 36  1  0  0  0  0
  5 37  1  0  0  0  0
  6 38  1  0  0  0  0
  6  5  2  0  0  0  0
  7  3  1  0  0  0  0
  7 40  1  0  0  0  0
  8  7  1  0  0  0  0
  8 10  1  0  0  0  0
  9  8  1  0  0  0  0
 11  8  1  0  0  0  0
 12 14  1  0  0  0  0
 12 13  1  1  0  0  0
 12  1  1  0  0  0  0
 14 41  1  0  0  0  0
 15 14  1  0  0  0  0
 15 44  1  0  0  0  0
 16 15  1  0  0  0  0
 16 17  1  0  0  0  0
 18 17  2  0  0  0  0
 19 17  1  1  0  0  0
 19 20  1  0  0  0  0
 20 45  1  0  0  0  0
 20 21  2  0  0  0  0
 21 22  1  0  0  0  0
 22 46  1  0  0  0  0
 22 47  1  0  0  0  0
 22 23  1  0  0  0  0
 23 49  1  0  0  0  0
 23 48  1  0  0  0  0
 24 23  1  0  0  0  0
 24 29  2  0  0  0  0
 25 24  1  0  0  0  0
 26 25  2  0  0  0  0
 26 27  1  0  0  0  0
 27 28  2  0  0  0  0
 28 29  1  0  0  0  0
 28 53  1  0  0  0  0
 29 54  1  0  0  0  0
 30 21  1  0  0  0  0
 30 55  1  0  0  0  0
 31 30  2  0  0  0  0
 32 19  1  0  0  0  0
 32 31  2  0  0  0  0
 33 34  1  0  0  0  0
 33 16  1  0  0  0  0
 34 60  1  0  0  0  0
 34 12  1  0  0  0  0
 35  2  1  0  0  0  0
 39  7  1  0  0  0  0
 42 14  1  0  0  0  0
 43 15  1  0  0  0  0
 50 25  1  0  0  0  0
 51 26  1  0  0  0  0
 52 27  1  0  0  0  0
 56 32  1  0  0  0  0
 57 33  1  0  0  0  0
 58 33  1  0  0  0  0
 59 34  1  0  0  0  0
M  RAD  1  19   2
M  END
$$$$
