60
rmsd166.gzmat
C          0.00000        0.00000        0.00000
C          1.39350        0.00000        0.00000
C          2.10280        0.00000        1.20370
C          1.42800        0.08280        2.41910
C          0.03540        0.15000        2.42360
C         -0.67180        0.09990        1.22660
C          3.59480       -0.12720        1.17160
N          3.94340       -1.58550        0.90990
H          3.62800       -2.17830        1.69970
H          3.43260       -1.93780        0.02020
H          4.95580       -1.71370        0.78870
C         -0.82300       -0.10120       -1.26030
H         -1.53090        0.77860       -1.24920
C         -0.02610       -0.00570       -2.57150
C          0.72650       -1.29870       -2.95620
N          0.48080       -2.38980       -1.99910
C          1.45020       -2.74310       -1.11820
O          2.59910       -2.28850       -1.25430
C          1.17840       -3.71850       -0.03860
C          0.78740       -3.26450        1.22140
C          0.60170       -4.18250        2.24880
C          0.23030       -3.73640        3.62270
C          1.32930       -4.08570        4.64090
C          2.62160       -3.40290        4.31550
C          2.85520       -2.09780        4.75530
C          4.07900       -1.48230        4.50400
C          5.07710       -2.16580        3.81140
C          4.84240       -3.46390        3.35910
C          3.61580       -4.07740        3.60150
C          0.79310       -5.54790        1.95380
N          1.17400       -5.98240        0.74370
C          1.37400       -5.08940       -0.24320
C         -0.94160       -2.64610       -1.74540
C         -1.68300       -1.38340       -1.25480
H          1.94320       -0.01340       -0.94520
H          1.97580        0.10160        3.36170
H         -0.50210        0.24480        3.36930
H         -1.76300        0.14670        1.24600
H          4.06500        0.19610        2.13110
H          4.03960        0.50020        0.36090
H          0.68120        0.84450       -2.52180
H         -0.72960        0.25560       -3.39090
H          0.39620       -1.65450       -3.96220
H          1.82300       -1.11000       -3.04390
H          0.62100       -2.19970        1.39710
H         -0.72790       -4.21180        3.93470
H          0.02980       -2.64450        3.65130
H          1.46710       -5.18690        4.69150
H          0.98930       -3.80200        5.66210
H          2.08900       -1.57200        5.32550
H          4.26950       -0.47840        4.88530
H          6.05420       -1.70520        3.67090
H          5.63410       -4.01960        2.85480
H          3.44510       -5.10000        3.26180
H          0.63620       -6.32710        2.71410
H          1.69570       -5.50000       -1.21150
H         -1.39320       -3.00820       -2.70270
H         -1.06600       -3.47690       -1.01560
H         -2.56990       -1.21800       -1.90220
H         -2.09270       -1.56340       -0.24310
