rmsd205.gzmat
 OpenBabel08211713363D

 60 63  0  0  1  0  0  0  0  0999 V2000
    0.0000    0.0000    0.0000 C   0  0  0  0  0  0  0  0  0  0  0  0
    1.3932    0.0000    0.0000 C   0  0  0  0  0  0  0  0  0  0  0  0
    2.1020    0.0000    1.2042 C   0  0  0  0  0  0  0  0  0  0  0  0
    1.4282    0.0988    2.4190 C   0  0  0  0  0  0  0  0  0  0  0  0
    0.0358    0.1734    2.4227 C   0  0  0  0  0  0  0  0  0  0  0  0
   -0.6714    0.1120    1.2263 C   0  0  0  0  0  0  0  0  0  0  0  0
    3.5906   -0.1608    1.1732 C   0  0  0  0  0  0  0  0  0  0  0  0
    3.8995   -1.6398    0.9825 N   0  0  0  0  0  0  0  0  0  0  0  0
    4.9123   -1.8078    0.9242 H   0  0  0  0  0  0  0  0  0  0  0  0
    3.5218   -2.1922    1.7744 H   0  0  0  0  0  0  0  0  0  0  0  0
    3.4230   -2.0030    0.0790 H   0  0  0  0  0  0  0  0  0  0  0  0
   -0.8276   -0.1347   -1.2546 C   0  0  1  0  0  0  0  0  0  0  0  0
   -1.5728    0.7135   -1.2396 H   0  0  0  0  0  0  0  0  0  0  0  0
   -0.0489   -0.0038   -2.5738 C   0  0  0  0  0  0  0  0  0  0  0  0
    0.7951   -1.2412   -2.9539 C   0  0  0  0  0  0  0  0  0  0  0  0
    0.5302   -2.3810   -2.0602 N   0  0  0  0  0  0  0  0  0  0  0  0
    1.4656   -2.7510   -1.1489 C   0  0  0  0  0  0  0  0  0  0  0  0
    2.6194   -2.2982   -1.2334 O   0  0  0  0  0  0  0  0  0  0  0  0
    1.1472   -3.7259   -0.0819 C   0  0  2  0  0  0  0  0  0  0  0  0
    0.7624   -3.2508    1.1722 C   0  0  0  0  0  0  0  0  0  0  0  0
    0.5389   -4.1529    2.2055 C   0  0  0  0  0  0  0  0  0  0  0  0
    0.1915   -3.6744    3.5745 C   0  0  0  0  0  0  0  0  0  0  0  0
    1.2660   -4.0752    4.6000 C   0  0  0  0  0  0  0  0  0  0  0  0
    2.6210   -3.5688    4.2132 C   0  0  0  0  0  0  0  0  0  0  0  0
    3.0256   -2.2826    4.5780 C   0  0  0  0  0  0  0  0  0  0  0  0
    4.3123   -1.8418    4.2767 C   0  0  0  0  0  0  0  0  0  0  0  0
    5.1979   -2.6770    3.5969 C   0  0  0  0  0  0  0  0  0  0  0  0
    4.7886   -3.9525    3.2092 C   0  0  0  0  0  0  0  0  0  0  0  0
    3.5045   -4.3958    3.5133 C   0  0  0  0  0  0  0  0  0  0  0  0
    0.6758   -5.5267    1.9187 C   0  0  0  0  0  0  0  0  0  0  0  0
    1.0475   -5.9818    0.7133 N   0  0  0  0  0  0  0  0  0  0  0  0
    1.2923   -5.1035   -0.2769 C   0  0  0  0  0  0  0  0  0  0  0  0
   -0.8991   -2.6515   -1.8688 C   0  0  0  0  0  0  0  0  0  0  0  0
   -1.6312   -1.4556   -1.2238 C   0  0  0  0  0  0  0  0  0  0  0  0
    1.9437   -0.0153   -0.9441 H   0  0  0  0  0  0  0  0  0  0  0  0
    1.9753    0.1251    3.3614 H   0  0  0  0  0  0  0  0  0  0  0  0
   -0.5014    0.2792    3.3674 H   0  0  0  0  0  0  0  0  0  0  0  0
   -1.7632    0.1557    1.2455 H   0  0  0  0  0  0  0  0  0  0  0  0
    4.0740    0.1981    2.1122 H   0  0  0  0  0  0  0  0  0  0  0  0
    4.0472    0.4124    0.3294 H   0  0  0  0  0  0  0  0  0  0  0  0
    0.5975    0.8951   -2.5401 H   0  0  0  0  0  0  0  0  0  0  0  0
   -0.7776    0.1963   -3.3890 H   0  0  0  0  0  0  0  0  0  0  0  0
    0.5587   -1.5670   -3.9957 H   0  0  0  0  0  0  0  0  0  0  0  0
    1.8841   -0.9990   -2.9518 H   0  0  0  0  0  0  0  0  0  0  0  0
    0.6287   -2.1806    1.3387 H   0  0  0  0  0  0  0  0  0  0  0  0
   -0.7936   -4.0883    3.8885 H   0  0  0  0  0  0  0  0  0  0  0  0
    0.0562   -2.5720    3.5923 H   0  0  0  0  0  0  0  0  0  0  0  0
    1.2821   -5.1796    4.7235 H   0  0  0  0  0  0  0  0  0  0  0  0
    0.9791   -3.6874    5.6032 H   0  0  0  0  0  0  0  0  0  0  0  0
    2.3454   -1.6373    5.1338 H   0  0  0  0  0  0  0  0  0  0  0  0
    4.6397   -0.8575    4.6126 H   0  0  0  0  0  0  0  0  0  0  0  0
    6.2236   -2.3563    3.4174 H   0  0  0  0  0  0  0  0  0  0  0  0
    5.4856   -4.6222    2.7021 H   0  0  0  0  0  0  0  0  0  0  0  0
    3.1994   -5.4050    3.2298 H   0  0  0  0  0  0  0  0  0  0  0  0
    0.4820   -6.2946    2.6818 H   0  0  0  0  0  0  0  0  0  0  0  0
    1.6082   -5.5322   -1.2393 H   0  0  0  0  0  0  0  0  0  0  0  0
   -1.3359   -2.8738   -2.8745 H   0  0  0  0  0  0  0  0  0  0  0  0
   -1.0442   -3.5717   -1.2604 H   0  0  0  0  0  0  0  0  0  0  0  0
   -2.5957   -1.3033   -1.7521 H   0  0  0  0  0  0  0  0  0  0  0  0
   -1.9086   -1.7080   -0.1830 H   0  0  0  0  0  0  0  0  0  0  0  0
  1  2  2  0  0  0  0
  1  6  1  0  0  0  0
  2  3  1  0  0  0  0
  3  4  2  0  0  0  0
  4  5  1  0  0  0  0
  4 36  1  0  0  0  0
  5 37  1  0  0  0  0
  6 38  1  0  0  0  0
  6  5  2  0  0  0  0
  7  3  1  0  0  0  0
  7 39  1  0  0  0  0
  8  7  1  0  0  0  0
  8 10  1  0  0  0  0
  9  8  1  0  0  0  0
 11  8  1  0  0  0  0
 12 13  1  1  0  0  0
 12 34  1  0  0  0  0
 12  1  1  0  0  0  0
 14 41  1  0  0  0  0
 14 12  1  0  0  0  0
 15 44  1  0  0  0  0
 15 14  1  0  0  0  0
 15 16  1  0  0  0  0
 16 33  1  0  0  0  0
 16 17  1  0  0  0  0
 18 17  2  0  0  0  0
 19 17  1  1  0  0  0
 19 20  1  0  0  0  0
 20 45  1  0  0  0  0
 20 21  2  0  0  0  0
 21 22  1  0  0  0  0
 22 47  1  0  0  0  0
 22 46  1  0  0  0  0
 22 23  1  0  0  0  0
 23 48  1  0  0  0  0
 23 49  1  0  0  0  0
 24 25  2  0  0  0  0
 24 23  1  0  0  0  0
 25 50  1  0  0  0  0
 26 25  1  0  0  0  0
 26 51  1  0  0  0  0
 27 26  2  0  0  0  0
 28 29  2  0  0  0  0
 28 27  1  0  0  0  0
 29 24  1  0  0  0  0
 30 21  1  0  0  0  0
 30 55  1  0  0  0  0
 31 30  2  0  0  0  0
 32 19  1  0  0  0  0
 32 31  2  0  0  0  0
 33 58  1  0  0  0  0
 33 34  1  0  0  0  0
 34 60  1  0  0  0  0
 35  2  1  0  0  0  0
 40  7  1  0  0  0  0
 42 14  1  0  0  0  0
 43 15  1  0  0  0  0
 52 27  1  0  0  0  0
 53 28  1  0  0  0  0
 54 29  1  0  0  0  0
 56 32  1  0  0  0  0
 57 33  1  0  0  0  0
 59 34  1  0  0  0  0
M  RAD  1  19   2
M  END
$$$$
