60
rmsd249.gzmat
C          0.00000        0.00000        0.00000
C          1.39320        0.00000        0.00000
C          2.10200        0.00000        1.20420
C          1.42690       -0.08460        2.41910
C          0.03470       -0.15800        2.42310
C         -0.67200       -0.10960        1.22600
C          3.59360        0.13270        1.17600
N          3.93730        1.59610        0.93650
H          4.95200        1.73270        0.84390
H          3.44710        1.94950        0.03490
H          3.59570        2.18050        1.72200
C         -0.82580        0.12480       -1.25680
H         -1.56070       -0.73250       -1.24360
C         -1.64550        1.43430       -1.23390
C         -0.89850        2.65730       -1.80900
N          0.52500        2.37980       -2.03080
C          1.48280        2.73760       -1.13930
O          2.63200        2.27790       -1.25530
C          1.19980        3.71900       -0.06830
C          0.74810        3.27300        1.17430
C          0.55780        4.19260        2.19940
C          0.12710        3.75250        3.55780
C          1.18840        4.08720        4.62020
C          2.49920        3.42880        4.31860
C          2.74550        2.12390        4.75190
C          3.98420        1.53080        4.51910
C          4.98320        2.23580        3.85010
C          4.73560        3.53390        3.40430
C          3.49580        4.12590        3.63120
C          0.80360        5.55230        1.91840
N          1.23980        5.97900        0.72420
C          1.44530        5.08390       -0.25960
C          0.77050        1.26220       -2.95670
C         -0.03950        0.00410       -2.57220
H          1.94330        0.01320       -0.94470
H          1.97440       -0.10190        3.36200
H         -0.50210       -0.25490        3.36880
H         -1.76300       -0.16370        1.24450
H          4.04250       -0.48000        0.35600
H          4.06340       -0.20320        2.13120
H         -1.97970        1.65480       -0.20210
H         -2.57990        1.28250       -1.81450
H         -1.34010        2.95030       -2.79440
H         -1.02570        3.53890       -1.14190
H          0.53960        2.21360        1.33720
H         -0.08750        2.66300        3.57890
H         -0.83720        4.23930        3.83030
H          0.81790        3.77230        5.62140
H          1.31140        5.18800        4.70440
H          1.97670        1.58090        5.30170
H          4.18430        0.52770        4.89700
H          5.97060        1.79340        3.72360
H          5.52640        4.10620        2.91710
H          3.31510        5.14970        3.29920
H          0.64630        6.33310        2.67710
H          1.81180        5.48780       -1.21480
H          0.48980        1.60690       -3.98130
H          1.86210        1.03570       -3.00050
H         -0.75740       -0.22200       -3.38970
H          0.63020       -0.87690       -2.52860
