60
rmsd208.gzmat
C          0.00000        0.00000        0.00000
C          1.39320        0.00000        0.00000
C          2.10210        0.00000        1.20400
C          1.42750       -0.08500        2.41930
C          0.03500       -0.15760        2.42310
C         -0.67180       -0.10600        1.22620
C          3.59350        0.13280        1.17400
N          3.93400        1.59800        0.94030
H          3.61080        2.17460        1.73870
H          4.94610        1.73500        0.82560
H          3.42550        1.95980        0.05340
C         -0.82540        0.11490       -1.25800
H         -1.54980       -0.75130       -1.24450
C         -1.66200        1.41380       -1.24190
C         -0.92680        2.64720       -1.81030
N          0.50000        2.38510       -2.03070
C          1.45030        2.74370       -1.13040
O          2.60090        2.28720       -1.23690
C          1.15400        3.72130       -0.05920
C          0.75300        3.26050        1.19510
C          0.55040        4.17290        2.22410
C          0.17360        3.71580        3.59300
C          1.25660        4.08080        4.62220
C          2.56460        3.42170        4.31100
C          3.55370        4.11580        3.60880
C          4.79730        3.52990        3.38690
C          5.05490        2.23930        3.84820
C          4.06160        1.53460        4.52630
C          2.82000        2.12230        4.75640
C          0.73040        5.54100        1.93450
N          1.11740        5.98230        0.72890
C          1.33690        5.09450       -0.25860
C          0.75670        1.27070       -2.95790
C         -0.03460        0.00120       -2.57150
H          1.94330        0.01400       -0.94470
H          1.97500       -0.10240        3.36200
H         -0.50200       -0.25800        3.36850
H         -1.76310       -0.15490        1.24500
H          4.04090       -0.47640        0.35050
H          4.06560       -0.20740        2.12660
H         -2.00910        1.62960       -0.21370
H         -2.58770        1.24950       -1.83280
H         -1.36980        2.93950       -2.79530
H         -1.06420        3.52540       -1.14080
H          0.59210        2.19440        1.36440
H         -0.00780        2.62030        3.61700
H         -0.79590        4.17330        3.89630
H          0.91060        3.78980        5.63950
H          1.37610        5.18430        4.67500
H          3.36500        5.13340        3.26340
H          5.58360        4.10190        2.89240
H          6.04540        1.80310        3.72550
H          4.26940        0.53720        4.91510
H          2.05680        1.58100        5.31550
H          0.55880        6.31690        2.69510
H          1.66230        5.51140       -1.22280
H          0.46700        1.61130       -3.98140
H          1.85120        1.06000       -3.00630
H         -0.74740       -0.23930       -3.38950
H          0.64810       -0.86940       -2.52420
