rmsd197.gzmat
 OpenBabel08211713363D

 60 63  0  0  1  0  0  0  0  0999 V2000
    0.0000    0.0000    0.0000 C   0  0  0  0  0  0  0  0  0  0  0  0
    1.3936    0.0000    0.0000 C   0  0  0  0  0  0  0  0  0  0  0  0
    2.1043    0.0000    1.2027 C   0  0  0  0  0  0  0  0  0  0  0  0
    1.4300   -0.0809    2.4185 C   0  0  0  0  0  0  0  0  0  0  0  0
    0.0373   -0.1449    2.4233 C   0  0  0  0  0  0  0  0  0  0  0  0
   -0.6710   -0.0955    1.2268 C   0  0  0  0  0  0  0  0  0  0  0  0
    3.5971    0.1177    1.1675 C   0  0  0  0  0  0  0  0  0  0  0  0
    3.9580    1.5683    0.8823 N   0  0  0  0  0  0  0  0  0  0  0  0
    4.9712    1.6834    0.7533 H   0  0  0  0  0  0  0  0  0  0  0  0
    3.4459    1.9135   -0.0095 H   0  0  0  0  0  0  0  0  0  0  0  0
    3.6529    2.1764    1.6647 H   0  0  0  0  0  0  0  0  0  0  0  0
   -0.8188    0.0895   -1.2639 C   0  0  1  0  0  0  0  0  0  0  0  0
   -1.5116   -0.8022   -1.2576 H   0  0  0  0  0  0  0  0  0  0  0  0
   -1.6984    1.3575   -1.2668 C   0  0  0  0  0  0  0  0  0  0  0  0
   -0.9489    2.6480   -1.6676 C   0  0  0  0  0  0  0  0  0  0  0  0
    0.4664    2.3955   -1.9630 N   0  0  0  0  0  0  0  0  0  0  0  0
    1.4598    2.7376   -1.1058 C   0  0  0  0  0  0  0  0  0  0  0  0
    2.6035    2.2805   -1.2751 O   0  0  0  0  0  0  0  0  0  0  0  0
    1.2245    3.7123   -0.0168 C   0  0  1  0  0  0  0  0  0  0  0  0
    0.8168    3.2720    1.2424 C   0  0  0  0  0  0  0  0  0  0  0  0
    0.6723    4.1951    2.2722 C   0  0  0  0  0  0  0  0  0  0  0  0
    0.2924    3.7610    3.6475 C   0  0  0  0  0  0  0  0  0  0  0  0
    1.4021    4.0864    4.6619 C   0  0  0  0  0  0  0  0  0  0  0  0
    2.6711    3.3592    4.3409 C   0  0  0  0  0  0  0  0  0  0  0  0
    2.8642    2.0537    4.7992 C   0  0  0  0  0  0  0  0  0  0  0  0
    4.0649    1.3934    4.5492 C   0  0  0  0  0  0  0  0  0  0  0  0
    5.0800    2.0316    3.8384 C   0  0  0  0  0  0  0  0  0  0  0  0
    4.8866    3.3306    3.3696 C   0  0  0  0  0  0  0  0  0  0  0  0
    3.6835    3.9895    3.6117 C   0  0  0  0  0  0  0  0  0  0  0  0
    0.9136    5.5530    1.9788 C   0  0  0  0  0  0  0  0  0  0  0  0
    1.3106    5.9736    0.7691 N   0  0  0  0  0  0  0  0  0  0  0  0
    1.4753    5.0749   -0.2187 C   0  0  0  0  0  0  0  0  0  0  0  0
    0.6908    1.3326   -2.9562 C   0  0  0  0  0  0  0  0  0  0  0  0
   -0.0119    0.0126   -2.5705 C   0  0  0  0  0  0  0  0  0  0  0  0
    1.9424    0.0114   -0.9460 H   0  0  0  0  0  0  0  0  0  0  0  0
    1.9783   -0.1021    3.3610 H   0  0  0  0  0  0  0  0  0  0  0  0
   -0.4992   -0.2379    3.3695 H   0  0  0  0  0  0  0  0  0  0  0  0
   -1.7623   -0.1408    1.2482 H   0  0  0  0  0  0  0  0  0  0  0  0
    4.0366   -0.5257    0.3664 H   0  0  0  0  0  0  0  0  0  0  0  0
    4.0652   -0.1933    2.1321 H   0  0  0  0  0  0  0  0  0  0  0  0
   -2.1706    1.4956   -0.2757 H   0  0  0  0  0  0  0  0  0  0  0  0
   -2.5419    1.1999   -1.9721 H   0  0  0  0  0  0  0  0  0  0  0  0
   -1.4107    3.0907   -2.5856 H   0  0  0  0  0  0  0  0  0  0  0  0
   -1.0518    3.4189   -0.8721 H   0  0  0  0  0  0  0  0  0  0  0  0
    0.6064    2.2147    1.4159 H   0  0  0  0  0  0  0  0  0  0  0  0
    0.0671    2.6739    3.6793 H   0  0  0  0  0  0  0  0  0  0  0  0
   -0.6539    4.2595    3.9588 H   0  0  0  0  0  0  0  0  0  0  0  0
    1.0543    3.8232    5.6858 H   0  0  0  0  0  0  0  0  0  0  0  0
    1.5753    5.1832    4.7016 H   0  0  0  0  0  0  0  0  0  0  0  0
    2.0843    1.5632    5.3817 H   0  0  0  0  0  0  0  0  0  0  0  0
    4.2230    0.3893    4.9446 H   0  0  0  0  0  0  0  0  0  0  0  0
    6.0391    1.5354    3.6951 H   0  0  0  0  0  0  0  0  0  0  0  0
    5.6941    3.8522    2.8537 H   0  0  0  0  0  0  0  0  0  0  0  0
    3.5461    5.0133    3.2605 H   0  0  0  0  0  0  0  0  0  0  0  0
    0.7858    6.3379    2.7391 H   0  0  0  0  0  0  0  0  0  0  0  0
    1.8128    5.4736   -1.1866 H   0  0  0  0  0  0  0  0  0  0  0  0
    0.3052    1.7053   -3.9361 H   0  0  0  0  0  0  0  0  0  0  0  0
    1.7863    1.1717   -3.0967 H   0  0  0  0  0  0  0  0  0  0  0  0
   -0.6974   -0.2819   -3.3939 H   0  0  0  0  0  0  0  0  0  0  0  0
    0.7264   -0.8104   -2.5114 H   0  0  0  0  0  0  0  0  0  0  0  0
  1  2  2  0  0  0  0
  1  6  1  0  0  0  0
  2  3  1  0  0  0  0
  3  4  2  0  0  0  0
  4  5  1  0  0  0  0
  4 36  1  0  0  0  0
  5 37  1  0  0  0  0
  6 38  1  0  0  0  0
  6  5  2  0  0  0  0
  7  3  1  0  0  0  0
  7 40  1  0  0  0  0
  8  7  1  0  0  0  0
  8 11  1  0  0  0  0
  9  8  1  0  0  0  0
 10  8  1  0  0  0  0
 12 13  1  1  0  0  0
 12  1  1  0  0  0  0
 14 12  1  0  0  0  0
 14 41  1  0  0  0  0
 15 14  1  0  0  0  0
 15 44  1  0  0  0  0
 16 15  1  0  0  0  0
 16 17  1  0  0  0  0
 18 17  2  0  0  0  0
 19 17  1  1  0  0  0
 19 20  1  0  0  0  0
 20 45  1  0  0  0  0
 20 21  2  0  0  0  0
 21 22  1  0  0  0  0
 22 46  1  0  0  0  0
 22 47  1  0  0  0  0
 22 23  1  0  0  0  0
 23 49  1  0  0  0  0
 23 48  1  0  0  0  0
 24 23  1  0  0  0  0
 24 25  2  0  0  0  0
 25 50  1  0  0  0  0
 26 25  1  0  0  0  0
 26 51  1  0  0  0  0
 27 26  2  0  0  0  0
 28 29  2  0  0  0  0
 28 27  1  0  0  0  0
 29 24  1  0  0  0  0
 30 21  1  0  0  0  0
 30 55  1  0  0  0  0
 31 30  2  0  0  0  0
 32 19  1  0  0  0  0
 32 31  2  0  0  0  0
 33 34  1  0  0  0  0
 33 16  1  0  0  0  0
 34 60  1  0  0  0  0
 34 12  1  0  0  0  0
 35  2  1  0  0  0  0
 39  7  1  0  0  0  0
 42 14  1  0  0  0  0
 43 15  1  0  0  0  0
 52 27  1  0  0  0  0
 53 28  1  0  0  0  0
 54 29  1  0  0  0  0
 56 32  1  0  0  0  0
 57 33  1  0  0  0  0
 58 33  1  0  0  0  0
 59 34  1  0  0  0  0
M  RAD  1  19   2
M  END
$$$$
