60
rmsd197.gzmat
C          0.00000        0.00000        0.00000
C          1.39360        0.00000        0.00000
C          2.10430        0.00000        1.20270
C          1.43000       -0.08090        2.41850
C          0.03730       -0.14490        2.42330
C         -0.67100       -0.09550        1.22680
C          3.59710        0.11770        1.16750
N          3.95800        1.56830        0.88230
H          4.97120        1.68340        0.75330
H          3.44590        1.91350       -0.00950
H          3.65290        2.17640        1.66470
C         -0.81880        0.08950       -1.26390
H         -1.51160       -0.80220       -1.25760
C         -1.69840        1.35750       -1.26680
C         -0.94890        2.64800       -1.66760
N          0.46640        2.39550       -1.96300
C          1.45980        2.73760       -1.10580
O          2.60350        2.28050       -1.27510
C          1.22450        3.71230       -0.01680
C          0.81680        3.27200        1.24240
C          0.67230        4.19510        2.27220
C          0.29240        3.76100        3.64750
C          1.40210        4.08640        4.66190
C          2.67110        3.35920        4.34090
C          2.86420        2.05370        4.79920
C          4.06490        1.39340        4.54920
C          5.08000        2.03160        3.83840
C          4.88660        3.33060        3.36960
C          3.68350        3.98950        3.61170
C          0.91360        5.55300        1.97880
N          1.31060        5.97360        0.76910
C          1.47530        5.07490       -0.21870
C          0.69080        1.33260       -2.95620
C         -0.01190        0.01260       -2.57050
H          1.94240        0.01140       -0.94600
H          1.97830       -0.10210        3.36100
H         -0.49920       -0.23790        3.36950
H         -1.76230       -0.14080        1.24820
H          4.03660       -0.52570        0.36640
H          4.06520       -0.19330        2.13210
H         -2.17060        1.49560       -0.27570
H         -2.54190        1.19990       -1.97210
H         -1.41070        3.09070       -2.58560
H         -1.05180        3.41890       -0.87210
H          0.60640        2.21470        1.41590
H          0.06710        2.67390        3.67930
H         -0.65390        4.25950        3.95880
H          1.05430        3.82320        5.68580
H          1.57530        5.18320        4.70160
H          2.08430        1.56320        5.38170
H          4.22300        0.38930        4.94460
H          6.03910        1.53540        3.69510
H          5.69410        3.85220        2.85370
H          3.54610        5.01330        3.26050
H          0.78580        6.33790        2.73910
H          1.81280        5.47360       -1.18660
H          0.30520        1.70530       -3.93610
H          1.78630        1.17170       -3.09670
H         -0.69740       -0.28190       -3.39390
H          0.72640       -0.81040       -2.51140
