rmsd238.gzmat
 OpenBabel08211713363D

 60 63  0  0  1  0  0  0  0  0999 V2000
    0.0000    0.0000    0.0000 C   0  0  0  0  0  0  0  0  0  0  0  0
    1.3929    0.0000    0.0000 C   0  0  0  0  0  0  0  0  0  0  0  0
    2.1019    0.0000    1.2042 C   0  0  0  0  0  0  0  0  0  0  0  0
    1.4273    0.0890    2.4191 C   0  0  0  0  0  0  0  0  0  0  0  0
    0.0351    0.1683    2.4229 C   0  0  0  0  0  0  0  0  0  0  0  0
   -0.6717    0.1161    1.2262 C   0  0  0  0  0  0  0  0  0  0  0  0
    3.5935   -0.1343    1.1724 C   0  0  0  0  0  0  0  0  0  0  0  0
    3.9361   -1.5989    0.9388 N   0  0  0  0  0  0  0  0  0  0  0  0
    3.4510   -1.9530    0.0355 H   0  0  0  0  0  0  0  0  0  0  0  0
    4.9511   -1.7379    0.8529 H   0  0  0  0  0  0  0  0  0  0  0  0
    3.5898   -2.1809    1.7235 H   0  0  0  0  0  0  0  0  0  0  0  0
   -0.8281   -0.1389   -1.2539 C   0  0  1  0  0  0  0  0  0  0  0  0
   -1.5843    0.6993   -1.2335 H   0  0  0  0  0  0  0  0  0  0  0  0
   -0.0523    0.0087   -2.5731 C   0  0  0  0  0  0  0  0  0  0  0  0
    0.8012   -1.2184   -2.9653 C   0  0  0  0  0  0  0  0  0  0  0  0
    0.5532   -2.3650   -2.0757 N   0  0  0  0  0  0  0  0  0  0  0  0
    1.4971   -2.7304   -1.1718 C   0  0  0  0  0  0  0  0  0  0  0  0
    2.6466   -2.2672   -1.2650 O   0  0  0  0  0  0  0  0  0  0  0  0
    1.1966   -3.7170   -0.1106 C   0  0  2  0  0  0  0  0  0  0  0  0
    0.7573   -3.2666    1.1350 C   0  0  0  0  0  0  0  0  0  0  0  0
    0.5500   -4.1848    2.1579 C   0  0  0  0  0  0  0  0  0  0  0  0
    0.1369   -3.7362    3.5189 C   0  0  0  0  0  0  0  0  0  0  0  0
    1.1944   -4.0977    4.5763 C   0  0  0  0  0  0  0  0  0  0  0  0
    2.5260   -3.4909    4.2580 C   0  0  0  0  0  0  0  0  0  0  0  0
    3.4866   -4.2301    3.5620 C   0  0  0  0  0  0  0  0  0  0  0  0
    4.7462   -3.6895    3.3180 C   0  0  0  0  0  0  0  0  0  0  0  0
    5.0519   -2.4019    3.7579 C   0  0  0  0  0  0  0  0  0  0  0  0
    4.0896   -1.6548    4.4356 C   0  0  0  0  0  0  0  0  0  0  0  0
    2.8296   -2.1951    4.6826 C   0  0  0  0  0  0  0  0  0  0  0  0
    0.7617   -5.5487    1.8699 C   0  0  0  0  0  0  0  0  0  0  0  0
    1.1866   -5.9796    0.6733 N   0  0  0  0  0  0  0  0  0  0  0  0
    1.4124   -5.0854   -0.3071 C   0  0  0  0  0  0  0  0  0  0  0  0
   -0.8719   -2.6534   -1.8805 C   0  0  0  0  0  0  0  0  0  0  0  0
   -1.6149   -1.4696   -1.2261 C   0  0  0  0  0  0  0  0  0  0  0  0
    1.9429   -0.0127   -0.9445 H   0  0  0  0  0  0  0  0  0  0  0  0
    1.9748    0.1061    3.3619 H   0  0  0  0  0  0  0  0  0  0  0  0
   -0.5015    0.2742    3.3681 H   0  0  0  0  0  0  0  0  0  0  0  0
   -1.7628    0.1715    1.2440 H   0  0  0  0  0  0  0  0  0  0  0  0
    4.0675    0.2079    2.1227 H   0  0  0  0  0  0  0  0  0  0  0  0
    4.0389    0.4735    0.3467 H   0  0  0  0  0  0  0  0  0  0  0  0
    0.5867    0.9124   -2.5314 H   0  0  0  0  0  0  0  0  0  0  0  0
   -0.7828    0.2101   -3.3861 H   0  0  0  0  0  0  0  0  0  0  0  0
    0.5612   -1.5412   -4.0073 H   0  0  0  0  0  0  0  0  0  0  0  0
    1.8878   -0.9655   -2.9696 H   0  0  0  0  0  0  0  0  0  0  0  0
    0.5711   -2.2042    1.3029 H   0  0  0  0  0  0  0  0  0  0  0  0
   -0.8375   -4.1994    3.7962 H   0  0  0  0  0  0  0  0  0  0  0  0
   -0.0505   -2.6416    3.5418 H   0  0  0  0  0  0  0  0  0  0  0  0
    1.2791   -5.2018    4.6692 H   0  0  0  0  0  0  0  0  0  0  0  0
    0.8434   -3.7609    5.5775 H   0  0  0  0  0  0  0  0  0  0  0  0
    3.2610   -5.2460    3.2338 H   0  0  0  0  0  0  0  0  0  0  0  0
    5.5050   -4.2938    2.8184 H   0  0  0  0  0  0  0  0  0  0  0  0
    6.0560   -2.0024    3.6215 H   0  0  0  0  0  0  0  0  0  0  0  0
    4.3356   -0.6609    4.8103 H   0  0  0  0  0  0  0  0  0  0  0  0
    2.0899   -1.6194    5.2386 H   0  0  0  0  0  0  0  0  0  0  0  0
    0.5861   -6.3297    2.6244 H   0  0  0  0  0  0  0  0  0  0  0  0
    1.7710   -5.4936   -1.2635 H   0  0  0  0  0  0  0  0  0  0  0  0
   -1.3100   -2.8757   -2.8858 H   0  0  0  0  0  0  0  0  0  0  0  0
   -1.0044   -3.5793   -1.2775 H   0  0  0  0  0  0  0  0  0  0  0  0
   -2.5836   -1.3263   -1.7492 H   0  0  0  0  0  0  0  0  0  0  0  0
   -1.8839   -1.7302   -0.1850 H   0  0  0  0  0  0  0  0  0  0  0  0
  1  2  2  0  0  0  0
  1  6  1  0  0  0  0
  2  3  1  0  0  0  0
  3  4  2  0  0  0  0
  4  5  1  0  0  0  0
  4 36  1  0  0  0  0
  5 37  1  0  0  0  0
  6 38  1  0  0  0  0
  6  5  2  0  0  0  0
  7  3  1  0  0  0  0
  7 39  1  0  0  0  0
  8  7  1  0  0  0  0
  8 11  1  0  0  0  0
  9  8  1  0  0  0  0
 10  8  1  0  0  0  0
 12 13  1  1  0  0  0
 12 34  1  0  0  0  0
 12  1  1  0  0  0  0
 14 41  1  0  0  0  0
 14 12  1  0  0  0  0
 15 14  1  0  0  0  0
 15 16  1  0  0  0  0
 16 33  1  0  0  0  0
 16 17  1  0  0  0  0
 18 17  2  0  0  0  0
 19 17  1  1  0  0  0
 19 20  1  0  0  0  0
 20 45  1  0  0  0  0
 20 21  2  0  0  0  0
 21 22  1  0  0  0  0
 22 47  1  0  0  0  0
 22 46  1  0  0  0  0
 22 23  1  0  0  0  0
 23 48  1  0  0  0  0
 23 49  1  0  0  0  0
 24 23  1  0  0  0  0
 24 29  2  0  0  0  0
 25 24  1  0  0  0  0
 26 25  2  0  0  0  0
 26 27  1  0  0  0  0
 27 28  2  0  0  0  0
 28 29  1  0  0  0  0
 28 53  1  0  0  0  0
 29 54  1  0  0  0  0
 30 21  1  0  0  0  0
 30 55  1  0  0  0  0
 31 30  2  0  0  0  0
 32 19  1  0  0  0  0
 32 31  2  0  0  0  0
 33 58  1  0  0  0  0
 33 34  1  0  0  0  0
 34 60  1  0  0  0  0
 35  2  1  0  0  0  0
 40  7  1  0  0  0  0
 42 14  1  0  0  0  0
 43 15  1  0  0  0  0
 44 15  1  0  0  0  0
 50 25  1  0  0  0  0
 51 26  1  0  0  0  0
 52 27  1  0  0  0  0
 56 32  1  0  0  0  0
 57 33  1  0  0  0  0
 59 34  1  0  0  0  0
M  RAD  1  19   2
M  END
$$$$
