rmsd178.gzmat
 OpenBabel08211713363D

 47 49  0  0  1  0  0  0  0  0999 V2000
    0.0000    0.0000    0.0000 O   0  0  0  0  0  0  0  0  0  0  0  0
    1.2162    0.0000    0.0000 C   0  0  0  0  0  0  0  0  0  0  0  0
    2.0807    0.0000    1.2102 C   0  0  0  0  0  0  0  0  0  0  0  0
    1.8661   -0.0499   -1.2369 N   0  0  0  0  0  0  0  0  0  0  0  0
    1.0440   -0.1017   -2.4374 C   0  0  2  0  0  0  0  0  0  0  0  0
    0.2505   -0.9072   -2.3068 H   0  0  0  0  0  0  0  0  0  0  0  0
    1.9106   -0.4449   -3.6816 C   0  0  1  0  0  0  0  0  0  0  0  0
    2.6138   -1.2780   -3.4473 H   0  0  0  0  0  0  0  0  0  0  0  0
    1.0318   -0.7875   -4.7223 O   0  0  0  0  0  0  0  0  0  0  0  0
    2.6839    0.7826   -4.2300 C   0  0  2  0  0  0  0  0  0  0  0  0
    3.2933    0.4853   -5.1156 H   0  0  0  0  0  0  0  0  0  0  0  0
    3.5059    1.1920   -3.1620 O   0  0  0  0  0  0  0  0  0  0  0  0
    1.7697    1.9801   -4.5925 C   0  0  1  0  0  0  0  0  0  0  0  0
    2.3882    2.9294   -4.5799 H   0  0  0  0  0  0  0  0  0  0  0  0
    1.1456    1.8100   -5.9977 C   0  0  0  0  0  0  0  0  0  0  0  0
    0.5687    3.0786   -6.2392 O   0  0  0  0  0  0  0  0  0  0  0  0
    0.6929    2.1453   -3.6136 N   0  0  0  0  0  0  0  0  0  0  0  0
    0.3478    1.2128   -2.6652 C   0  0  2  0  0  0  0  0  0  0  0  0
   -0.7276    1.6934   -1.9758 N   0  0  0  0  0  0  0  0  0  0  0  0
   -1.1723    1.2332   -1.1678 H   0  0  0  0  0  0  0  0  0  0  0  0
   -1.0713    2.9405   -2.4981 C   0  0  0  0  0  0  0  0  0  0  0  0
   -0.1869    3.2203   -3.5388 C   0  0  0  0  0  0  0  0  0  0  0  0
   -2.2612    3.6484   -1.9380 C   0  0  0  0  0  0  0  0  0  0  0  0
   -3.0645    3.0154   -1.2897 O   0  0  0  0  0  0  0  0  0  0  0  0
   -2.3412    4.9880   -2.2200 N   0  0  0  0  0  0  0  0  0  0  0  0
   -3.4152    5.8103   -1.7583 C   0  0  0  0  0  0  0  0  0  0  0  0
   -3.1359    7.1692   -1.5504 C   0  0  0  0  0  0  0  0  0  0  0  0
   -4.1589    8.0135   -1.1326 C   0  0  0  0  0  0  0  0  0  0  0  0
   -5.4436    7.5129   -0.9204 C   0  0  0  0  0  0  0  0  0  0  0  0
   -5.7093    6.1621   -1.1309 C   0  0  0  0  0  0  0  0  0  0  0  0
   -4.6991    5.2991   -1.5523 C   0  0  0  0  0  0  0  0  0  0  0  0
    1.4705    0.1625    2.1214 H   0  0  0  0  0  0  0  0  0  0  0  0
    2.8556    0.7799    1.1956 H   0  0  0  0  0  0  0  0  0  0  0  0
    2.5901   -0.9707    1.3448 H   0  0  0  0  0  0  0  0  0  0  0  0
    2.8415    0.1933   -1.3588 H   0  0  0  0  0  0  0  0  0  0  0  0
    0.8625   -1.7582   -4.7563 H   0  0  0  0  0  0  0  0  0  0  0  0
    4.4205    1.4017   -3.4563 H   0  0  0  0  0  0  0  0  0  0  0  0
    0.3586    1.0301   -6.0228 H   0  0  0  0  0  0  0  0  0  0  0  0
    1.9153    1.5936   -6.7609 H   0  0  0  0  0  0  0  0  0  0  0  0
    0.1745    3.1219   -7.1385 H   0  0  0  0  0  0  0  0  0  0  0  0
   -0.1380    4.0575   -4.2269 H   0  0  0  0  0  0  0  0  0  0  0  0
   -1.5925    5.4575   -2.7140 H   0  0  0  0  0  0  0  0  0  0  0  0
   -2.1345    7.5629   -1.7015 H   0  0  0  0  0  0  0  0  0  0  0  0
   -3.9535    9.0722   -0.9679 H   0  0  0  0  0  0  0  0  0  0  0  0
   -6.2390    8.1802   -0.5881 H   0  0  0  0  0  0  0  0  0  0  0  0
   -6.7154    5.7716   -0.9661 H   0  0  0  0  0  0  0  0  0  0  0  0
   -4.9192    4.2427   -1.7122 H   0  0  0  0  0  0  0  0  0  0  0  0
  1  2  2  0  0  0  0
  2  3  1  0  0  0  0
  3 34  1  0  0  0  0
  3 32  1  0  0  0  0
  4  2  1  0  0  0  0
  5  7  1  0  0  0  0
  5  6  1  1  0  0  0
  5  4  1  0  0  0  0
  7 10  1  0  0  0  0
  7  8  1  1  0  0  0
  9  7  1  0  0  0  0
 10 13  1  0  0  0  0
 10 12  1  0  0  0  0
 10 11  1  6  0  0  0
 13 14  1  6  0  0  0
 13 17  1  0  0  0  0
 15 13  1  0  0  0  0
 16 15  1  0  0  0  0
 17 22  1  0  0  0  0
 18 17  1  1  0  0  0
 18  5  1  0  0  0  0
 18 19  1  0  0  0  0
 19 20  1  0  0  0  0
 21 19  1  0  0  0  0
 21 23  1  0  0  0  0
 22 21  2  0  0  0  0
 23 24  2  0  0  0  0
 25 23  1  0  0  0  0
 25 26  1  0  0  0  0
 26 31  2  0  0  0  0
 26 27  1  0  0  0  0
 27 28  2  0  0  0  0
 28 44  1  0  0  0  0
 28 29  1  0  0  0  0
 29 45  1  0  0  0  0
 30 46  1  0  0  0  0
 30 29  2  0  0  0  0
 31 30  1  0  0  0  0
 33  3  1  0  0  0  0
 35  4  1  0  0  0  0
 36  9  1  0  0  0  0
 37 12  1  0  0  0  0
 38 15  1  0  0  0  0
 39 15  1  0  0  0  0
 40 16  1  0  0  0  0
 41 22  1  0  0  0  0
 42 25  1  0  0  0  0
 43 27  1  0  0  0  0
 47 31  1  0  0  0  0
M  END
$$$$
