47
rmsd213.gzmat
O          0.00000        0.00000        0.00000
C          1.21690        0.00000        0.00000
C          2.07270        0.00000        1.21590
N          1.86750       -0.03060       -1.23610
C          1.04570       -0.06290       -2.43860
H          0.24960       -0.86770       -2.31850
C          1.91040       -0.39270       -3.68770
H          2.61830       -1.22440       -3.46210
O          1.02990       -0.73320       -4.72780
C          2.67820        0.83890       -4.23490
H          3.27630        0.54780       -5.13040
O          3.51490        1.23240       -3.17240
C          1.76240        2.04100       -4.57700
H          2.38230        2.98870       -4.56940
C          1.11250        1.88070       -5.97150
O          0.51170        3.14380       -6.18300
N          0.70100        2.20200       -3.58190
C          0.35500        1.25690       -2.64510
N         -0.70530        1.73900       -1.93500
H         -1.15570        1.26400       -1.14040
C         -1.03180        3.00450       -2.42440
C         -0.15930        3.28770       -3.47490
C         -2.19190        3.72730       -1.84060
O         -3.07230        3.10010       -1.28850
N         -2.24920        5.09170       -1.96450
C         -1.18410        5.88400       -2.49030
C         -1.39750        6.61600       -3.66230
C         -0.35620        7.38410       -4.17720
C          0.87810        7.42180       -3.53020
C          1.07520        6.70080       -2.35290
C          0.04570        5.92850       -1.82390
H          1.58990       -0.59130        2.02090
H          2.19330        1.02040        1.62000
H          3.07660       -0.42030        1.06260
H          2.84350        0.21230       -1.35280
H          0.85060       -1.70230       -4.75480
H          4.40830        1.50020       -3.48380
H          0.33760        1.08860       -5.99160
H          1.87000        1.69010       -6.75340
H          0.06830        3.17980       -7.05890
H         -0.10280        4.14800       -4.13810
H         -3.07470        5.58020       -1.61150
H         -2.36540        6.58890       -4.16370
H         -0.50970        7.96330       -5.08990
H          1.68830        8.02720       -3.93870
H          2.03430        6.75250       -1.83600
H          0.18960        5.38180       -0.89410
