47
rmsd52.gzmat
O          0.00000        0.00000        0.00000
C          1.21630        0.00000        0.00000
C          2.08220        0.00000        1.20900
N          1.86600       -0.03960       -1.23790
C          1.04320       -0.07560       -2.43820
H          0.23760       -0.87010       -2.30940
C          1.90220       -0.43090       -3.68440
H          2.61080       -1.25870       -3.44540
O          1.01730       -0.79220       -4.71350
C          2.67040        0.78930       -4.25560
H          3.26930        0.48120       -5.14460
O          3.50420        1.20090       -3.19800
C          1.75620        1.98670       -4.61930
H          2.37940        2.93230       -4.63490
C          1.09830        1.79800       -6.00660
O          0.44160        3.03370       -6.21680
N          0.70460        2.17180       -3.61800
C          0.36450        1.24900       -2.65850
N         -0.68730        1.75150       -1.94840
H         -1.10370        1.31830       -1.10920
C         -1.02410        3.00000       -2.47290
C         -0.15370        3.26260       -3.52920
C         -2.14620        3.75800       -1.84280
O         -2.57550        3.37940       -0.77550
N         -2.60710        4.83390       -2.55720
C         -3.65810        5.68680       -2.10060
C         -4.62270        5.25840       -1.18550
C         -5.63200        6.14170       -0.80560
C         -5.68140        7.43040       -1.33160
C         -4.71550        7.84680       -2.24820
C         -3.69930        6.98250       -2.63960
H          1.46200       -0.05080        2.12710
H          2.69730        0.90960        1.29070
H          2.76380       -0.86620        1.23790
H          2.84320        0.19780       -1.35650
H          0.83940       -1.76220       -4.72090
H          4.39630        1.47140       -3.51220
H          0.35370        0.97720       -6.01780
H          1.85590        1.63300       -6.79440
H          0.04260        3.07190       -7.11380
H         -0.08720        4.10580       -4.20700
H         -2.17770        5.08390       -3.44020
H         -4.59950        4.25180       -0.76460
H         -6.38830        5.81470       -0.08930
H         -6.47380        8.11470       -1.02750
H         -4.75580        8.85680       -2.65930
H         -2.94700        7.31630       -3.34940
