47
rmsd15.gzmat
O          0.00000        0.00000        0.00000
C          1.21710        0.00000        0.00000
C          2.07610        0.00000        1.21450
N          1.87060       -0.03690       -1.23420
C          1.05590       -0.06690       -2.44200
H          0.26750       -0.88020       -2.33430
C          1.93220       -0.37540       -3.68920
H          2.64810       -1.20140       -3.46850
O          1.06220       -0.71400       -4.73830
C          2.68830        0.87260       -4.21560
H          3.30460        0.59860       -5.10400
O          3.50180        1.27320       -3.13760
C          1.75690        2.06170       -4.55950
H          2.36490        3.01750       -4.56010
C          1.10140        1.88850       -5.95040
O          0.54420        3.16560       -6.19110
N          0.70070        2.21190       -3.55630
C          0.35550        1.24900       -2.64120
N         -0.71750        1.70970       -1.93020
H         -1.15540        1.21120       -1.14580
C         -1.04770        2.97860       -2.39960
C         -0.16820        3.29270       -3.43320
C         -2.24380        3.69700       -1.85850
O         -3.32650        3.16220       -1.87530
N         -1.97640        4.94550       -1.35490
C         -2.98760        5.73800       -0.72710
C         -4.30560        5.73350       -1.19050
C         -5.24730        6.53640       -0.54960
C         -4.87830        7.33230        0.53260
C         -3.55830        7.33120        0.98390
C         -2.60310        6.53580        0.35950
H          2.65540       -0.93480        1.31160
H          1.45340        0.07880        2.12860
H          2.79030        0.83630        1.23760
H          2.84720        0.20870       -1.34600
H          0.88690       -1.68400       -4.77140
H          4.40100        1.54210       -3.43210
H          0.29980        1.12300       -5.95200
H          1.85110        1.65060       -6.72680
H          0.11820        3.20390       -7.07640
H         -0.11870        4.15900       -4.08570
H         -1.02860        5.30160       -1.32100
H         -4.60200        5.11060       -2.03540
H         -6.28070        6.53770       -0.90130
H         -5.62150        7.95720        1.02870
H         -3.27290        7.95380        1.83320
H         -1.57840        6.53110        0.72070
