rmsd213.gzmat
 OpenBabel08211713363D

 47 49  0  0  1  0  0  0  0  0999 V2000
    0.0000    0.0000    0.0000 O   0  0  0  0  0  0  0  0  0  0  0  0
    1.2169    0.0000    0.0000 C   0  0  0  0  0  0  0  0  0  0  0  0
    2.0727    0.0000    1.2159 C   0  0  0  0  0  0  0  0  0  0  0  0
    1.8675   -0.0306   -1.2361 N   0  0  0  0  0  0  0  0  0  0  0  0
    1.0457   -0.0629   -2.4386 C   0  0  2  0  0  0  0  0  0  0  0  0
    0.2496   -0.8677   -2.3185 H   0  0  0  0  0  0  0  0  0  0  0  0
    1.9104   -0.3927   -3.6877 C   0  0  1  0  0  0  0  0  0  0  0  0
    2.6183   -1.2244   -3.4621 H   0  0  0  0  0  0  0  0  0  0  0  0
    1.0299   -0.7332   -4.7278 O   0  0  0  0  0  0  0  0  0  0  0  0
    2.6782    0.8389   -4.2349 C   0  0  2  0  0  0  0  0  0  0  0  0
    3.2763    0.5478   -5.1304 H   0  0  0  0  0  0  0  0  0  0  0  0
    3.5149    1.2324   -3.1724 O   0  0  0  0  0  0  0  0  0  0  0  0
    1.7624    2.0410   -4.5770 C   0  0  1  0  0  0  0  0  0  0  0  0
    2.3823    2.9887   -4.5694 H   0  0  0  0  0  0  0  0  0  0  0  0
    1.1125    1.8807   -5.9715 C   0  0  0  0  0  0  0  0  0  0  0  0
    0.5117    3.1438   -6.1830 O   0  0  0  0  0  0  0  0  0  0  0  0
    0.7010    2.2020   -3.5819 N   0  0  0  0  0  0  0  0  0  0  0  0
    0.3550    1.2569   -2.6451 C   0  0  2  0  0  0  0  0  0  0  0  0
   -0.7053    1.7390   -1.9350 N   0  0  0  0  0  0  0  0  0  0  0  0
   -1.1557    1.2640   -1.1404 H   0  0  0  0  0  0  0  0  0  0  0  0
   -1.0318    3.0045   -2.4244 C   0  0  0  0  0  0  0  0  0  0  0  0
   -0.1593    3.2877   -3.4749 C   0  0  0  0  0  0  0  0  0  0  0  0
   -2.1919    3.7273   -1.8406 C   0  0  0  0  0  0  0  0  0  0  0  0
   -3.0723    3.1001   -1.2885 O   0  0  0  0  0  0  0  0  0  0  0  0
   -2.2492    5.0917   -1.9645 N   0  0  0  0  0  0  0  0  0  0  0  0
   -1.1841    5.8840   -2.4903 C   0  0  0  0  0  0  0  0  0  0  0  0
   -1.3975    6.6160   -3.6623 C   0  0  0  0  0  0  0  0  0  0  0  0
   -0.3562    7.3841   -4.1772 C   0  0  0  0  0  0  0  0  0  0  0  0
    0.8781    7.4218   -3.5302 C   0  0  0  0  0  0  0  0  0  0  0  0
    1.0752    6.7008   -2.3529 C   0  0  0  0  0  0  0  0  0  0  0  0
    0.0457    5.9285   -1.8239 C   0  0  0  0  0  0  0  0  0  0  0  0
    1.5899   -0.5913    2.0209 H   0  0  0  0  0  0  0  0  0  0  0  0
    2.1933    1.0204    1.6200 H   0  0  0  0  0  0  0  0  0  0  0  0
    3.0766   -0.4203    1.0626 H   0  0  0  0  0  0  0  0  0  0  0  0
    2.8435    0.2123   -1.3528 H   0  0  0  0  0  0  0  0  0  0  0  0
    0.8506   -1.7023   -4.7548 H   0  0  0  0  0  0  0  0  0  0  0  0
    4.4083    1.5002   -3.4838 H   0  0  0  0  0  0  0  0  0  0  0  0
    0.3376    1.0886   -5.9916 H   0  0  0  0  0  0  0  0  0  0  0  0
    1.8700    1.6901   -6.7534 H   0  0  0  0  0  0  0  0  0  0  0  0
    0.0683    3.1798   -7.0589 H   0  0  0  0  0  0  0  0  0  0  0  0
   -0.1028    4.1480   -4.1381 H   0  0  0  0  0  0  0  0  0  0  0  0
   -3.0747    5.5802   -1.6115 H   0  0  0  0  0  0  0  0  0  0  0  0
   -2.3654    6.5889   -4.1637 H   0  0  0  0  0  0  0  0  0  0  0  0
   -0.5097    7.9633   -5.0899 H   0  0  0  0  0  0  0  0  0  0  0  0
    1.6883    8.0272   -3.9387 H   0  0  0  0  0  0  0  0  0  0  0  0
    2.0343    6.7525   -1.8360 H   0  0  0  0  0  0  0  0  0  0  0  0
    0.1896    5.3818   -0.8941 H   0  0  0  0  0  0  0  0  0  0  0  0
  2  1  2  0  0  0  0
  2  3  1  0  0  0  0
  3 33  1  0  0  0  0
  3 32  1  0  0  0  0
  4  2  1  0  0  0  0
  5  7  1  0  0  0  0
  5  6  1  1  0  0  0
  5  4  1  0  0  0  0
  7 10  1  0  0  0  0
  7  8  1  1  0  0  0
  9  7  1  0  0  0  0
 10 13  1  0  0  0  0
 10 12  1  0  0  0  0
 10 11  1  6  0  0  0
 13 14  1  6  0  0  0
 13 17  1  0  0  0  0
 15 13  1  0  0  0  0
 16 15  1  0  0  0  0
 17 22  1  0  0  0  0
 18 17  1  1  0  0  0
 18  5  1  0  0  0  0
 18 19  1  0  0  0  0
 19 20  1  0  0  0  0
 21 19  1  0  0  0  0
 21 23  1  0  0  0  0
 22 21  2  0  0  0  0
 23 24  2  0  0  0  0
 25 23  1  0  0  0  0
 25 42  1  0  0  0  0
 26 25  1  0  0  0  0
 26 31  2  0  0  0  0
 27 26  1  0  0  0  0
 28 27  2  0  0  0  0
 28 29  1  0  0  0  0
 29 30  2  0  0  0  0
 30 46  1  0  0  0  0
 30 31  1  0  0  0  0
 31 47  1  0  0  0  0
 34  3  1  0  0  0  0
 35  4  1  0  0  0  0
 36  9  1  0  0  0  0
 37 12  1  0  0  0  0
 38 15  1  0  0  0  0
 39 15  1  0  0  0  0
 40 16  1  0  0  0  0
 41 22  1  0  0  0  0
 43 27  1  0  0  0  0
 44 28  1  0  0  0  0
 45 29  1  0  0  0  0
M  END
$$$$
