rmsd165.gzmat
 OpenBabel08211713363D

 47 49  0  0  1  0  0  0  0  0999 V2000
    0.0000    0.0000    0.0000 O   0  0  0  0  0  0  0  0  0  0  0  0
    1.2172    0.0000    0.0000 C   0  0  0  0  0  0  0  0  0  0  0  0
    2.0724    0.0000    1.2154 C   0  0  0  0  0  0  0  0  0  0  0  0
    1.8624   -0.0537   -1.2388 N   0  0  0  0  0  0  0  0  0  0  0  0
    1.0330   -0.1185   -2.4342 C   0  0  2  0  0  0  0  0  0  0  0  0
    0.2213   -0.9023   -2.2772 H   0  0  0  0  0  0  0  0  0  0  0  0
    1.8827   -0.5243   -3.6719 C   0  0  1  0  0  0  0  0  0  0  0  0
    2.6081   -1.3268   -3.3981 H   0  0  0  0  0  0  0  0  0  0  0  0
    0.9905   -0.9538   -4.6681 O   0  0  0  0  0  0  0  0  0  0  0  0
    2.6231    0.6757   -4.3174 C   0  0  2  0  0  0  0  0  0  0  0  0
    3.2168    0.3324   -5.1970 H   0  0  0  0  0  0  0  0  0  0  0  0
    3.4619    1.1519   -3.2918 O   0  0  0  0  0  0  0  0  0  0  0  0
    1.6800    1.8333   -4.7309 C   0  0  1  0  0  0  0  0  0  0  0  0
    2.2892    2.7794   -4.8555 H   0  0  0  0  0  0  0  0  0  0  0  0
    0.9464    1.5331   -6.0593 C   0  0  0  0  0  0  0  0  0  0  0  0
    0.3101    2.7629   -6.3522 O   0  0  0  0  0  0  0  0  0  0  0  0
    0.6790    2.0843   -3.6933 N   0  0  0  0  0  0  0  0  0  0  0  0
    0.3622    1.2053   -2.6862 C   0  0  2  0  0  0  0  0  0  0  0  0
   -0.6566    1.7518   -1.9594 N   0  0  0  0  0  0  0  0  0  0  0  0
   -1.0495    1.3553   -1.0916 H   0  0  0  0  0  0  0  0  0  0  0  0
   -0.9946    2.9824   -2.5222 C   0  0  0  0  0  0  0  0  0  0  0  0
   -0.1610    3.1897   -3.6190 C   0  0  0  0  0  0  0  0  0  0  0  0
   -2.0652    3.8041   -1.8830 C   0  0  0  0  0  0  0  0  0  0  0  0
   -2.3562    3.5923   -0.7274 O   0  0  0  0  0  0  0  0  0  0  0  0
   -2.6330    4.7516   -2.6972 N   0  0  0  0  0  0  0  0  0  0  0  0
   -3.6840    5.6203   -2.2746 C   0  0  0  0  0  0  0  0  0  0  0  0
   -4.4928    6.1712   -3.2808 C   0  0  0  0  0  0  0  0  0  0  0  0
   -5.5150    7.0440   -2.9256 C   0  0  0  0  0  0  0  0  0  0  0  0
   -5.7353    7.3633   -1.5855 C   0  0  0  0  0  0  0  0  0  0  0  0
   -4.9253    6.8121   -0.5961 C   0  0  0  0  0  0  0  0  0  0  0  0
   -3.8905    5.9401   -0.9302 C   0  0  0  0  0  0  0  0  0  0  0  0
    2.1526   -1.0237    1.6303 H   0  0  0  0  0  0  0  0  0  0  0  0
    1.6104    0.6143    2.0139 H   0  0  0  0  0  0  0  0  0  0  0  0
    3.0940    0.3707    1.0599 H   0  0  0  0  0  0  0  0  0  0  0  0
    2.8385    0.1814   -1.3671 H   0  0  0  0  0  0  0  0  0  0  0  0
    0.8592   -1.9309   -4.6489 H   0  0  0  0  0  0  0  0  0  0  0  0
    4.3276    1.4665   -3.6373 H   0  0  0  0  0  0  0  0  0  0  0  0
    0.1769    0.7418   -5.9527 H   0  0  0  0  0  0  0  0  0  0  0  0
    1.6546    1.2652   -6.8633 H   0  0  0  0  0  0  0  0  0  0  0  0
   -0.0891    2.7474   -7.2496 H   0  0  0  0  0  0  0  0  0  0  0  0
   -0.1077    4.0061   -4.3304 H   0  0  0  0  0  0  0  0  0  0  0  0
   -2.3727    4.8025   -3.6760 H   0  0  0  0  0  0  0  0  0  0  0  0
   -4.3351    5.9184   -4.3258 H   0  0  0  0  0  0  0  0  0  0  0  0
   -6.1494    7.4783   -3.6997 H   0  0  0  0  0  0  0  0  0  0  0  0
   -6.5418    8.0447   -1.3145 H   0  0  0  0  0  0  0  0  0  0  0  0
   -5.0973    7.0619    0.4524 H   0  0  0  0  0  0  0  0  0  0  0  0
   -3.2604    5.5217   -0.1436 H   0  0  0  0  0  0  0  0  0  0  0  0
  2  1  2  0  0  0  0
  2  3  1  0  0  0  0
  3 32  1  0  0  0  0
  3 33  1  0  0  0  0
  4  2  1  0  0  0  0
  5  7  1  0  0  0  0
  5  6  1  1  0  0  0
  5  4  1  0  0  0  0
  7 10  1  0  0  0  0
  7  8  1  1  0  0  0
  9 36  1  0  0  0  0
  9  7  1  0  0  0  0
 10 13  1  0  0  0  0
 10 12  1  0  0  0  0
 10 11  1  6  0  0  0
 13 14  1  6  0  0  0
 13 17  1  0  0  0  0
 15 38  1  0  0  0  0
 15 13  1  0  0  0  0
 16 15  1  0  0  0  0
 17 22  1  0  0  0  0
 18 17  1  1  0  0  0
 18  5  1  0  0  0  0
 18 19  1  0  0  0  0
 19 20  1  0  0  0  0
 21 19  1  0  0  0  0
 21 23  1  0  0  0  0
 22 21  2  0  0  0  0
 23 24  2  0  0  0  0
 25 26  1  0  0  0  0
 25 23  1  0  0  0  0
 26 31  2  0  0  0  0
 27 28  2  0  0  0  0
 27 26  1  0  0  0  0
 28 29  1  0  0  0  0
 29 45  1  0  0  0  0
 29 30  2  0  0  0  0
 30 46  1  0  0  0  0
 31 30  1  0  0  0  0
 31 47  1  0  0  0  0
 34  3  1  0  0  0  0
 35  4  1  0  0  0  0
 37 12  1  0  0  0  0
 39 15  1  0  0  0  0
 40 16  1  0  0  0  0
 41 22  1  0  0  0  0
 42 25  1  0  0  0  0
 43 27  1  0  0  0  0
 44 28  1  0  0  0  0
M  END
$$$$
