rmsd52.gzmat
 OpenBabel08211713363D

 47 49  0  0  1  0  0  0  0  0999 V2000
    0.0000    0.0000    0.0000 O   0  0  0  0  0  0  0  0  0  0  0  0
    1.2163    0.0000    0.0000 C   0  0  0  0  0  0  0  0  0  0  0  0
    2.0822    0.0000    1.2090 C   0  0  0  0  0  0  0  0  0  0  0  0
    1.8660   -0.0396   -1.2379 N   0  0  0  0  0  0  0  0  0  0  0  0
    1.0432   -0.0756   -2.4382 C   0  0  2  0  0  0  0  0  0  0  0  0
    0.2376   -0.8701   -2.3094 H   0  0  0  0  0  0  0  0  0  0  0  0
    1.9022   -0.4309   -3.6844 C   0  0  1  0  0  0  0  0  0  0  0  0
    2.6108   -1.2587   -3.4454 H   0  0  0  0  0  0  0  0  0  0  0  0
    1.0173   -0.7922   -4.7135 O   0  0  0  0  0  0  0  0  0  0  0  0
    2.6704    0.7893   -4.2556 C   0  0  2  0  0  0  0  0  0  0  0  0
    3.2693    0.4812   -5.1446 H   0  0  0  0  0  0  0  0  0  0  0  0
    3.5042    1.2009   -3.1980 O   0  0  0  0  0  0  0  0  0  0  0  0
    1.7562    1.9867   -4.6193 C   0  0  1  0  0  0  0  0  0  0  0  0
    2.3794    2.9323   -4.6349 H   0  0  0  0  0  0  0  0  0  0  0  0
    1.0983    1.7980   -6.0066 C   0  0  0  0  0  0  0  0  0  0  0  0
    0.4416    3.0337   -6.2168 O   0  0  0  0  0  0  0  0  0  0  0  0
    0.7046    2.1718   -3.6180 N   0  0  0  0  0  0  0  0  0  0  0  0
    0.3645    1.2490   -2.6585 C   0  0  2  0  0  0  0  0  0  0  0  0
   -0.6873    1.7515   -1.9484 N   0  0  0  0  0  0  0  0  0  0  0  0
   -1.1037    1.3183   -1.1092 H   0  0  0  0  0  0  0  0  0  0  0  0
   -1.0241    3.0000   -2.4729 C   0  0  0  0  0  0  0  0  0  0  0  0
   -0.1537    3.2626   -3.5292 C   0  0  0  0  0  0  0  0  0  0  0  0
   -2.1462    3.7580   -1.8428 C   0  0  0  0  0  0  0  0  0  0  0  0
   -2.5755    3.3794   -0.7755 O   0  0  0  0  0  0  0  0  0  0  0  0
   -2.6071    4.8339   -2.5572 N   0  0  0  0  0  0  0  0  0  0  0  0
   -3.6581    5.6868   -2.1006 C   0  0  0  0  0  0  0  0  0  0  0  0
   -4.6227    5.2584   -1.1855 C   0  0  0  0  0  0  0  0  0  0  0  0
   -5.6320    6.1417   -0.8056 C   0  0  0  0  0  0  0  0  0  0  0  0
   -5.6814    7.4304   -1.3316 C   0  0  0  0  0  0  0  0  0  0  0  0
   -4.7155    7.8468   -2.2482 C   0  0  0  0  0  0  0  0  0  0  0  0
   -3.6993    6.9825   -2.6396 C   0  0  0  0  0  0  0  0  0  0  0  0
    1.4620   -0.0508    2.1271 H   0  0  0  0  0  0  0  0  0  0  0  0
    2.6973    0.9096    1.2907 H   0  0  0  0  0  0  0  0  0  0  0  0
    2.7638   -0.8662    1.2379 H   0  0  0  0  0  0  0  0  0  0  0  0
    2.8432    0.1978   -1.3565 H   0  0  0  0  0  0  0  0  0  0  0  0
    0.8394   -1.7622   -4.7209 H   0  0  0  0  0  0  0  0  0  0  0  0
    4.3963    1.4714   -3.5122 H   0  0  0  0  0  0  0  0  0  0  0  0
    0.3537    0.9772   -6.0178 H   0  0  0  0  0  0  0  0  0  0  0  0
    1.8559    1.6330   -6.7944 H   0  0  0  0  0  0  0  0  0  0  0  0
    0.0426    3.0719   -7.1138 H   0  0  0  0  0  0  0  0  0  0  0  0
   -0.0872    4.1058   -4.2070 H   0  0  0  0  0  0  0  0  0  0  0  0
   -2.1777    5.0839   -3.4402 H   0  0  0  0  0  0  0  0  0  0  0  0
   -4.5995    4.2518   -0.7646 H   0  0  0  0  0  0  0  0  0  0  0  0
   -6.3883    5.8147   -0.0893 H   0  0  0  0  0  0  0  0  0  0  0  0
   -6.4738    8.1147   -1.0275 H   0  0  0  0  0  0  0  0  0  0  0  0
   -4.7558    8.8568   -2.6593 H   0  0  0  0  0  0  0  0  0  0  0  0
   -2.9470    7.3163   -3.3494 H   0  0  0  0  0  0  0  0  0  0  0  0
  1  2  2  0  0  0  0
  2  3  1  0  0  0  0
  3 34  1  0  0  0  0
  3 33  1  0  0  0  0
  3 32  1  0  0  0  0
  4  2  1  0  0  0  0
  5  7  1  0  0  0  0
  5  6  1  1  0  0  0
  5  4  1  0  0  0  0
  7 10  1  0  0  0  0
  7  8  1  1  0  0  0
  9  7  1  0  0  0  0
 10 13  1  0  0  0  0
 10 12  1  0  0  0  0
 10 11  1  6  0  0  0
 13 14  1  6  0  0  0
 13 17  1  0  0  0  0
 15 13  1  0  0  0  0
 16 15  1  0  0  0  0
 17 22  1  0  0  0  0
 18 17  1  1  0  0  0
 18  5  1  0  0  0  0
 18 19  1  0  0  0  0
 19 20  1  0  0  0  0
 21 19  1  0  0  0  0
 21 23  1  0  0  0  0
 22 21  2  0  0  0  0
 23 24  2  0  0  0  0
 25 26  1  0  0  0  0
 25 23  1  0  0  0  0
 26 27  2  0  0  0  0
 27 28  1  0  0  0  0
 27 43  1  0  0  0  0
 28 44  1  0  0  0  0
 29 45  1  0  0  0  0
 29 28  2  0  0  0  0
 30 29  1  0  0  0  0
 31 30  2  0  0  0  0
 31 26  1  0  0  0  0
 35  4  1  0  0  0  0
 36  9  1  0  0  0  0
 37 12  1  0  0  0  0
 38 15  1  0  0  0  0
 39 15  1  0  0  0  0
 40 16  1  0  0  0  0
 41 22  1  0  0  0  0
 42 25  1  0  0  0  0
 46 30  1  0  0  0  0
 47 31  1  0  0  0  0
M  END
$$$$
