rmsd173.gzmat
 OpenBabel08211713363D

 47 49  0  0  1  0  0  0  0  0999 V2000
    0.0000    0.0000    0.0000 O   0  0  0  0  0  0  0  0  0  0  0  0
    1.2164    0.0000    0.0000 C   0  0  0  0  0  0  0  0  0  0  0  0
    2.0780    0.0000    1.2119 C   0  0  0  0  0  0  0  0  0  0  0  0
    1.8663   -0.0439   -1.2372 N   0  0  0  0  0  0  0  0  0  0  0  0
    1.0443   -0.0750   -2.4388 C   0  0  2  0  0  0  0  0  0  0  0  0
    0.2376   -0.8687   -2.3155 H   0  0  0  0  0  0  0  0  0  0  0  0
    1.9056   -0.4235   -3.6852 C   0  0  1  0  0  0  0  0  0  0  0  0
    2.6069   -1.2587   -3.4523 H   0  0  0  0  0  0  0  0  0  0  0  0
    1.0195   -0.7653   -4.7202 O   0  0  0  0  0  0  0  0  0  0  0  0
    2.6830    0.7986   -4.2397 C   0  0  2  0  0  0  0  0  0  0  0  0
    3.2876    0.4963   -5.1269 H   0  0  0  0  0  0  0  0  0  0  0  0
    3.5122    1.2002   -3.1746 O   0  0  0  0  0  0  0  0  0  0  0  0
    1.7745    2.0015   -4.5999 C   0  0  1  0  0  0  0  0  0  0  0  0
    2.4017    2.9451   -4.6036 H   0  0  0  0  0  0  0  0  0  0  0  0
    1.1262    1.8291   -5.9934 C   0  0  0  0  0  0  0  0  0  0  0  0
    0.5344    3.0936   -6.2235 O   0  0  0  0  0  0  0  0  0  0  0  0
    0.7173    2.1832   -3.6035 N   0  0  0  0  0  0  0  0  0  0  0  0
    0.3705    1.2543   -2.6520 C   0  0  2  0  0  0  0  0  0  0  0  0
   -0.6721    1.7616   -1.9333 N   0  0  0  0  0  0  0  0  0  0  0  0
   -1.0981    1.3212   -1.1018 H   0  0  0  0  0  0  0  0  0  0  0  0
   -0.9921    3.0235   -2.4375 C   0  0  0  0  0  0  0  0  0  0  0  0
   -0.1270    3.2837   -3.4990 C   0  0  0  0  0  0  0  0  0  0  0  0
   -2.0829    3.7889   -1.7617 C   0  0  0  0  0  0  0  0  0  0  0  0
   -2.5635    3.3255   -0.7504 O   0  0  0  0  0  0  0  0  0  0  0  0
   -2.4311    4.9774   -2.3507 N   0  0  0  0  0  0  0  0  0  0  0  0
   -3.4313    5.8593   -1.8416 C   0  0  0  0  0  0  0  0  0  0  0  0
   -3.9862    5.7235   -0.5671 C   0  0  0  0  0  0  0  0  0  0  0  0
   -4.9471    6.6418   -0.1459 C   0  0  0  0  0  0  0  0  0  0  0  0
   -5.3453    7.6850   -0.9773 C   0  0  0  0  0  0  0  0  0  0  0  0
   -4.7816    7.8159   -2.2468 C   0  0  0  0  0  0  0  0  0  0  0  0
   -3.8265    6.9081   -2.6891 C   0  0  0  0  0  0  0  0  0  0  0  0
    1.4635    0.1687    2.1196 H   0  0  0  0  0  0  0  0  0  0  0  0
    2.8550    0.7781    1.1978 H   0  0  0  0  0  0  0  0  0  0  0  0
    2.5845   -0.9712    1.3524 H   0  0  0  0  0  0  0  0  0  0  0  0
    2.8443    0.1911   -1.3551 H   0  0  0  0  0  0  0  0  0  0  0  0
    0.8737   -1.7390   -4.7737 H   0  0  0  0  0  0  0  0  0  0  0  0
    4.4082    1.4650   -3.4821 H   0  0  0  0  0  0  0  0  0  0  0  0
    0.3402    1.0475   -6.0060 H   0  0  0  0  0  0  0  0  0  0  0  0
    1.8832    1.6148   -6.7693 H   0  0  0  0  0  0  0  0  0  0  0  0
    0.1897    3.1593   -7.1413 H   0  0  0  0  0  0  0  0  0  0  0  0
   -0.0560    4.1287   -4.1747 H   0  0  0  0  0  0  0  0  0  0  0  0
   -2.0034    5.2499   -3.2298 H   0  0  0  0  0  0  0  0  0  0  0  0
   -3.6868    4.9178    0.1056 H   0  0  0  0  0  0  0  0  0  0  0  0
   -5.3883    6.5372    0.8476 H   0  0  0  0  0  0  0  0  0  0  0  0
   -6.0957    8.3985   -0.6364 H   0  0  0  0  0  0  0  0  0  0  0  0
   -5.0919    8.6349   -2.8975 H   0  0  0  0  0  0  0  0  0  0  0  0
   -3.3985    7.0157   -3.6825 H   0  0  0  0  0  0  0  0  0  0  0  0
  1  2  2  0  0  0  0
  2  3  1  0  0  0  0
  3 34  1  0  0  0  0
  3 32  1  0  0  0  0
  4  2  1  0  0  0  0
  5  7  1  0  0  0  0
  5  6  1  1  0  0  0
  5  4  1  0  0  0  0
  7 10  1  0  0  0  0
  7  8  1  1  0  0  0
  9  7  1  0  0  0  0
 10 13  1  0  0  0  0
 10 12  1  0  0  0  0
 10 11  1  6  0  0  0
 13 14  1  6  0  0  0
 13 17  1  0  0  0  0
 15 13  1  0  0  0  0
 16 15  1  0  0  0  0
 17 22  1  0  0  0  0
 18 17  1  1  0  0  0
 18  5  1  0  0  0  0
 18 19  1  0  0  0  0
 19 20  1  0  0  0  0
 21 19  1  0  0  0  0
 21 23  1  0  0  0  0
 22 21  2  0  0  0  0
 23 24  2  0  0  0  0
 25 26  1  0  0  0  0
 25 23  1  0  0  0  0
 26 27  2  0  0  0  0
 27 28  1  0  0  0  0
 27 43  1  0  0  0  0
 28 44  1  0  0  0  0
 29 45  1  0  0  0  0
 29 28  2  0  0  0  0
 30 29  1  0  0  0  0
 31 30  2  0  0  0  0
 31 26  1  0  0  0  0
 33  3  1  0  0  0  0
 35  4  1  0  0  0  0
 36  9  1  0  0  0  0
 37 12  1  0  0  0  0
 38 15  1  0  0  0  0
 39 15  1  0  0  0  0
 40 16  1  0  0  0  0
 41 22  1  0  0  0  0
 42 25  1  0  0  0  0
 46 30  1  0  0  0  0
 47 31  1  0  0  0  0
M  END
$$$$
