49
rmsd88.gzmat
S          0.00000        0.00000        0.00000
O          1.45160        0.00000        0.00000
O         -0.75080        0.00000       -1.23830
C         -0.53850        1.43730        0.93050
C          0.22910        1.62050        2.24760
H          1.23610        1.13230        2.19370
C          0.45850        3.13860        2.54020
H         -0.55360        3.58210        2.75760
N          1.23810        3.26060        3.79820
C          2.66540        2.86530        3.70020
C          3.51770        4.14650        3.54500
C          2.59900        5.30240        3.97610
C          1.25040        4.64130        4.34640
C          1.07800        3.88030        1.37250
C          0.65730        5.18860        1.11820
C          1.23730        5.92770        0.09030
C          2.23800        5.36180       -0.69700
C          2.64660        4.05150       -0.45920
C          2.06700        3.31130        0.56880
C         -0.55310        0.99690        3.40930
C         -0.52690       -1.40270        0.93830
C         -1.82460       -1.88610        0.79070
C         -2.24420       -2.98670        1.53640
C         -1.36180       -3.60580        2.42070
C         -0.05830       -3.13050        2.55430
C          0.36170       -2.03010        1.80800
H         -1.62750        1.39860        1.11490
H         -0.41540        2.32690        0.27450
H          2.84720        2.14720        2.88090
H          2.91180        2.34380        4.65060
H          4.43000        4.09750        4.15740
H          3.84390        4.27570        2.49900
H          3.01690        5.86040        4.82660
H          2.46800        6.02770        3.15600
H          1.15310        4.54090        5.44950
H          0.38910        5.23670        4.00020
H         -0.12560        5.63830        1.72480
H          0.90550        6.94660       -0.09940
H          2.69210        5.93870       -1.50000
H          3.41580        3.59640       -1.08210
H          2.38560        2.27580        0.72290
H         -1.55100        1.43300        3.51420
H         -0.03170        1.17630        4.36240
H         -0.66420       -0.08550        3.29880
H         -2.52060       -1.42390        0.08260
H         -3.25750       -3.36570        1.42400
H         -1.68980       -4.46540        3.00280
H          0.63290       -3.62170        3.23550
H          1.39520       -1.67770        1.90740
