
     RDKit          3D

 49 51  0  0  0  0  0  0  0  0999 V2000
   -0.0706    0.0081   -0.0373 S   0  0  0  0  0  0  0  0  0  0  0  0
    1.4042    0.0224   -0.0983 O   0  0  0  0  0  0  0  0  0  0  0  0
   -0.8801    0.0135   -1.2642 O   0  0  0  0  0  0  0  0  0  0  0  0
   -0.6012    1.4455    0.9364 C   0  0  0  0  0  0  0  0  0  0  0  0
    0.1676    1.6391    2.2484 C   0  0  1  0  0  0  0  0  0  0  0  0
    1.1335    1.1206    2.1408 H   0  0  0  0  0  0  0  0  0  0  0  0
    0.4819    3.1360    2.5032 C   0  0  1  0  0  0  0  0  0  0  0  0
   -0.4832    3.6318    2.6996 H   0  0  0  0  0  0  0  0  0  0  0  0
    1.2430    3.2645    3.7517 N   0  0  0  0  0  0  0  0  0  0  0  0
    2.6645    2.9228    3.7183 C   0  0  0  0  0  0  0  0  0  0  0  0
    3.4430    4.2529    3.5562 C   0  0  0  0  0  0  0  0  0  0  0  0
    2.4644    5.3368    4.0718 C   0  0  0  0  0  0  0  0  0  0  0  0
    1.1841    4.5456    4.4500 C   0  0  0  0  0  0  0  0  0  0  0  0
    1.1151    3.8576    1.3145 C   0  0  0  0  0  0  0  0  0  0  0  0
    0.7947    5.2047    1.0854 C   0  0  0  0  0  0  0  0  0  0  0  0
    1.4260    5.9383    0.0789 C   0  0  0  0  0  0  0  0  0  0  0  0
    2.3880    5.3280   -0.7303 C   0  0  0  0  0  0  0  0  0  0  0  0
    2.6953    3.9790   -0.5337 C   0  0  0  0  0  0  0  0  0  0  0  0
    2.0648    3.2492    0.4770 C   0  0  0  0  0  0  0  0  0  0  0  0
   -0.5814    1.0278    3.4354 C   0  0  0  0  0  0  0  0  0  0  0  0
   -0.5447   -1.4279    0.9321 C   0  0  0  0  0  0  0  0  0  0  0  0
   -1.8739   -1.8556    0.8986 C   0  0  0  0  0  0  0  0  0  0  0  0
   -2.2471   -2.9521    1.6774 C   0  0  0  0  0  0  0  0  0  0  0  0
   -1.2935   -3.6118    2.4613 C   0  0  0  0  0  0  0  0  0  0  0  0
    0.0384   -3.1856    2.4636 C   0  0  0  0  0  0  0  0  0  0  0  0
    0.4226   -2.0861    1.6924 C   0  0  0  0  0  0  0  0  0  0  0  0
   -1.6866    1.3361    1.0758 H   0  0  0  0  0  0  0  0  0  0  0  0
   -0.4313    2.2555    0.2120 H   0  0  0  0  0  0  0  0  0  0  0  0
    2.8845    2.1974    2.9236 H   0  0  0  0  0  0  0  0  0  0  0  0
    2.9348    2.4433    4.6766 H   0  0  0  0  0  0  0  0  0  0  0  0
    4.3902    4.2365    4.1161 H   0  0  0  0  0  0  0  0  0  0  0  0
    3.6863    4.4263    2.4989 H   0  0  0  0  0  0  0  0  0  0  0  0
    2.8630    5.8875    4.9373 H   0  0  0  0  0  0  0  0  0  0  0  0
    2.2541    6.0720    3.2829 H   0  0  0  0  0  0  0  0  0  0  0  0
    1.1782    4.3546    5.5388 H   0  0  0  0  0  0  0  0  0  0  0  0
    0.2517    5.0780    4.2122 H   0  0  0  0  0  0  0  0  0  0  0  0
    0.0385    5.6880    1.7102 H   0  0  0  0  0  0  0  0  0  0  0  0
    1.1613    6.9870   -0.0781 H   0  0  0  0  0  0  0  0  0  0  0  0
    2.8828    5.8962   -1.5216 H   0  0  0  0  0  0  0  0  0  0  0  0
    3.4251    3.4831   -1.1781 H   0  0  0  0  0  0  0  0  0  0  0  0
    2.2932    2.1872    0.5766 H   0  0  0  0  0  0  0  0  0  0  0  0
   -1.5583    1.5228    3.5698 H   0  0  0  0  0  0  0  0  0  0  0  0
   -0.0058    1.1706    4.3584 H   0  0  0  0  0  0  0  0  0  0  0  0
   -0.7639   -0.0460    3.2877 H   0  0  0  0  0  0  0  0  0  0  0  0
   -2.5932   -1.3400    0.2596 H   0  0  0  0  0  0  0  0  0  0  0  0
   -3.2825   -3.2999    1.6662 H   0  0  0  0  0  0  0  0  0  0  0  0
   -1.5902   -4.4704    3.0681 H   0  0  0  0  0  0  0  0  0  0  0  0
    0.7815   -3.7131    3.0658 H   0  0  0  0  0  0  0  0  0  0  0  0
    1.4548   -1.7343    1.6644 H   0  0  0  0  0  0  0  0  0  0  0  0
  1  2  2  0
  1  3  2  0
  1  4  1  0
  1 21  1  0
  4  5  1  0
  4 27  1  0
  4 28  1  0
  5  6  1  6
  5  7  1  0
  5 20  1  0
  7  8  1  1
  7  9  1  0
  7 14  1  0
  9 10  1  0
  9 13  1  0
 10 11  1  0
 10 29  1  0
 10 30  1  0
 11 12  1  0
 11 31  1  0
 11 32  1  0
 12 13  1  0
 12 33  1  0
 12 34  1  0
 13 35  1  0
 13 36  1  0
 14 15  2  0
 14 19  1  0
 15 16  1  0
 15 37  1  0
 16 17  2  0
 16 38  1  0
 17 18  1  0
 17 39  1  0
 18 19  2  0
 18 40  1  0
 19 41  1  0
 20 42  1  0
 20 43  1  0
 20 44  1  0
 21 22  2  0
 21 26  1  0
 22 23  1  0
 22 45  1  0
 23 24  2  0
 23 46  1  0
 24 25  1  0
 24 47  1  0
 25 26  2  0
 25 48  1  0
 26 49  1  0
M  END

