rmsd74.gzmat
 OpenBabel08211713403D

 49 51  0  0  1  0  0  0  0  0999 V2000
    0.0000    0.0000    0.0000 S   0  0  0  0  0  0  0  0  0  0  0  0
    1.4514    0.0000    0.0000 O   0  0  0  0  0  0  0  0  0  0  0  0
   -0.7516    0.0000   -1.2381 O   0  0  0  0  0  0  0  0  0  0  0  0
   -0.5366    1.4394    0.9291 C   0  0  0  0  0  0  0  0  0  0  0  0
    0.2464    1.6424    2.2345 C   0  0  1  0  0  0  0  0  0  0  0  0
    1.2571    1.1630    2.1742 H   0  0  0  0  0  0  0  0  0  0  0  0
    0.4651    3.1667    2.5048 C   0  0  1  0  0  0  0  0  0  0  0  0
   -0.5521    3.6090    2.6987 H   0  0  0  0  0  0  0  0  0  0  0  0
    1.2276    3.3113    3.7707 N   0  0  0  0  0  0  0  0  0  0  0  0
    2.6650    2.9517    3.6863 C   0  0  0  0  0  0  0  0  0  0  0  0
    3.4858    4.2542    3.5355 C   0  0  0  0  0  0  0  0  0  0  0  0
    2.5310    5.3893    3.9436 C   0  0  0  0  0  0  0  0  0  0  0  0
    1.2013    4.6924    4.3171 C   0  0  0  0  0  0  0  0  0  0  0  0
    1.0981    3.8916    1.3335 C   0  0  0  0  0  0  0  0  0  0  0  0
    0.7023    5.2073    1.0770 C   0  0  0  0  0  0  0  0  0  0  0  0
    1.2901    5.9315    0.0428 C   0  0  0  0  0  0  0  0  0  0  0  0
    2.2724    5.3418   -0.7503 C   0  0  0  0  0  0  0  0  0  0  0  0
    2.6587    4.0257   -0.5077 C   0  0  0  0  0  0  0  0  0  0  0  0
    2.0739    3.3019    0.5291 C   0  0  0  0  0  0  0  0  0  0  0  0
   -0.5151    1.0262    3.4137 C   0  0  0  0  0  0  0  0  0  0  0  0
   -0.5272   -1.4046    0.9354 C   0  0  0  0  0  0  0  0  0  0  0  0
   -1.8011   -1.9313    0.7380 C   0  0  0  0  0  0  0  0  0  0  0  0
   -2.2184   -3.0360    1.4792 C   0  0  0  0  0  0  0  0  0  0  0  0
   -1.3578   -3.6153    2.4100 C   0  0  0  0  0  0  0  0  0  0  0  0
   -0.0774   -3.0963    2.5944 C   0  0  0  0  0  0  0  0  0  0  0  0
    0.3411   -1.9927    1.8521 C   0  0  0  0  0  0  0  0  0  0  0  0
   -1.6222    1.3928    1.1291 H   0  0  0  0  0  0  0  0  0  0  0  0
   -0.4296    2.3250    0.2645 H   0  0  0  0  0  0  0  0  0  0  0  0
    2.8710    2.2373    2.8693 H   0  0  0  0  0  0  0  0  0  0  0  0
    2.9166    2.4385    4.6397 H   0  0  0  0  0  0  0  0  0  0  0  0
    4.3887    4.2328    4.1625 H   0  0  0  0  0  0  0  0  0  0  0  0
    3.8261    4.3828    2.4943 H   0  0  0  0  0  0  0  0  0  0  0  0
    2.9265    5.9727    4.7876 H   0  0  0  0  0  0  0  0  0  0  0  0
    2.3841    6.0974    3.1113 H   0  0  0  0  0  0  0  0  0  0  0  0
    1.1097    4.5897    5.4209 H   0  0  0  0  0  0  0  0  0  0  0  0
    0.3226    5.2623    3.9719 H   0  0  0  0  0  0  0  0  0  0  0  0
   -0.0672    5.6742    1.6874 H   0  0  0  0  0  0  0  0  0  0  0  0
    0.9789    6.9569   -0.1470 H   0  0  0  0  0  0  0  0  0  0  0  0
    2.7297    5.9051   -1.5608 H   0  0  0  0  0  0  0  0  0  0  0  0
    3.4152    3.5535   -1.1336 H   0  0  0  0  0  0  0  0  0  0  0  0
    2.3782    2.2628    0.6883 H   0  0  0  0  0  0  0  0  0  0  0  0
   -1.5035    1.4763    3.5451 H   0  0  0  0  0  0  0  0  0  0  0  0
    0.0318    1.1979    4.3537 H   0  0  0  0  0  0  0  0  0  0  0  0
   -0.6443   -0.0541    3.3051 H   0  0  0  0  0  0  0  0  0  0  0  0
   -2.4798   -1.5007   -0.0058 H   0  0  0  0  0  0  0  0  0  0  0  0
   -3.2134   -3.4486    1.3272 H   0  0  0  0  0  0  0  0  0  0  0  0
   -1.6836   -4.4779    2.9890 H   0  0  0  0  0  0  0  0  0  0  0  0
    0.5968   -3.5558    3.3135 H   0  0  0  0  0  0  0  0  0  0  0  0
    1.3574   -1.6064    1.9928 H   0  0  0  0  0  0  0  0  0  0  0  0
  1  4  1  0  0  0  0
  1 21  1  0  0  0  0
  2  1  2  0  0  0  0
  3  1  2  0  0  0  0
  4 27  1  0  0  0  0
  4  5  1  0  0  0  0
  5  6  1  6  0  0  0
  5  7  1  0  0  0  0
  5 20  1  0  0  0  0
  7  8  1  1  0  0  0
  7  9  1  0  0  0  0
  9 13  1  0  0  0  0
 10  9  1  0  0  0  0
 10 30  1  0  0  0  0
 11 10  1  0  0  0  0
 11 12  1  0  0  0  0
 11 31  1  0  0  0  0
 12 13  1  0  0  0  0
 12 33  1  0  0  0  0
 13 35  1  0  0  0  0
 14  7  1  0  0  0  0
 15 14  1  0  0  0  0
 15 37  1  0  0  0  0
 16 15  2  0  0  0  0
 17 18  2  0  0  0  0
 17 16  1  0  0  0  0
 18 19  1  0  0  0  0
 19 41  1  0  0  0  0
 19 14  2  0  0  0  0
 20 42  1  0  0  0  0
 20 43  1  0  0  0  0
 21 26  1  0  0  0  0
 22 21  2  0  0  0  0
 22 23  1  0  0  0  0
 23 24  2  0  0  0  0
 24 25  1  0  0  0  0
 24 47  1  0  0  0  0
 25 48  1  0  0  0  0
 26 49  1  0  0  0  0
 26 25  2  0  0  0  0
 28  4  1  0  0  0  0
 29 10  1  0  0  0  0
 32 11  1  0  0  0  0
 34 12  1  0  0  0  0
 36 13  1  0  0  0  0
 38 16  1  0  0  0  0
 39 17  1  0  0  0  0
 40 18  1  0  0  0  0
 44 20  1  0  0  0  0
 45 22  1  0  0  0  0
 46 23  1  0  0  0  0
M  END
$$$$
