49
rmsd73.gzmat
S          0.00000        0.00000        0.00000
O          1.45160        0.00000        0.00000
O         -0.75160        0.00000       -1.23800
C         -0.53740        1.43790        0.93060
C          0.20870        1.61020        2.26180
H          1.21320        1.11670        2.22460
C          0.43940        3.12760        2.55890
H         -0.57760        3.58080        2.72760
N          1.16410        3.24550        3.84870
C          2.59980        2.87310        3.80410
C          3.44030        4.16930        3.72440
C          2.47810        5.30740        4.10600
C          1.12960        4.61710        4.41760
C          1.11620        3.85750        1.41570
C          0.73660        5.17700        1.15420
C          1.36060        5.90230        0.14240
C          2.36610        5.31190       -0.62090
C          2.73750        3.99230       -0.37300
C          2.11340        3.26600        0.63880
C         -0.59770        0.98850        3.40780
C         -0.52550       -1.40410        0.93710
C         -1.81160       -1.91030        0.76890
C         -2.22830       -3.01060        1.51740
C         -1.35360       -3.60710        2.42440
C         -0.06020       -3.11000        2.57700
C          0.35650       -2.01020        1.82870
H         -1.62950        1.40910        1.09720
H         -0.39460        2.32940        0.28110
H          2.82840        2.18270        2.97240
H          2.81050        2.32550        4.74850
H          4.30790        4.12500        4.39890
H          3.83850        4.31550        2.70600
H          2.84300        5.87820        4.97190
H          2.37170        6.02630        3.27660
H          0.99680        4.49600        5.51530
H          0.26920        5.20110        4.05010
H         -0.04790        5.64600        1.74380
H          1.05970        6.92960       -0.05330
H          2.85240        5.87710       -1.41310
H          3.51070        3.51800       -0.97650
H          2.40260        2.22260        0.79890
H         -1.58530        1.44750        3.51280
H         -0.08050        1.14140        4.36790
H         -0.73480       -0.08900        3.27980
H         -2.50150       -1.46790        0.04230
H         -3.23320       -3.40680        1.38750
H         -1.67890       -4.46620        3.00880
H          0.62590       -3.58320        3.27610
H          1.38210       -1.64020        1.94430
