49

S         -0.07060        0.00810       -0.03730
O          1.40420        0.02240       -0.09830
O         -0.88010        0.01350       -1.26420
C         -0.60120        1.44550        0.93640
C          0.16760        1.63910        2.24840
H          1.13350        1.12060        2.14080
C          0.48190        3.13600        2.50320
H         -0.48320        3.63180        2.69960
N          1.24300        3.26450        3.75170
C          2.66450        2.92280        3.71830
C          3.44300        4.25290        3.55620
C          2.46440        5.33680        4.07180
C          1.18410        4.54560        4.45000
C          1.11510        3.85760        1.31450
C          0.79470        5.20470        1.08540
C          1.42600        5.93830        0.07890
C          2.38800        5.32800       -0.73030
C          2.69530        3.97900       -0.53370
C          2.06480        3.24920        0.47700
C         -0.58140        1.02780        3.43540
C         -0.54470       -1.42790        0.93210
C         -1.87390       -1.85560        0.89860
C         -2.24710       -2.95210        1.67740
C         -1.29350       -3.61180        2.46130
C          0.03840       -3.18560        2.46360
C          0.42260       -2.08610        1.69240
H         -1.68660        1.33610        1.07580
H         -0.43130        2.25550        0.21200
H          2.88450        2.19740        2.92360
H          2.93480        2.44330        4.67660
H          4.39020        4.23650        4.11610
H          3.68630        4.42630        2.49890
H          2.86300        5.88750        4.93730
H          2.25410        6.07200        3.28290
H          1.17820        4.35460        5.53880
H          0.25170        5.07800        4.21220
H          0.03850        5.68800        1.71020
H          1.16130        6.98700       -0.07810
H          2.88280        5.89620       -1.52160
H          3.42510        3.48310       -1.17810
H          2.29320        2.18720        0.57660
H         -1.55830        1.52280        3.56980
H         -0.00580        1.17060        4.35840
H         -0.76390       -0.04600        3.28770
H         -2.59320       -1.34000        0.25960
H         -3.28250       -3.29990        1.66620
H         -1.59020       -4.47040        3.06810
H          0.78150       -3.71310        3.06580
H          1.45480       -1.73430        1.66440
