rmsd89.gzmat
 OpenBabel08211713403D

 49 51  0  0  1  0  0  0  0  0999 V2000
    0.0000    0.0000    0.0000 S   0  0  0  0  0  0  0  0  0  0  0  0
    1.4515    0.0000    0.0000 O   0  0  0  0  0  0  0  0  0  0  0  0
   -0.7528    0.0000   -1.2372 O   0  0  0  0  0  0  0  0  0  0  0  0
   -0.5342    1.4400    0.9294 C   0  0  0  0  0  0  0  0  0  0  0  0
    0.1968    1.5958    2.2708 C   0  0  1  0  0  0  0  0  0  0  0  0
    1.1916    1.0819    2.2457 H   0  0  0  0  0  0  0  0  0  0  0  0
    0.4562    3.1058    2.5820 C   0  0  1  0  0  0  0  0  0  0  0  0
   -0.5519    3.5742    2.7631 H   0  0  0  0  0  0  0  0  0  0  0  0
    1.1902    3.1948    3.8698 N   0  0  0  0  0  0  0  0  0  0  0  0
    2.6126    2.7747    3.8171 C   0  0  0  0  0  0  0  0  0  0  0  0
    3.4981    4.0416    3.7521 C   0  0  0  0  0  0  0  0  0  0  0  0
    2.5719    5.2119    4.1234 C   0  0  0  0  0  0  0  0  0  0  0  0
    1.2046    4.5642    4.4443 C   0  0  0  0  0  0  0  0  0  0  0  0
    1.1412    3.8417    1.4476 C   0  0  0  0  0  0  0  0  0  0  0  0
    0.7894    5.1745    1.2156 C   0  0  0  0  0  0  0  0  0  0  0  0
    1.4317    5.9109    0.2235 C   0  0  0  0  0  0  0  0  0  0  0  0
    2.4253    5.3173   -0.5523 C   0  0  0  0  0  0  0  0  0  0  0  0
    2.7637    3.9830   -0.3390 C   0  0  0  0  0  0  0  0  0  0  0  0
    2.1242    3.2468    0.6560 C   0  0  0  0  0  0  0  0  0  0  0  0
   -0.6383    0.9871    3.4035 C   0  0  0  0  0  0  0  0  0  0  0  0
   -0.5236   -1.4052    0.9361 C   0  0  0  0  0  0  0  0  0  0  0  0
   -1.7991   -1.9298    0.7444 C   0  0  0  0  0  0  0  0  0  0  0  0
   -2.2154   -3.0318    1.4902 C   0  0  0  0  0  0  0  0  0  0  0  0
   -1.3515   -3.6115    2.4181 C   0  0  0  0  0  0  0  0  0  0  0  0
   -0.0685   -3.0963    2.5946 C   0  0  0  0  0  0  0  0  0  0  0  0
    0.3489   -1.9950    1.8478 C   0  0  0  0  0  0  0  0  0  0  0  0
   -1.6289    1.4231    1.0800 H   0  0  0  0  0  0  0  0  0  0  0  0
   -0.3720    2.3327    0.2862 H   0  0  0  0  0  0  0  0  0  0  0  0
    2.8174    2.0883    2.9757 H   0  0  0  0  0  0  0  0  0  0  0  0
    2.8059    2.2082    4.7539 H   0  0  0  0  0  0  0  0  0  0  0  0
    4.3538    3.9656    4.4391 H   0  0  0  0  0  0  0  0  0  0  0  0
    3.9149    4.1746    2.7398 H   0  0  0  0  0  0  0  0  0  0  0  0
    2.9563    5.7811    4.9824 H   0  0  0  0  0  0  0  0  0  0  0  0
    2.4831    5.9239    3.2860 H   0  0  0  0  0  0  0  0  0  0  0  0
    1.0778    4.4440    5.5429 H   0  0  0  0  0  0  0  0  0  0  0  0
    0.3588    5.1757    4.0872 H   0  0  0  0  0  0  0  0  0  0  0  0
    0.0120    5.6453    1.8133 H   0  0  0  0  0  0  0  0  0  0  0  0
    1.1554    6.9497    0.0536 H   0  0  0  0  0  0  0  0  0  0  0  0
    2.9292    5.8921   -1.3264 H   0  0  0  0  0  0  0  0  0  0  0  0
    3.5263    3.5065   -0.9541 H   0  0  0  0  0  0  0  0  0  0  0  0
    2.3933    2.1946    0.7927 H   0  0  0  0  0  0  0  0  0  0  0  0
   -1.6275    1.4489    3.4790 H   0  0  0  0  0  0  0  0  0  0  0  0
   -0.1436    1.1483    4.3743 H   0  0  0  0  0  0  0  0  0  0  0  0
   -0.7737   -0.0917    3.2834 H   0  0  0  0  0  0  0  0  0  0  0  0
   -2.4799   -1.4984    0.0023 H   0  0  0  0  0  0  0  0  0  0  0  0
   -3.2125   -3.4419    1.3447 H   0  0  0  0  0  0  0  0  0  0  0  0
   -1.6777   -4.4712    3.0011 H   0  0  0  0  0  0  0  0  0  0  0  0
    0.6087   -3.5569    3.3104 H   0  0  0  0  0  0  0  0  0  0  0  0
    1.3671   -1.6111    1.9814 H   0  0  0  0  0  0  0  0  0  0  0  0
  1  4  1  0  0  0  0
  1 21  1  0  0  0  0
  2  1  2  0  0  0  0
  3  1  2  0  0  0  0
  4 27  1  0  0  0  0
  4  5  1  0  0  0  0
  5  6  1  6  0  0  0
  5  7  1  0  0  0  0
  5 20  1  0  0  0  0
  7  8  1  1  0  0  0
  7  9  1  0  0  0  0
  9 13  1  0  0  0  0
 10  9  1  0  0  0  0
 10 30  1  0  0  0  0
 11 10  1  0  0  0  0
 11 12  1  0  0  0  0
 11 31  1  0  0  0  0
 12 13  1  0  0  0  0
 12 33  1  0  0  0  0
 13 35  1  0  0  0  0
 14  7  1  0  0  0  0
 15 14  1  0  0  0  0
 15 37  1  0  0  0  0
 16 15  2  0  0  0  0
 17 18  2  0  0  0  0
 17 16  1  0  0  0  0
 18 19  1  0  0  0  0
 19 41  1  0  0  0  0
 19 14  2  0  0  0  0
 20 42  1  0  0  0  0
 20 43  1  0  0  0  0
 21 26  1  0  0  0  0
 22 21  2  0  0  0  0
 22 23  1  0  0  0  0
 23 24  2  0  0  0  0
 24 25  1  0  0  0  0
 24 47  1  0  0  0  0
 25 48  1  0  0  0  0
 26 49  1  0  0  0  0
 26 25  2  0  0  0  0
 28  4  1  0  0  0  0
 29 10  1  0  0  0  0
 32 11  1  0  0  0  0
 34 12  1  0  0  0  0
 36 13  1  0  0  0  0
 38 16  1  0  0  0  0
 39 17  1  0  0  0  0
 40 18  1  0  0  0  0
 44 20  1  0  0  0  0
 45 22  1  0  0  0  0
 46 23  1  0  0  0  0
M  END
$$$$
