rmsd145.gzmat
 OpenBabel08211713403D

 49 51  0  0  1  0  0  0  0  0999 V2000
    0.0000    0.0000    0.0000 S   0  0  0  0  0  0  0  0  0  0  0  0
    1.4513    0.0000    0.0000 O   0  0  0  0  0  0  0  0  0  0  0  0
   -0.7527    0.0000   -1.2370 O   0  0  0  0  0  0  0  0  0  0  0  0
   -0.5317    1.4390    0.9338 C   0  0  0  0  0  0  0  0  0  0  0  0
    0.1891    1.5770    2.2824 C   0  0  1  0  0  0  0  0  0  0  0  0
    1.1769    1.0497    2.2617 H   0  0  0  0  0  0  0  0  0  0  0  0
    0.4668    3.0798    2.6101 C   0  0  1  0  0  0  0  0  0  0  0  0
   -0.5351    3.5592    2.7973 H   0  0  0  0  0  0  0  0  0  0  0  0
    1.2020    3.1454    3.8990 N   0  0  0  0  0  0  0  0  0  0  0  0
    2.6170    2.6997    3.8446 C   0  0  0  0  0  0  0  0  0  0  0  0
    3.5286    3.9493    3.8056 C   0  0  0  0  0  0  0  0  0  0  0  0
    2.6144    5.1383    4.1465 C   0  0  0  0  0  0  0  0  0  0  0  0
    1.2416    4.5114    4.4812 C   0  0  0  0  0  0  0  0  0  0  0  0
    1.1603    3.8245    1.4871 C   0  0  0  0  0  0  0  0  0  0  0  0
    0.8126    5.1610    1.2695 C   0  0  0  0  0  0  0  0  0  0  0  0
    1.4690    5.9108    0.2973 C   0  0  0  0  0  0  0  0  0  0  0  0
    2.4705    5.3258   -0.4751 C   0  0  0  0  0  0  0  0  0  0  0  0
    2.8044    3.9880   -0.2768 C   0  0  0  0  0  0  0  0  0  0  0  0
    2.1509    3.2382    0.6988 C   0  0  0  0  0  0  0  0  0  0  0  0
   -0.6643    0.9732    3.4043 C   0  0  0  0  0  0  0  0  0  0  0  0
   -0.5244   -1.4060    0.9355 C   0  0  0  0  0  0  0  0  0  0  0  0
    0.3408   -1.9831    1.8625 C   0  0  0  0  0  0  0  0  0  0  0  0
   -0.0793   -3.0790    2.6151 C   0  0  0  0  0  0  0  0  0  0  0  0
   -1.3570   -3.6042    2.4274 C   0  0  0  0  0  0  0  0  0  0  0  0
   -2.2117   -3.0402    1.4816 C   0  0  0  0  0  0  0  0  0  0  0  0
   -1.7934   -1.9413    0.7319 C   0  0  0  0  0  0  0  0  0  0  0  0
   -1.6278    1.4285    1.0744 H   0  0  0  0  0  0  0  0  0  0  0  0
   -0.3558    2.3357    0.3004 H   0  0  0  0  0  0  0  0  0  0  0  0
    2.8129    2.0240    2.9928 H   0  0  0  0  0  0  0  0  0  0  0  0
    2.7948    2.1137    4.7722 H   0  0  0  0  0  0  0  0  0  0  0  0
    4.3591    3.8573    4.5210 H   0  0  0  0  0  0  0  0  0  0  0  0
    3.9834    4.0748    2.8092 H   0  0  0  0  0  0  0  0  0  0  0  0
    3.0041    5.7287    4.9879 H   0  0  0  0  0  0  0  0  0  0  0  0
    2.5314    5.8265    3.2880 H   0  0  0  0  0  0  0  0  0  0  0  0
    1.1237    4.3873    5.5801 H   0  0  0  0  0  0  0  0  0  0  0  0
    0.4024    5.1381    4.1352 H   0  0  0  0  0  0  0  0  0  0  0  0
    0.0281    5.6242    1.8637 H   0  0  0  0  0  0  0  0  0  0  0  0
    1.1985    6.9530    0.1414 H   0  0  0  0  0  0  0  0  0  0  0  0
    2.9848    5.9105   -1.2347 H   0  0  0  0  0  0  0  0  0  0  0  0
    3.5742    3.5201   -0.8896 H   0  0  0  0  0  0  0  0  0  0  0  0
    2.4151    2.1835    0.8237 H   0  0  0  0  0  0  0  0  0  0  0  0
   -1.6316    1.4760    3.4998 H   0  0  0  0  0  0  0  0  0  0  0  0
   -0.1573    1.0877    4.3750 H   0  0  0  0  0  0  0  0  0  0  0  0
   -0.8488   -0.0948    3.2569 H   0  0  0  0  0  0  0  0  0  0  0  0
    1.3554   -1.5931    2.0037 H   0  0  0  0  0  0  0  0  0  0  0  0
    0.5907   -3.5276    3.3452 H   0  0  0  0  0  0  0  0  0  0  0  0
   -1.6859   -4.4584    3.0173 H   0  0  0  0  0  0  0  0  0  0  0  0
   -3.2032   -3.4598    1.3247 H   0  0  0  0  0  0  0  0  0  0  0  0
   -2.4681   -1.5215   -0.0220 H   0  0  0  0  0  0  0  0  0  0  0  0
  1  2  2  0  0  0  0
  1  4  1  0  0  0  0
  1 21  1  0  0  0  0
  3  1  2  0  0  0  0
  4 27  1  0  0  0  0
  4  5  1  0  0  0  0
  5  6  1  6  0  0  0
  5  7  1  0  0  0  0
  5 20  1  0  0  0  0
  7  8  1  1  0  0  0
  7  9  1  0  0  0  0
  9 13  1  0  0  0  0
 10  9  1  0  0  0  0
 10 30  1  0  0  0  0
 11 10  1  0  0  0  0
 11 12  1  0  0  0  0
 11 31  1  0  0  0  0
 12 13  1  0  0  0  0
 12 33  1  0  0  0  0
 13 35  1  0  0  0  0
 14  7  1  0  0  0  0
 15 14  1  0  0  0  0
 15 37  1  0  0  0  0
 16 15  2  0  0  0  0
 17 18  2  0  0  0  0
 17 16  1  0  0  0  0
 18 19  1  0  0  0  0
 19 41  1  0  0  0  0
 19 14  2  0  0  0  0
 20 42  1  0  0  0  0
 20 43  1  0  0  0  0
 21 22  1  0  0  0  0
 22 45  1  0  0  0  0
 22 23  2  0  0  0  0
 23 46  1  0  0  0  0
 24 23  1  0  0  0  0
 24 47  1  0  0  0  0
 25 24  2  0  0  0  0
 26 21  2  0  0  0  0
 26 25  1  0  0  0  0
 28  4  1  0  0  0  0
 29 10  1  0  0  0  0
 32 11  1  0  0  0  0
 34 12  1  0  0  0  0
 36 13  1  0  0  0  0
 38 16  1  0  0  0  0
 39 17  1  0  0  0  0
 40 18  1  0  0  0  0
 44 20  1  0  0  0  0
 48 25  1  0  0  0  0
 49 26  1  0  0  0  0
M  END
$$$$
