
     RDKit          3D

 31 32  0  0  0  0  0  0  0  0999 V2000
   -0.0463   -0.0738    0.0268 S   0  0  0  0  0  0  0  0  0  0  0  0
    1.7884   -0.0192    0.0355 C   0  0  0  0  0  0  0  0  0  0  0  0
    2.2438    0.0039    1.4694 C   0  0  0  0  0  0  0  0  0  0  0  0
    2.4817   -1.1926    2.1615 C   0  0  0  0  0  0  0  0  0  0  0  0
    2.8870   -1.1732    3.4976 C   0  0  0  0  0  0  0  0  0  0  0  0
    3.0545    0.0457    4.1612 C   0  0  0  0  0  0  0  0  0  0  0  0
    2.8144    1.2436    3.4819 C   0  0  0  0  0  0  0  0  0  0  0  0
    2.4093    1.2214    2.1458 C   0  0  0  0  0  0  0  0  0  0  0  0
   -0.4210   -0.1060   -1.7248 C   0  0  0  0  0  0  0  0  0  0  0  0
    0.7706   -0.0795   -2.8898 S   0  0  0  0  0  0  0  0  0  0  0  0
   -1.7524   -0.1496   -1.9905 N   0  0  0  0  0  0  0  0  0  0  0  0
   -2.2758   -0.1763   -3.3560 C   0  0  0  0  0  0  0  0  0  0  0  0
   -3.1857   -1.3875   -3.5313 C   0  0  0  0  0  0  0  0  0  0  0  0
   -4.2221   -1.4025   -2.5690 O   0  0  0  0  0  0  0  0  0  0  0  0
   -3.7118   -1.4132   -1.2559 C   0  0  0  0  0  0  0  0  0  0  0  0
   -2.8177   -0.2012   -0.9910 C   0  0  0  0  0  0  0  0  0  0  0  0
    2.1002    0.8743   -0.5208 H   0  0  0  0  0  0  0  0  0  0  0  0
    2.1533   -0.8997   -0.5091 H   0  0  0  0  0  0  0  0  0  0  0  0
    2.3483   -2.1461    1.6437 H   0  0  0  0  0  0  0  0  0  0  0  0
    3.0744   -2.1130    4.0226 H   0  0  0  0  0  0  0  0  0  0  0  0
    3.3734    0.0620    5.2061 H   0  0  0  0  0  0  0  0  0  0  0  0
    2.9448    2.1996    3.9946 H   0  0  0  0  0  0  0  0  0  0  0  0
    2.2191    2.1584    1.6158 H   0  0  0  0  0  0  0  0  0  0  0  0
   -1.4286   -0.2053   -4.0518 H   0  0  0  0  0  0  0  0  0  0  0  0
   -2.8517    0.7503   -3.5306 H   0  0  0  0  0  0  0  0  0  0  0  0
   -3.6649   -1.3639   -4.5211 H   0  0  0  0  0  0  0  0  0  0  0  0
   -2.5778   -2.3121   -3.4579 H   0  0  0  0  0  0  0  0  0  0  0  0
   -4.5728   -1.4053   -0.5708 H   0  0  0  0  0  0  0  0  0  0  0  0
   -3.1250   -2.3368   -1.0720 H   0  0  0  0  0  0  0  0  0  0  0  0
   -3.4180    0.7237   -1.0621 H   0  0  0  0  0  0  0  0  0  0  0  0
   -2.4020   -0.2574    0.0216 H   0  0  0  0  0  0  0  0  0  0  0  0
  1  2  1  0
  1  9  1  0
  2  3  1  0
  2 17  1  0
  2 18  1  0
  3  4  2  0
  3  8  1  0
  4  5  1  0
  4 19  1  0
  5  6  2  0
  5 20  1  0
  6  7  1  0
  6 21  1  0
  7  8  2  0
  7 22  1  0
  8 23  1  0
  9 10  2  0
  9 11  1  0
 11 12  1  0
 11 16  1  0
 12 13  1  0
 12 24  1  0
 12 25  1  0
 13 14  1  0
 13 26  1  0
 13 27  1  0
 14 15  1  0
 15 16  1  0
 15 28  1  0
 15 29  1  0
 16 30  1  0
 16 31  1  0
M  END

