31
rmsd50.gzmat
S          0.00000        0.00000        0.00000
C          1.83820        0.00000        0.00000
C          2.21340        0.00000        1.44020
C          2.41960       -1.20830        2.11250
C          2.77710       -1.20420        3.45860
C          2.92950        0.00330        4.13800
C          2.72900        1.20920        3.46770
C          2.37190        1.20980        2.12170
C         -0.48200        0.00520       -1.73550
S          0.66490        0.06990       -2.94740
N         -1.79940       -0.09630       -1.97260
C         -2.86110        0.03610       -0.95810
C         -3.52560        1.41910       -1.12060
O         -4.04460        1.55340       -2.42920
C         -3.05340        1.42300       -3.43230
C         -2.37220        0.04620       -3.32780
H          2.23440        0.88610       -0.54070
H          2.23600       -0.88270       -0.54390
H          2.29920       -2.15480        1.58690
H          2.93830       -2.14570        3.98030
H          3.20580        0.00490        5.19030
H          2.85160        2.15200        3.99790
H          2.21510        2.15510        1.60290
H         -2.50670       -0.11390        0.08170
H         -3.61200       -0.77160       -1.13750
H         -4.42490        1.52090       -0.48660
H         -2.82450        2.24410       -0.90460
H         -3.63460        1.52650       -4.36700
H         -2.32690        2.25140       -3.35540
H         -3.11320       -0.77240       -3.47890
H         -1.60760       -0.07850       -4.12880
