rmsd47.gzmat
 OpenBabel08211713393D

 31 32  0  0  0  0  0  0  0  0999 V2000
    0.0000    0.0000    0.0000 S   0  0  0  0  0  0  0  0  0  0  0  0
    1.8385    0.0000    0.0000 C   0  0  0  0  0  0  0  0  0  0  0  0
    2.2054    0.0000    1.4425 C   0  0  0  0  0  0  0  0  0  0  0  0
    2.3906   -1.2102    2.1178 C   0  0  0  0  0  0  0  0  0  0  0  0
    2.7347   -1.2092    3.4672 C   0  0  0  0  0  0  0  0  0  0  0  0
    2.8977   -0.0031    4.1472 C   0  0  0  0  0  0  0  0  0  0  0  0
    2.7152    1.2046    3.4751 C   0  0  0  0  0  0  0  0  0  0  0  0
    2.3705    1.2085    2.1257 C   0  0  0  0  0  0  0  0  0  0  0  0
   -0.4907   -0.1384   -1.7274 C   0  0  0  0  0  0  0  0  0  0  0  0
    0.6466   -0.1350   -2.9492 S   0  0  0  0  0  0  0  0  0  0  0  0
   -1.8069   -0.2908   -1.9437 N   0  0  0  0  0  0  0  0  0  0  0  0
   -2.8624   -0.1099   -0.9298 C   0  0  0  0  0  0  0  0  0  0  0  0
   -3.5574    1.2434   -1.1851 C   0  0  0  0  0  0  0  0  0  0  0  0
   -4.1010    1.2616   -2.4905 O   0  0  0  0  0  0  0  0  0  0  0  0
   -3.1216    1.0795   -3.4978 C   0  0  0  0  0  0  0  0  0  0  0  0
   -2.3954   -0.2641   -3.2991 C   0  0  0  0  0  0  0  0  0  0  0  0
    2.2335    0.8855   -0.5411 H   0  0  0  0  0  0  0  0  0  0  0  0
    2.2404   -0.8827   -0.5415 H   0  0  0  0  0  0  0  0  0  0  0  0
    2.2659   -2.1560    1.5912 H   0  0  0  0  0  0  0  0  0  0  0  0
    2.8769   -2.1525    3.9910 H   0  0  0  0  0  0  0  0  0  0  0  0
    3.1691   -0.0042    5.2009 H   0  0  0  0  0  0  0  0  0  0  0  0
    2.8423    2.1467    4.0054 H   0  0  0  0  0  0  0  0  0  0  0  0
    2.2302    2.1555    1.6063 H   0  0  0  0  0  0  0  0  0  0  0  0
   -2.4963   -0.1791    0.1144 H   0  0  0  0  0  0  0  0  0  0  0  0
   -3.5979   -0.9437   -1.0442 H   0  0  0  0  0  0  0  0  0  0  0  0
   -4.4465    1.3786   -0.5431 H   0  0  0  0  0  0  0  0  0  0  0  0
   -2.8693    2.0961   -1.0491 H   0  0  0  0  0  0  0  0  0  0  0  0
   -3.7207    1.0903   -4.4267 H   0  0  0  0  0  0  0  0  0  0  0  0
   -2.4211    1.9334   -3.5001 H   0  0  0  0  0  0  0  0  0  0  0  0
   -3.1116   -1.1144   -3.3820 H   0  0  0  0  0  0  0  0  0  0  0  0
   -1.6340   -0.4227   -4.0978 H   0  0  0  0  0  0  0  0  0  0  0  0
  2  1  1  0  0  0  0
  2  3  1  0  0  0  0
  3  4  2  0  0  0  0
  3  8  1  0  0  0  0
  4  5  1  0  0  0  0
  5 20  1  0  0  0  0
  5  6  2  0  0  0  0
  6 21  1  0  0  0  0
  7 22  1  0  0  0  0
  7  6  1  0  0  0  0
  8  7  2  0  0  0  0
  9  1  1  0  0  0  0
 10  9  2  0  0  0  0
 11  9  1  0  0  0  0
 11 12  1  0  0  0  0
 12 24  1  0  0  0  0
 13 27  1  0  0  0  0
 13 12  1  0  0  0  0
 13 26  1  0  0  0  0
 14 13  1  0  0  0  0
 15 16  1  0  0  0  0
 15 14  1  0  0  0  0
 16 11  1  0  0  0  0
 17  2  1  0  0  0  0
 18  2  1  0  0  0  0
 19  4  1  0  0  0  0
 23  8  1  0  0  0  0
 25 12  1  0  0  0  0
 28 15  1  0  0  0  0
 29 15  1  0  0  0  0
 30 16  1  0  0  0  0
 31 16  1  0  0  0  0
M  END
$$$$
