31
rmsd231.gzmat
S          0.00000        0.00000        0.00000
C          1.83830        0.00000        0.00000
C          2.20440        0.00000        1.44260
C          2.41380       -1.21230        2.10670
C          2.74970       -1.21740        3.45780
C          2.88020       -0.01470        4.15080
C          2.68080        1.19500        3.48790
C          2.34340        1.20500        2.13640
C         -0.49700       -0.39590       -1.68510
S          0.63530       -0.65200       -2.88340
N         -1.82250       -0.41360       -1.90610
C         -2.40360       -0.93970       -3.15930
C         -2.95440       -2.35210       -2.88670
O         -3.90740       -2.31410       -1.83950
C         -3.38160       -1.80240       -0.63030
C         -2.85680       -0.36990       -0.85540
H          2.22910        0.88350       -0.54520
H          2.24470       -0.88540       -0.53580
H          2.31430       -2.15420        1.56830
H          2.91170       -2.16190        3.97360
H          3.13940       -0.02090        5.20740
H          2.78960        2.13410        4.02700
H          2.18860        2.15350        1.62420
H         -1.66880       -0.95680       -3.99630
H         -3.21970       -0.25170       -3.47890
H         -3.54220       -2.73800       -3.73940
H         -2.15100       -3.06780       -2.63730
H         -4.25420       -1.82280        0.04710
H         -2.59640       -2.47530       -0.24360
H         -3.68530        0.28820       -1.21510
H         -2.51150        0.08740        0.09310
