31
rmsd44.gzmat
S          0.00000        0.00000        0.00000
C          1.83860        0.00000        0.00000
C          2.18450        0.00000        1.44740
C          2.37700       -1.20910        2.12120
C          2.66980       -1.20850        3.48240
C          2.77740       -0.00350        4.17480
C          2.59910        1.20370        3.50150
C          2.30430        1.20810        2.14050
C         -0.49840       -0.05520       -1.72820
S          0.63540       -0.11770       -2.95100
N         -1.82350       -0.09830       -1.94270
C         -2.85770        0.17260       -0.92690
C         -3.42680        1.58530       -1.17510
O         -3.95880        1.66620       -2.48300
C         -2.99650        1.40080       -3.48790
C         -2.40760       -0.00960       -3.29730
H          2.23650        0.88560       -0.53780
H          2.24400       -0.88270       -0.53820
H          2.29460       -2.15370        1.58450
H          2.81240       -2.15120        4.00690
H          3.00210       -0.00510        5.23930
H          2.68890        2.14470        4.04060
H          2.16560        2.15430        1.61920
H         -2.49850        0.06730        0.11680
H         -3.66510       -0.59120       -1.04280
H         -4.30450        1.79480       -0.53720
H         -2.66480        2.37060       -1.02650
H         -3.58590        1.48050       -4.41970
H         -2.21350        2.18000       -3.47750
H         -3.20510       -0.78420       -3.38100
H         -1.66630       -0.24120       -4.09650
