31
rmsd53.gzmat
S          0.00000        0.00000        0.00000
C          1.83910        0.00000        0.00000
C          2.18880        0.00000        1.44670
C          2.41210       -1.20840        2.11260
C          2.71840       -1.20890        3.47110
C          2.80130       -0.00560        4.17020
C          2.58580        1.20080        3.50580
C          2.28450        1.20600        2.14610
C         -0.49730        0.06130       -1.72980
S          0.60960       -0.19360       -2.95290
N         -1.78850        0.34980       -1.94900
C         -2.41960        0.21560       -3.27800
C         -3.38260       -0.98650       -3.24950
O         -4.34050       -0.82750       -2.21850
C         -3.75170       -0.71350       -0.93770
C         -2.81830        0.51290       -0.90650
H          2.23750        0.88490       -0.53840
H          2.24060       -0.88420       -0.53910
H          2.34360       -2.15180        1.57180
H          2.89060       -2.15120        3.98820
H          3.03330       -0.00810        5.23300
H          2.65310        2.14150        4.04930
H          2.12150        2.15220        1.63150
H         -1.67070        0.09590       -4.09540
H         -2.97090        1.15860       -3.49900
H         -4.00750       -1.03330       -4.16020
H         -2.84570       -1.94300       -3.11950
H         -4.62450       -0.58540       -0.27210
H         -3.22250       -1.64700       -0.67770
H         -3.39940        1.43890       -1.13970
H         -2.40450        0.67310        0.10960
