31
rmsd47.gzmat
S          0.00000        0.00000        0.00000
C          1.83850        0.00000        0.00000
C          2.20540        0.00000        1.44250
C          2.39060       -1.21020        2.11780
C          2.73470       -1.20920        3.46720
C          2.89770       -0.00310        4.14720
C          2.71520        1.20460        3.47510
C          2.37050        1.20850        2.12570
C         -0.49070       -0.13840       -1.72740
S          0.64660       -0.13500       -2.94920
N         -1.80690       -0.29080       -1.94370
C         -2.86240       -0.10990       -0.92980
C         -3.55740        1.24340       -1.18510
O         -4.10100        1.26160       -2.49050
C         -3.12160        1.07950       -3.49780
C         -2.39540       -0.26410       -3.29910
H          2.23350        0.88550       -0.54110
H          2.24040       -0.88270       -0.54150
H          2.26590       -2.15600        1.59120
H          2.87690       -2.15250        3.99100
H          3.16910       -0.00420        5.20090
H          2.84230        2.14670        4.00540
H          2.23020        2.15550        1.60630
H         -2.49630       -0.17910        0.11440
H         -3.59790       -0.94370       -1.04420
H         -4.44650        1.37860       -0.54310
H         -2.86930        2.09610       -1.04910
H         -3.72070        1.09030       -4.42670
H         -2.42110        1.93340       -3.50010
H         -3.11160       -1.11440       -3.38200
H         -1.63400       -0.42270       -4.09780
