31
rmsd1.gzmat
S          0.00000        0.00000        0.00000
C          1.83890        0.00000        0.00000
C          2.20620        0.00000        1.44210
C          2.38590       -1.21110        2.11670
C          2.72060       -1.21290        3.46820
C          2.88030       -0.00810        4.15090
C          2.71230        1.20060        3.47770
C          2.37440        1.20680        2.12650
C         -0.48680       -0.08350       -1.73200
S          0.64890       -0.30240       -2.93560
N         -1.79620        0.08480       -1.97690
C         -2.38760       -0.15460       -3.31050
C         -3.15030       -1.49170       -3.27470
O         -4.14200       -1.46030       -2.26400
C         -3.60630       -1.22980       -0.97560
C         -2.85670        0.11820       -0.95320
H          2.23360        0.88370       -0.54330
H          2.24040       -0.88530       -0.53830
H          2.26340       -2.15490        1.58720
H          2.85800       -2.15640        3.99310
H          3.13880       -0.01100        5.20750
H          2.84430        2.14120        4.00910
H          2.24240        2.15450        1.60630
H         -1.62380       -0.15600       -4.12180
H         -3.07980        0.68810       -3.54030
H         -3.74100       -1.65620       -4.19380
H         -2.47360       -2.34950       -3.11170
H         -4.50530       -1.21150       -0.33300
H         -2.95570       -2.07170       -0.68060
H         -3.55850        0.94930       -1.21090
H         -2.48560        0.35150        0.06520
