31
rmsd247.gzmat
S          0.00000        0.00000        0.00000
C          1.83880        0.00000        0.00000
C          2.21920        0.00000        1.43870
C          2.31770       -1.20580        2.13850
C          2.68500       -1.20330        3.48190
C          2.95900       -0.00030        4.13040
C          2.86390        1.20280        3.43320
C          2.49380        1.20530        2.09050
C         -0.47850       -0.07300       -1.73460
S          0.66660        0.01080       -2.94650
N         -1.78940       -0.24540       -1.97130
C         -2.85940       -0.11340       -0.96530
C         -3.55590        1.24820       -1.16810
O         -4.07080        1.33530       -2.48230
C         -3.07340        1.19840       -3.47860
C         -2.36220       -0.15870       -3.33150
H          2.23360        0.88410       -0.54410
H          2.23670       -0.88490       -0.54100
H          2.10840       -2.14870        1.63550
H          2.75990       -2.14280        4.02600
H          3.25110       -0.00080        5.17840
H          3.08110        2.14200        3.93820
H          2.42000        2.14810        1.55030
H         -2.50630       -0.22930        0.07910
H         -3.58950       -0.94390       -1.12710
H         -4.46100        1.34530       -0.54100
H         -2.87640        2.09600       -0.97110
H         -3.65330        1.26280       -4.41750
H         -2.36580        2.04460       -3.42300
H         -3.08450       -0.99830       -3.45730
H         -1.59360       -0.29250       -4.12730
