rmsd13.gzmat
 OpenBabel08211713383D

 38 41  0  0  0  0  0  0  0  0999 V2000
    0.0000    0.0000    0.0000 Cl  0  0  0  0  0  0  0  0  0  0  0  0
    1.7091    0.0000    0.0000 C   0  0  0  0  0  0  0  0  0  0  0  0
    2.3800    0.0000    1.2153 C   0  0  0  0  0  0  0  0  0  0  0  0
    3.7726    0.0043    1.2190 C   0  0  0  0  0  0  0  0  0  0  0  0
    4.4628    0.0046    0.0015 C   0  0  0  0  0  0  0  0  0  0  0  0
    5.8748    0.0702   -0.1042 N   0  0  0  0  0  0  0  0  0  0  0  0
    6.7449   -0.1339    0.9403 C   0  0  0  0  0  0  0  0  0  0  0  0
    6.4847   -0.3795    2.2369 N   0  0  0  0  0  0  0  0  0  0  0  0
    7.7079   -0.4860    2.8669 N   0  0  0  0  0  0  0  0  0  0  0  0
    7.9581   -0.7397    4.2618 C   0  0  0  0  0  0  0  0  0  0  0  0
    7.0597   -0.8686    5.0390 O   0  0  0  0  0  0  0  0  0  0  0  0
    9.4212   -0.8040    4.4935 C   0  0  0  0  0  0  0  0  0  0  0  0
   10.3427   -0.6628    3.5617 N   0  0  0  0  0  0  0  0  0  0  0  0
   10.0649   -0.4320    2.2973 N   0  0  0  0  0  0  0  0  0  0  0  0
    8.7665   -0.3308    1.9528 C   0  0  0  0  0  0  0  0  0  0  0  0
    8.1683   -0.1100    0.7083 N   0  0  0  0  0  0  0  0  0  0  0  0
    8.8510    0.3319   -0.4544 C   0  0  0  0  0  0  0  0  0  0  0  0
    8.3763    1.4408   -1.1667 C   0  0  0  0  0  0  0  0  0  0  0  0
    9.0292    1.8266   -2.3333 C   0  0  0  0  0  0  0  0  0  0  0  0
   10.1487    1.1098   -2.7394 C   0  0  0  0  0  0  0  0  0  0  0  0
   10.9402    1.5781   -4.1783 Cl  0  0  0  0  0  0  0  0  0  0  0  0
   10.6562    0.0343   -2.0192 C   0  0  0  0  0  0  0  0  0  0  0  0
    9.9998   -0.3619   -0.8582 C   0  0  0  0  0  0  0  0  0  0  0  0
    9.8300   -1.0464    5.9010 C   0  0  0  0  0  0  0  0  0  0  0  0
    3.7647   -0.0010   -1.2224 C   0  0  0  0  0  0  0  0  0  0  0  0
    2.3755   -0.0006   -1.2202 C   0  0  0  0  0  0  0  0  0  0  0  0
    1.8351   -0.0042    2.1625 H   0  0  0  0  0  0  0  0  0  0  0  0
    4.2969    0.0064    2.1815 H   0  0  0  0  0  0  0  0  0  0  0  0
    6.2660   -0.0282   -1.0453 H   0  0  0  0  0  0  0  0  0  0  0  0
    7.5240    2.0183   -0.8026 H   0  0  0  0  0  0  0  0  0  0  0  0
    8.6691    2.6843   -2.9046 H   0  0  0  0  0  0  0  0  0  0  0  0
   11.5549   -0.4935   -2.3459 H   0  0  0  0  0  0  0  0  0  0  0  0
   10.3867   -1.1902   -0.2541 H   0  0  0  0  0  0  0  0  0  0  0  0
   10.9233   -1.1566    5.9997 H   0  0  0  0  0  0  0  0  0  0  0  0
    9.3682   -1.9626    6.3040 H   0  0  0  0  0  0  0  0  0  0  0  0
    9.5251   -0.2138    6.5561 H   0  0  0  0  0  0  0  0  0  0  0  0
    4.3004   -0.0024   -2.1700 H   0  0  0  0  0  0  0  0  0  0  0  0
    1.8249   -0.0021   -2.1621 H   0  0  0  0  0  0  0  0  0  0  0  0
  1  2  1  0  0  0  0
  2  3  2  0  0  0  0
  3  4  1  0  0  0  0
  3 27  1  0  0  0  0
  4 28  1  0  0  0  0
  5  4  2  0  0  0  0
  6  5  1  0  0  0  0
  6  7  1  0  0  0  0
  7  8  2  0  0  0  0
  8  9  1  0  0  0  0
  9 10  1  0  0  0  0
 10 12  1  0  0  0  0
 10 11  2  0  0  0  0
 12 24  1  0  0  0  0
 13 12  2  0  0  0  0
 14 13  1  0  0  0  0
 15 14  2  0  0  0  0
 15  9  1  0  0  0  0
 16  7  1  0  0  0  0
 16 15  1  0  0  0  0
 17 16  1  0  0  0  0
 18 30  1  0  0  0  0
 18 17  2  0  0  0  0
 19 18  1  0  0  0  0
 20 19  2  0  0  0  0
 20 22  1  0  0  0  0
 21 20  1  0  0  0  0
 22 23  2  0  0  0  0
 23 17  1  0  0  0  0
 23 33  1  0  0  0  0
 24 34  1  0  0  0  0
 24 35  1  0  0  0  0
 24 36  1  0  0  0  0
 25 26  2  0  0  0  0
 25  5  1  0  0  0  0
 26  2  1  0  0  0  0
 29  6  1  0  0  0  0
 31 19  1  0  0  0  0
 32 22  1  0  0  0  0
 37 25  1  0  0  0  0
 38 26  1  0  0  0  0
M  END
$$$$
