38
rmsd20.gzmat
Cl         0.00000        0.00000        0.00000
C          1.70920        0.00000        0.00000
C          2.37960        0.00000        1.21590
C          3.77190        0.00700        1.21930
C          4.46310        0.01110        0.00200
N          5.87540        0.09310       -0.09750
C          6.73870       -0.15190        0.94460
N          6.46580       -0.53530        2.20450
N          7.67760       -0.62310        2.85750
C          7.90950       -0.99100        4.23010
O          7.00180       -1.24190        4.96570
C          9.36800       -0.99130        4.49690
N         10.30000       -0.71040        3.60850
N         10.03810       -0.38020        2.36290
C          8.74440       -0.32350        1.99100
N          8.16210       -0.02290        0.75470
C          8.84890        0.56790       -0.33750
C          8.30250        1.67890       -0.99290
C          8.97500        2.22100       -2.08400
C         10.18290        1.65380       -2.47290
Cl        11.00430        2.31980       -3.81390
C         10.75550        0.57430       -1.80960
C         10.08040        0.02160       -0.72620
C          9.75860       -1.34230        5.88660
C          3.76530        0.00340       -1.22140
C          2.37570        0.00040       -1.21930
H          1.83490       -0.00640        2.16310
H          4.29660        0.00660        2.18120
H          6.27340        0.03570       -1.03880
H          7.37800        2.14040       -0.64080
H          8.56050        3.08370       -2.60910
H         11.71900        0.16310       -2.11990
H         10.51780       -0.81490       -0.16910
H         10.85250       -1.31420        6.02670
H          9.41880       -2.35560        6.15690
H          9.31580       -0.64570        6.61750
H          4.30090        0.00200       -2.16880
H          1.82520       -0.00330       -2.16110
