rmsd22.gzmat
 OpenBabel08211713383D

 38 41  0  0  0  0  0  0  0  0999 V2000
    0.0000    0.0000    0.0000 Cl  0  0  0  0  0  0  0  0  0  0  0  0
    1.7091    0.0000    0.0000 C   0  0  0  0  0  0  0  0  0  0  0  0
    2.3812    0.0000    1.2145 C   0  0  0  0  0  0  0  0  0  0  0  0
    3.7740   -0.0040    1.2160 C   0  0  0  0  0  0  0  0  0  0  0  0
    4.4637   -0.0057   -0.0015 C   0  0  0  0  0  0  0  0  0  0  0  0
    5.8762   -0.0591   -0.1138 N   0  0  0  0  0  0  0  0  0  0  0  0
    6.7495    0.0559    0.9398 C   0  0  0  0  0  0  0  0  0  0  0  0
    6.4896    0.1529    2.2566 N   0  0  0  0  0  0  0  0  0  0  0  0
    7.7122    0.2303    2.8918 N   0  0  0  0  0  0  0  0  0  0  0  0
    7.9611    0.3460    4.3052 C   0  0  0  0  0  0  0  0  0  0  0  0
    7.0624    0.3717    5.0921 O   0  0  0  0  0  0  0  0  0  0  0  0
    9.4228    0.4241    4.5404 C   0  0  0  0  0  0  0  0  0  0  0  0
   10.3434    0.4056    3.5972 N   0  0  0  0  0  0  0  0  0  0  0  0
   10.0665    0.3025    2.3162 N   0  0  0  0  0  0  0  0  0  0  0  0
    8.7694    0.2033    1.9650 C   0  0  0  0  0  0  0  0  0  0  0  0
    8.1717    0.1005    0.7042 N   0  0  0  0  0  0  0  0  0  0  0  0
    8.8713   -0.2012   -0.4931 C   0  0  0  0  0  0  0  0  0  0  0  0
    9.9916    0.5756   -0.8193 C   0  0  0  0  0  0  0  0  0  0  0  0
   10.6831    0.3069   -1.9959 C   0  0  0  0  0  0  0  0  0  0  0  0
   10.2363   -0.7273   -2.8109 C   0  0  0  0  0  0  0  0  0  0  0  0
   11.0788   -1.0476   -4.2612 Cl  0  0  0  0  0  0  0  0  0  0  0  0
    9.1395   -1.5186   -2.4899 C   0  0  0  0  0  0  0  0  0  0  0  0
    8.4508   -1.2595   -1.3084 C   0  0  0  0  0  0  0  0  0  0  0  0
    9.8321    0.5287    5.9647 C   0  0  0  0  0  0  0  0  0  0  0  0
    3.7631   -0.0024   -1.2244 C   0  0  0  0  0  0  0  0  0  0  0  0
    2.3740   -0.0017   -1.2206 C   0  0  0  0  0  0  0  0  0  0  0  0
    1.8381    0.0033    2.1632 H   0  0  0  0  0  0  0  0  0  0  0  0
    4.2969   -0.0060    2.1798 H   0  0  0  0  0  0  0  0  0  0  0  0
    6.2666    0.0819   -1.0488 H   0  0  0  0  0  0  0  0  0  0  0  0
   10.3310    1.3678   -0.1432 H   0  0  0  0  0  0  0  0  0  0  0  0
   11.5627    0.8984   -2.2598 H   0  0  0  0  0  0  0  0  0  0  0  0
    8.8259   -2.3393   -3.1381 H   0  0  0  0  0  0  0  0  0  0  0  0
    7.6166   -1.8989   -1.0136 H   0  0  0  0  0  0  0  0  0  0  0  0
   10.9264    0.6164    6.0733 H   0  0  0  0  0  0  0  0  0  0  0  0
    9.5158   -0.3575    6.5394 H   0  0  0  0  0  0  0  0  0  0  0  0
    9.3817    1.4091    6.4516 H   0  0  0  0  0  0  0  0  0  0  0  0
    4.2970   -0.0063   -2.1724 H   0  0  0  0  0  0  0  0  0  0  0  0
    1.8222   -0.0024   -2.1618 H   0  0  0  0  0  0  0  0  0  0  0  0
  1  2  1  0  0  0  0
  2  3  2  0  0  0  0
  3  4  1  0  0  0  0
  3 27  1  0  0  0  0
  4 28  1  0  0  0  0
  5  4  2  0  0  0  0
  6  5  1  0  0  0  0
  6  7  1  0  0  0  0
  7  8  2  0  0  0  0
  8  9  1  0  0  0  0
  9 10  1  0  0  0  0
 10 12  1  0  0  0  0
 10 11  2  0  0  0  0
 12 24  1  0  0  0  0
 13 12  2  0  0  0  0
 14 13  1  0  0  0  0
 15 14  2  0  0  0  0
 15  9  1  0  0  0  0
 16  7  1  0  0  0  0
 16 15  1  0  0  0  0
 17 16  1  0  0  0  0
 18 17  1  0  0  0  0
 18 30  1  0  0  0  0
 19 18  2  0  0  0  0
 20 22  2  0  0  0  0
 20 19  1  0  0  0  0
 21 20  1  0  0  0  0
 22 23  1  0  0  0  0
 23 33  1  0  0  0  0
 23 17  2  0  0  0  0
 24 34  1  0  0  0  0
 24 36  1  0  0  0  0
 24 35  1  0  0  0  0
 25 26  2  0  0  0  0
 25  5  1  0  0  0  0
 26  2  1  0  0  0  0
 29  6  1  0  0  0  0
 31 19  1  0  0  0  0
 32 22  1  0  0  0  0
 37 25  1  0  0  0  0
 38 26  1  0  0  0  0
M  END
$$$$
