38
rmsd19.gzmat
Cl         0.00000        0.00000        0.00000
C          1.70920        0.00000        0.00000
C          2.37790        0.00000        1.21780
C          3.76930        0.00640        1.22140
C          4.46030        0.00770        0.00320
N          5.87620        0.10790       -0.06770
C          6.70300       -0.39360        0.91550
N          6.37670       -1.03980        2.04880
N          7.56240       -1.29920        2.70370
C          7.74010       -1.97220        3.96500
O          6.80350       -2.35650        4.59920
C          9.18820       -2.07060        4.26750
N         10.15590       -1.61920        3.49480
N          9.94390       -1.00990        2.34920
C          8.66540       -0.84030        1.95900
N          8.13250       -0.25750        0.80500
C          8.86450        0.52340       -0.12670
C          8.35980        1.75820       -0.55460
C          9.07250        2.49210       -1.49780
C         10.27750        1.98340       -1.96720
Cl        11.15050        2.88540       -3.12510
C         10.80810        0.77630       -1.52630
C         10.09390        0.03450       -0.59070
C          9.52220       -2.73450        5.55360
C          3.76690        0.00120       -1.22000
C          2.37620       -0.00020       -1.21870
H          1.83080       -0.00730        2.16340
H          4.30290        0.00390        2.17720
H          6.28170        0.16920       -1.00590
H          7.43370        2.16070       -0.13880
H          8.69080        3.45410       -1.84540
H         11.76890        0.41120       -1.89620
H         10.49770       -0.90780       -0.20360
H         10.61150       -2.78590        5.72020
H          9.13470       -3.76590        5.58900
H          9.08380       -2.19350        6.40820
H          4.30440       -0.00540       -2.16590
H          1.82760       -0.00510       -2.16170
