38
rmsd21.gzmat
Cl         0.00000        0.00000        0.00000
C          1.70910        0.00000        0.00000
C          2.37920        0.00000        1.21700
C          3.77050        0.01300        1.21820
C          4.46010        0.02230       -0.00120
N          5.87350        0.13990       -0.07530
C          6.70810       -0.30110        0.93010
N          6.40240       -1.00000        2.03670
N          7.57980       -1.15830        2.73540
C          7.76710       -1.82660        3.99790
O          6.84380       -2.30040        4.58980
C          9.20470       -1.79810        4.35850
N         10.15620       -1.25000        3.62960
N          9.93560       -0.64570        2.48270
C          8.66380       -0.58550        2.04160
N          8.12270       -0.03130        0.87670
C          8.80920        0.83970       -0.00870
C          8.19130        2.01760       -0.44970
C          8.86290        2.84160       -1.34750
C         10.13940        2.47790       -1.75980
Cl        10.96120        3.49090       -2.86220
C         10.77890        1.33030       -1.30540
C         10.10600        0.49760       -0.41660
C          9.54590       -2.44800        5.65030
C          3.76470        0.01000       -1.22320
C          2.37460        0.00110       -1.21950
H          1.83430       -0.01260        2.16360
H          4.30490        0.00920        2.17320
H          6.28280        0.18430       -1.01190
H          7.20530        2.30730       -0.07990
H          8.39260        3.75870       -1.70630
H         11.79130        1.08000       -1.62930
H         10.59310       -0.40200       -0.02360
H         10.62340       -2.37650        5.87650
H          9.28140       -3.51840        5.64640
H          9.00330       -1.98390        6.49050
H          4.30050        0.00650       -2.17000
H          1.82360       -0.00890       -2.16100
