
     RDKit          3D

 38 41  0  0  0  0  0  0  0  0999 V2000
   -0.0393    0.1077    0.0870 Cl  0  0  0  0  0  0  0  0  0  0  0  0
    1.7055    0.0491    0.0463 C   0  0  0  0  0  0  0  0  0  0  0  0
    2.4348    0.3053    1.2109 C   0  0  0  0  0  0  0  0  0  0  0  0
    3.8250    0.2578    1.1722 C   0  0  0  0  0  0  0  0  0  0  0  0
    4.5001   -0.0460   -0.0223 C   0  0  0  0  0  0  0  0  0  0  0  0
    5.9068   -0.0660    0.0211 N   0  0  0  0  0  0  0  0  0  0  0  0
    6.7806   -0.3586   -0.9748 C   0  0  0  0  0  0  0  0  0  0  0  0
    6.4909   -0.7183   -2.1981 N   0  0  0  0  0  0  0  0  0  0  0  0
    7.7153   -0.9319   -2.7876 N   0  0  0  0  0  0  0  0  0  0  0  0
    7.9388   -1.3427   -4.1147 C   0  0  0  0  0  0  0  0  0  0  0  0
    7.0486   -1.5460   -4.9101 O   0  0  0  0  0  0  0  0  0  0  0  0
    9.3948   -1.4792   -4.3506 C   0  0  0  0  0  0  0  0  0  0  0  0
   10.3246   -1.2542   -3.4579 N   0  0  0  0  0  0  0  0  0  0  0  0
   10.0227   -0.8575   -2.1903 N   0  0  0  0  0  0  0  0  0  0  0  0
    8.7594   -0.7137   -1.9317 C   0  0  0  0  0  0  0  0  0  0  0  0
    8.1607   -0.3140   -0.7437 N   0  0  0  0  0  0  0  0  0  0  0  0
    8.8461    0.0676    0.4416 C   0  0  0  0  0  0  0  0  0  0  0  0
    9.8669   -0.7464    0.9473 C   0  0  0  0  0  0  0  0  0  0  0  0
   10.5407   -0.3708    2.1071 C   0  0  0  0  0  0  0  0  0  0  0  0
   10.1846    0.8111    2.7654 C   0  0  0  0  0  0  0  0  0  0  0  0
   11.0168    1.2692    4.2247 Cl  0  0  0  0  0  0  0  0  0  0  0  0
    9.1748    1.6341    2.2597 C   0  0  0  0  0  0  0  0  0  0  0  0
    8.5156    1.2676    1.0860 C   0  0  0  0  0  0  0  0  0  0  0  0
    9.7982   -1.9141   -5.7251 C   0  0  0  0  0  0  0  0  0  0  0  0
    3.7606   -0.3043   -1.1874 C   0  0  0  0  0  0  0  0  0  0  0  0
    2.3664   -0.2539   -1.1451 C   0  0  0  0  0  0  0  0  0  0  0  0
    1.9138    0.5403    2.1398 H   0  0  0  0  0  0  0  0  0  0  0  0
    4.3947    0.4593    2.0839 H   0  0  0  0  0  0  0  0  0  0  0  0
    6.3244    0.0959    0.9300 H   0  0  0  0  0  0  0  0  0  0  0  0
   10.1445   -1.6569    0.4173 H   0  0  0  0  0  0  0  0  0  0  0  0
   11.3414   -0.9934    2.5076 H   0  0  0  0  0  0  0  0  0  0  0  0
    8.9238    2.5642    2.7707 H   0  0  0  0  0  0  0  0  0  0  0  0
    7.7576    1.9277    0.6605 H   0  0  0  0  0  0  0  0  0  0  0  0
   10.8916   -1.9828   -5.7821 H   0  0  0  0  0  0  0  0  0  0  0  0
    9.4277   -1.2027   -6.4810 H   0  0  0  0  0  0  0  0  0  0  0  0
    9.3479   -2.8895   -5.9711 H   0  0  0  0  0  0  0  0  0  0  0  0
    4.2736   -0.5463   -2.1158 H   0  0  0  0  0  0  0  0  0  0  0  0
    1.7885   -0.4545   -2.0483 H   0  0  0  0  0  0  0  0  0  0  0  0
  1  2  1  0
  2  3  2  0
  2 26  1  0
  3  4  1  0
  3 27  1  0
  4  5  2  0
  4 28  1  0
  5  6  1  0
  5 25  1  0
  6  7  1  0
  6 29  1  0
  7  8  2  0
  7 16  1  0
  8  9  1  0
  9 10  1  0
  9 15  1  0
 10 11  2  0
 10 12  1  0
 12 13  2  0
 12 24  1  0
 13 14  1  0
 14 15  2  0
 15 16  1  0
 16 17  1  0
 17 18  2  0
 17 23  1  0
 18 19  1  0
 18 30  1  0
 19 20  2  0
 19 31  1  0
 20 21  1  0
 20 22  1  0
 22 23  2  0
 22 32  1  0
 23 33  1  0
 24 34  1  0
 24 35  1  0
 24 36  1  0
 25 26  2  0
 25 37  1  0
 26 38  1  0
M  END

