38
rmsd26.gzmat
Cl         0.00000        0.00000        0.00000
C          1.70920        0.00000        0.00000
C          2.37820        0.00000        1.21690
C          3.77040       -0.00400        1.22080
C          4.46120       -0.02160        0.00370
N          5.88030        0.02290       -0.08130
C          6.69980       -0.47710        0.90710
N          6.40240       -0.75780        2.18860
N          7.56970       -1.20500        2.77190
C          7.76640       -1.61870        4.13680
O          6.86730       -1.60940        4.92370
C          9.18010       -2.02220        4.32710
N         10.10210       -2.02000        3.38520
N          9.87310       -1.63730        2.14810
C          8.62890       -1.21750        1.84580
N          8.08700       -0.76220        0.63940
C          8.84770       -0.40390       -0.50350
C          8.67910        0.85420       -1.09520
C          9.40720        1.16670       -2.23950
C         10.29410        0.22320       -2.74470
Cl        11.17970        0.60590       -4.15350
C         10.49790       -1.01520       -2.14630
C          9.76600       -1.33510       -1.00780
C          9.53400       -2.44720        5.70600
C          3.76620       -0.01160       -1.21970
C          2.37600        0.00080       -1.21940
H          1.83290        0.00150        2.16380
H          4.29890        0.00720        2.18120
H          6.26970        0.02170       -1.02880
H          8.01200        1.59710       -0.65360
H          9.28730        2.14120       -2.71690
H         11.21960       -1.72880       -2.54980
H          9.91920       -2.29220       -0.49760
H         10.59010       -2.75490        5.78480
H          8.91620       -3.29780        6.03760
H          9.37580       -1.63050        6.42960
H          4.30270       -0.01410       -2.16650
H          1.82850        0.00570       -2.16310
