38
rmsd4.gzmat
Cl         0.00000        0.00000        0.00000
C          1.70910        0.00000        0.00000
C          2.37700        0.00000        1.21950
C          3.76610       -0.00080        1.21970
C          4.46370       -0.00850       -0.00520
N          5.87500       -0.05480        0.10280
C          6.74600       -0.06720       -0.95790
N          6.49260        0.06410       -2.27290
N          7.70950       -0.02360       -2.91630
C          7.96080        0.06090       -4.33160
O          7.06640        0.19420       -5.11280
C          9.41940       -0.03760       -4.57640
N         10.33700       -0.17290       -3.63970
N         10.05840       -0.24610       -2.35690
C          8.76140       -0.18220       -1.99570
N          8.16300       -0.21450       -0.73290
C          8.82340       -0.54050        0.47920
C          8.26060       -1.48470        1.34790
C          8.89170       -1.75200        2.55910
C         10.07750       -1.08970        2.85410
Cl        10.84240       -1.41170        4.34650
C         10.67090       -0.18390        1.98200
C         10.03690        0.09540        0.77530
C          9.82890        0.02740       -6.00310
C          3.77130       -0.00400       -1.22150
C          2.37870        0.00080       -1.21600
H          1.82810        0.00000        2.16270
H          4.30270        0.00010        2.16630
H          6.27510        0.11510        1.02760
H          7.35590       -2.03030        1.07320
H          8.46290       -2.47820        3.25250
H         11.61790        0.30210        2.22780
H         10.48970        0.78670        0.05590
H         10.92610        0.05340       -6.11570
H          9.42450        0.92450       -6.49970
H          9.46320       -0.84780       -6.56520
H          4.29240       -0.00000       -2.18600
H          1.83270        0.00690       -2.16290
