38
rmsd22.gzmat
Cl         0.00000        0.00000        0.00000
C          1.70910        0.00000        0.00000
C          2.38120        0.00000        1.21450
C          3.77400       -0.00400        1.21600
C          4.46370       -0.00570       -0.00150
N          5.87620       -0.05910       -0.11380
C          6.74950        0.05590        0.93980
N          6.48960        0.15290        2.25660
N          7.71220        0.23030        2.89180
C          7.96110        0.34600        4.30520
O          7.06240        0.37170        5.09210
C          9.42280        0.42410        4.54040
N         10.34340        0.40560        3.59720
N         10.06650        0.30250        2.31620
C          8.76940        0.20330        1.96500
N          8.17170        0.10050        0.70420
C          8.87130       -0.20120       -0.49310
C          9.99160        0.57560       -0.81930
C         10.68310        0.30690       -1.99590
C         10.23630       -0.72730       -2.81090
Cl        11.07880       -1.04760       -4.26120
C          9.13950       -1.51860       -2.48990
C          8.45080       -1.25950       -1.30840
C          9.83210        0.52870        5.96470
C          3.76310       -0.00240       -1.22440
C          2.37400       -0.00170       -1.22060
H          1.83810        0.00330        2.16320
H          4.29690       -0.00600        2.17980
H          6.26660        0.08190       -1.04880
H         10.33100        1.36780       -0.14320
H         11.56270        0.89840       -2.25980
H          8.82590       -2.33930       -3.13810
H          7.61660       -1.89890       -1.01360
H         10.92640        0.61640        6.07330
H          9.51580       -0.35750        6.53940
H          9.38170        1.40910        6.45160
H          4.29700       -0.00630       -2.17240
H          1.82220       -0.00240       -2.16180
