rmsd20.gzmat
 OpenBabel08211713383D

 38 41  0  0  0  0  0  0  0  0999 V2000
    0.0000    0.0000    0.0000 Cl  0  0  0  0  0  0  0  0  0  0  0  0
    1.7092    0.0000    0.0000 C   0  0  0  0  0  0  0  0  0  0  0  0
    2.3796    0.0000    1.2159 C   0  0  0  0  0  0  0  0  0  0  0  0
    3.7719    0.0070    1.2193 C   0  0  0  0  0  0  0  0  0  0  0  0
    4.4631    0.0111    0.0020 C   0  0  0  0  0  0  0  0  0  0  0  0
    5.8754    0.0931   -0.0975 N   0  0  0  0  0  0  0  0  0  0  0  0
    6.7387   -0.1519    0.9446 C   0  0  0  0  0  0  0  0  0  0  0  0
    6.4658   -0.5353    2.2045 N   0  0  0  0  0  0  0  0  0  0  0  0
    7.6776   -0.6231    2.8575 N   0  0  0  0  0  0  0  0  0  0  0  0
    7.9095   -0.9910    4.2301 C   0  0  0  0  0  0  0  0  0  0  0  0
    7.0018   -1.2419    4.9657 O   0  0  0  0  0  0  0  0  0  0  0  0
    9.3680   -0.9913    4.4969 C   0  0  0  0  0  0  0  0  0  0  0  0
   10.3000   -0.7104    3.6085 N   0  0  0  0  0  0  0  0  0  0  0  0
   10.0381   -0.3802    2.3629 N   0  0  0  0  0  0  0  0  0  0  0  0
    8.7444   -0.3235    1.9910 C   0  0  0  0  0  0  0  0  0  0  0  0
    8.1621   -0.0229    0.7547 N   0  0  0  0  0  0  0  0  0  0  0  0
    8.8489    0.5679   -0.3375 C   0  0  0  0  0  0  0  0  0  0  0  0
    8.3025    1.6789   -0.9929 C   0  0  0  0  0  0  0  0  0  0  0  0
    8.9750    2.2210   -2.0840 C   0  0  0  0  0  0  0  0  0  0  0  0
   10.1829    1.6538   -2.4729 C   0  0  0  0  0  0  0  0  0  0  0  0
   11.0043    2.3198   -3.8139 Cl  0  0  0  0  0  0  0  0  0  0  0  0
   10.7555    0.5743   -1.8096 C   0  0  0  0  0  0  0  0  0  0  0  0
   10.0804    0.0216   -0.7262 C   0  0  0  0  0  0  0  0  0  0  0  0
    9.7586   -1.3423    5.8866 C   0  0  0  0  0  0  0  0  0  0  0  0
    3.7653    0.0034   -1.2214 C   0  0  0  0  0  0  0  0  0  0  0  0
    2.3757    0.0004   -1.2193 C   0  0  0  0  0  0  0  0  0  0  0  0
    1.8349   -0.0064    2.1631 H   0  0  0  0  0  0  0  0  0  0  0  0
    4.2966    0.0066    2.1812 H   0  0  0  0  0  0  0  0  0  0  0  0
    6.2734    0.0357   -1.0388 H   0  0  0  0  0  0  0  0  0  0  0  0
    7.3780    2.1404   -0.6408 H   0  0  0  0  0  0  0  0  0  0  0  0
    8.5605    3.0837   -2.6091 H   0  0  0  0  0  0  0  0  0  0  0  0
   11.7190    0.1631   -2.1199 H   0  0  0  0  0  0  0  0  0  0  0  0
   10.5178   -0.8149   -0.1691 H   0  0  0  0  0  0  0  0  0  0  0  0
   10.8525   -1.3142    6.0267 H   0  0  0  0  0  0  0  0  0  0  0  0
    9.4188   -2.3556    6.1569 H   0  0  0  0  0  0  0  0  0  0  0  0
    9.3158   -0.6457    6.6175 H   0  0  0  0  0  0  0  0  0  0  0  0
    4.3009    0.0020   -2.1688 H   0  0  0  0  0  0  0  0  0  0  0  0
    1.8252   -0.0033   -2.1611 H   0  0  0  0  0  0  0  0  0  0  0  0
  1  2  1  0  0  0  0
  2  3  2  0  0  0  0
  3  4  1  0  0  0  0
  3 27  1  0  0  0  0
  4 28  1  0  0  0  0
  5  4  2  0  0  0  0
  6  5  1  0  0  0  0
  6  7  1  0  0  0  0
  7  8  2  0  0  0  0
  8  9  1  0  0  0  0
  9 10  1  0  0  0  0
 10 12  1  0  0  0  0
 10 11  2  0  0  0  0
 12 24  1  0  0  0  0
 13 12  2  0  0  0  0
 14 13  1  0  0  0  0
 15 14  2  0  0  0  0
 15  9  1  0  0  0  0
 16  7  1  0  0  0  0
 16 15  1  0  0  0  0
 17 16  1  0  0  0  0
 18 30  1  0  0  0  0
 18 17  2  0  0  0  0
 19 18  1  0  0  0  0
 20 19  2  0  0  0  0
 20 22  1  0  0  0  0
 21 20  1  0  0  0  0
 22 23  2  0  0  0  0
 23 17  1  0  0  0  0
 23 33  1  0  0  0  0
 24 34  1  0  0  0  0
 24 35  1  0  0  0  0
 24 36  1  0  0  0  0
 25 26  2  0  0  0  0
 25  5  1  0  0  0  0
 26  2  1  0  0  0  0
 29  6  1  0  0  0  0
 31 19  1  0  0  0  0
 32 22  1  0  0  0  0
 37 25  1  0  0  0  0
 38 26  1  0  0  0  0
M  END
$$$$
