rmsd82.gzmat
 OpenBabel08211713423D

 29 29  0  0  1  0  0  0  0  0999 V2000
    0.0000    0.0000    0.0000 O   0  0  0  0  0  0  0  0  0  0  0  0
    1.1987    0.0000    0.0000 C   0  0  0  0  0  0  0  0  0  0  0  0
    1.9022    0.0000    1.1612 O   0  0  0  0  0  0  0  0  0  0  0  0
    2.1720   -0.0302   -1.1766 C   0  0  1  0  0  0  0  0  0  0  0  0
    3.0769   -0.6328   -0.8962 H   0  0  0  0  0  0  0  0  0  0  0  0
    1.4815   -0.6244   -2.4275 C   0  0  0  0  0  0  0  0  0  0  0  0
    1.5119    0.4812   -3.4970 C   0  0  0  0  0  0  0  0  0  0  0  0
    1.8381    1.7798   -2.7366 C   0  0  0  0  0  0  0  0  0  0  0  0
    2.5165    1.3595   -1.4906 N   0  0  0  0  0  0  0  0  0  0  0  0
    3.7209    1.9606   -1.1387 C   0  0  0  0  0  0  0  0  0  0  0  0
    4.0851    2.9392   -1.7614 O   0  0  0  0  0  0  0  0  0  0  0  0
    4.4877    1.4504    0.0727 C   0  0  2  0  0  0  0  0  0  0  0  0
    4.1589    0.4243    0.3767 H   0  0  0  0  0  0  0  0  0  0  0  0
    4.1968    2.4130    1.2284 C   0  0  0  0  0  0  0  0  0  0  0  0
    5.9784    1.4445   -0.2609 C   0  0  0  0  0  0  0  0  0  0  0  0
    6.3524    0.3386   -1.6764 S   0  0  0  0  0  0  0  0  0  0  0  0
    1.3387    0.0438    1.9725 H   0  0  0  0  0  0  0  0  0  0  0  0
    0.4392   -0.9272   -2.2094 H   0  0  0  0  0  0  0  0  0  0  0  0
    2.0036   -1.5321   -2.7708 H   0  0  0  0  0  0  0  0  0  0  0  0
    2.2781    0.2689   -4.2623 H   0  0  0  0  0  0  0  0  0  0  0  0
    0.5503    0.5587   -4.0293 H   0  0  0  0  0  0  0  0  0  0  0  0
    2.4752    2.4724   -3.3280 H   0  0  0  0  0  0  0  0  0  0  0  0
    0.9148    2.3347   -2.4585 H   0  0  0  0  0  0  0  0  0  0  0  0
    4.7989    2.1709    2.1112 H   0  0  0  0  0  0  0  0  0  0  0  0
    3.1411    2.3605    1.5266 H   0  0  0  0  0  0  0  0  0  0  0  0
    4.4108    3.4545    0.9503 H   0  0  0  0  0  0  0  0  0  0  0  0
    6.3328    2.4729   -0.4759 H   0  0  0  0  0  0  0  0  0  0  0  0
    6.5695    1.0814    0.6018 H   0  0  0  0  0  0  0  0  0  0  0  0
    6.0182    1.1486   -2.6921 H   0  0  0  0  0  0  0  0  0  0  0  0
  1  2  2  0  0  0  0
  2  3  1  0  0  0  0
  3 17  1  0  0  0  0
  4  5  1  1  0  0  0
  4  2  1  0  0  0  0
  6 18  1  0  0  0  0
  6  4  1  0  0  0  0
  7  8  1  0  0  0  0
  7  6  1  0  0  0  0
  8 23  1  0  0  0  0
  8  9  1  0  0  0  0
  9  4  1  0  0  0  0
  9 10  1  0  0  0  0
 10 12  1  0  0  0  0
 11 10  2  0  0  0  0
 12 13  1  1  0  0  0
 12 14  1  0  0  0  0
 14 25  1  0  0  0  0
 14 24  1  0  0  0  0
 15 12  1  0  0  0  0
 15 28  1  0  0  0  0
 16 15  1  0  0  0  0
 19  6  1  0  0  0  0
 20  7  1  0  0  0  0
 21  7  1  0  0  0  0
 22  8  1  0  0  0  0
 26 14  1  0  0  0  0
 27 15  1  0  0  0  0
 29 16  1  0  0  0  0
M  END
$$$$
