
     RDKit          3D

 29 29  0  0  0  0  0  0  0  0999 V2000
    1.2333    0.9510    0.7730 O   0  0  0  0  0  0  0  0  0  0  0  0
    1.6328   -0.0141    0.1747 C   0  0  0  0  0  0  0  0  0  0  0  0
    1.5285   -1.2716    0.6447 O   0  0  0  0  0  0  0  0  0  0  0  0
    2.2838   -0.0110   -1.1990 C   0  0  1  0  0  0  0  0  0  0  0  0
    3.1706   -0.6656   -1.1654 H   0  0  0  0  0  0  0  0  0  0  0  0
    1.2873   -0.5186   -2.2746 C   0  0  0  0  0  0  0  0  0  0  0  0
    1.6387    0.3170   -3.5095 C   0  0  0  0  0  0  0  0  0  0  0  0
    1.9766    1.6807   -2.9080 C   0  0  0  0  0  0  0  0  0  0  0  0
    2.6389    1.3255   -1.6519 N   0  0  0  0  0  0  0  0  0  0  0  0
    3.5976    2.1386   -1.1216 C   0  0  0  0  0  0  0  0  0  0  0  0
    3.8779    3.2138   -1.6347 O   0  0  0  0  0  0  0  0  0  0  0  0
    4.3665    1.6588    0.1134 C   0  0  2  0  0  0  0  0  0  0  0  0
    4.0257    0.6668    0.4380 H   0  0  0  0  0  0  0  0  0  0  0  0
    4.1656    2.6564    1.2594 C   0  0  0  0  0  0  0  0  0  0  0  0
    5.8453    1.5327   -0.2698 C   0  0  0  0  0  0  0  0  0  0  0  0
    6.1637    0.3202   -1.6170 S   0  0  0  0  0  0  0  0  0  0  0  0
    1.0735   -1.2185    1.5029 H   0  0  0  0  0  0  0  0  0  0  0  0
    0.2548   -0.2994   -1.9578 H   0  0  0  0  0  0  0  0  0  0  0  0
    1.3689   -1.6036   -2.4222 H   0  0  0  0  0  0  0  0  0  0  0  0
    2.5280   -0.1004   -4.0090 H   0  0  0  0  0  0  0  0  0  0  0  0
    0.8218    0.3595   -4.2443 H   0  0  0  0  0  0  0  0  0  0  0  0
    2.6514    2.2978   -3.5152 H   0  0  0  0  0  0  0  0  0  0  0  0
    1.0665    2.2765   -2.7127 H   0  0  0  0  0  0  0  0  0  0  0  0
    4.7804    2.3799    2.1305 H   0  0  0  0  0  0  0  0  0  0  0  0
    3.1100    2.6739    1.5675 H   0  0  0  0  0  0  0  0  0  0  0  0
    4.4500    3.6669    0.9306 H   0  0  0  0  0  0  0  0  0  0  0  0
    6.2437    2.5110   -0.5723 H   0  0  0  0  0  0  0  0  0  0  0  0
    6.4317    1.1742    0.5893 H   0  0  0  0  0  0  0  0  0  0  0  0
    5.7357    1.1134   -2.6258 H   0  0  0  0  0  0  0  0  0  0  0  0
  1  2  2  0
  2  3  1  0
  2  4  1  0
  3 17  1  0
  4  5  1  1
  4  6  1  0
  4  9  1  0
  6  7  1  0
  6 18  1  0
  6 19  1  0
  7  8  1  0
  7 20  1  0
  7 21  1  0
  8  9  1  0
  8 22  1  0
  8 23  1  0
  9 10  1  0
 10 11  2  0
 10 12  1  0
 12 13  1  1
 12 14  1  0
 12 15  1  0
 14 24  1  0
 14 25  1  0
 14 26  1  0
 15 16  1  0
 15 27  1  0
 15 28  1  0
 16 29  1  0
M  END

