29

O          0.59680       -1.14760        0.13670
C          1.32620       -0.20520       -0.04330
O          1.41790        0.82240        0.82060
C          2.26910       -0.07350       -1.24110
H          3.13830       -0.71660       -1.03010
C          1.57900       -0.50870       -2.54270
C          0.93600        0.79500       -3.03000
C          1.98600        1.85680       -2.68670
N          2.69140        1.29170       -1.52880
C          3.73520        1.97900       -0.98430
O          4.06900        3.06940       -1.42960
C          4.51520        1.34750        0.17270
H          4.02990        0.42670        0.51920
C          4.58060        2.33830        1.33960
C          5.92090        0.99390       -0.32870
S          5.95130       -0.21940       -1.71220
H          0.81490        0.62270        1.55770
H          0.87060       -1.32860       -2.37000
H          2.34880       -0.85070       -3.25170
H          0.68420        0.78310       -4.09990
H          0.00340        0.98290       -2.47250
H          2.70250        2.01990       -3.51030
H          1.56000        2.84000       -2.43850
H          5.20940        1.94450        2.15350
H          3.57270        2.52460        1.73920
H          4.99730        3.29660        0.99710
H          6.45020        1.90390       -0.64500
H          6.50500        0.52410        0.47680
H          5.55730        0.64480       -2.67570
