rmsd150.gzmat
 OpenBabel08211713423D

 29 29  0  0  1  0  0  0  0  0999 V2000
    0.0000    0.0000    0.0000 O   0  0  0  0  0  0  0  0  0  0  0  0
    1.1997    0.0000    0.0000 C   0  0  0  0  0  0  0  0  0  0  0  0
    1.9053    0.0000    1.1604 O   0  0  0  0  0  0  0  0  0  0  0  0
    2.1711   -0.0162   -1.1758 C   0  0  1  0  0  0  0  0  0  0  0  0
    2.8719    0.8584   -1.0744 H   0  0  0  0  0  0  0  0  0  0  0  0
    2.9067   -1.3695   -1.2402 C   0  0  0  0  0  0  0  0  0  0  0  0
    2.0866   -2.2345   -2.2157 C   0  0  0  0  0  0  0  0  0  0  0  0
    1.1919   -1.2587   -3.0149 C   0  0  0  0  0  0  0  0  0  0  0  0
    1.4370    0.0725   -2.4381 N   0  0  0  0  0  0  0  0  0  0  0  0
    0.8066    1.2500   -2.7904 C   0  0  0  0  0  0  0  0  0  0  0  0
    1.0326    2.2440   -2.1269 O   0  0  0  0  0  0  0  0  0  0  0  0
   -0.0819    1.2608   -4.0258 C   0  0  2  0  0  0  0  0  0  0  0  0
   -0.5694    0.2651   -4.1755 H   0  0  0  0  0  0  0  0  0  0  0  0
    0.8011    1.5749   -5.2364 C   0  0  0  0  0  0  0  0  0  0  0  0
   -1.1525    2.3365   -3.8429 C   0  0  0  0  0  0  0  0  0  0  0  0
   -2.3740    1.8715   -2.5564 S   0  0  0  0  0  0  0  0  0  0  0  0
    1.3390    0.0463    1.9701 H   0  0  0  0  0  0  0  0  0  0  0  0
    3.0021   -1.8379   -0.2460 H   0  0  0  0  0  0  0  0  0  0  0  0
    3.9373   -1.2242   -1.6118 H   0  0  0  0  0  0  0  0  0  0  0  0
    2.7436   -2.8129   -2.8840 H   0  0  0  0  0  0  0  0  0  0  0  0
    1.4718   -2.9706   -1.6700 H   0  0  0  0  0  0  0  0  0  0  0  0
    1.4604   -1.2480   -4.0924 H   0  0  0  0  0  0  0  0  0  0  0  0
    0.1190   -1.5388   -2.9291 H   0  0  0  0  0  0  0  0  0  0  0  0
    0.2159    1.5880   -6.1635 H   0  0  0  0  0  0  0  0  0  0  0  0
    1.5989    0.8330   -5.3610 H   0  0  0  0  0  0  0  0  0  0  0  0
    1.2853    2.5566   -5.1363 H   0  0  0  0  0  0  0  0  0  0  0  0
   -0.6874    3.3114   -3.5869 H   0  0  0  0  0  0  0  0  0  0  0  0
   -1.7181    2.4930   -4.7806 H   0  0  0  0  0  0  0  0  0  0  0  0
   -1.5761    1.8389   -1.4747 H   0  0  0  0  0  0  0  0  0  0  0  0
  2  1  2  0  0  0  0
  2  3  1  0  0  0  0
  3 17  1  0  0  0  0
  4  5  1  1  0  0  0
  4  2  1  0  0  0  0
  6  4  1  0  0  0  0
  6 18  1  0  0  0  0
  7 21  1  0  0  0  0
  7  6  1  0  0  0  0
  8 23  1  0  0  0  0
  8  9  1  0  0  0  0
  8  7  1  0  0  0  0
  9  4  1  0  0  0  0
 10  9  1  0  0  0  0
 10 11  2  0  0  0  0
 12 13  1  6  0  0  0
 12 15  1  0  0  0  0
 12 10  1  0  0  0  0
 14 26  1  0  0  0  0
 14 12  1  0  0  0  0
 15 27  1  0  0  0  0
 15 16  1  0  0  0  0
 16 29  1  0  0  0  0
 19  6  1  0  0  0  0
 20  7  1  0  0  0  0
 22  8  1  0  0  0  0
 24 14  1  0  0  0  0
 25 14  1  0  0  0  0
 28 15  1  0  0  0  0
M  END
$$$$
