29

O          1.23330        0.95100        0.77300
C          1.63280       -0.01410        0.17470
O          1.52850       -1.27160        0.64470
C          2.28380       -0.01100       -1.19900
H          3.17060       -0.66560       -1.16540
C          1.28730       -0.51860       -2.27460
C          1.63870        0.31700       -3.50950
C          1.97660        1.68070       -2.90800
N          2.63890        1.32550       -1.65190
C          3.59760        2.13860       -1.12160
O          3.87790        3.21380       -1.63470
C          4.36650        1.65880        0.11340
H          4.02570        0.66680        0.43800
C          4.16560        2.65640        1.25940
C          5.84530        1.53270       -0.26980
S          6.16370        0.32020       -1.61700
H          1.07350       -1.21850        1.50290
H          0.25480       -0.29940       -1.95780
H          1.36890       -1.60360       -2.42220
H          2.52800       -0.10040       -4.00900
H          0.82180        0.35950       -4.24430
H          2.65140        2.29780       -3.51520
H          1.06650        2.27650       -2.71270
H          4.78040        2.37990        2.13050
H          3.11000        2.67390        1.56750
H          4.45000        3.66690        0.93060
H          6.24370        2.51100       -0.57230
H          6.43170        1.17420        0.58930
H          5.73570        1.11340       -2.62580
