rmsd169.gzmat
 OpenBabel08211713423D

 29 29  0  0  1  0  0  0  0  0999 V2000
    0.0000    0.0000    0.0000 O   0  0  0  0  0  0  0  0  0  0  0  0
    1.2012    0.0000    0.0000 C   0  0  0  0  0  0  0  0  0  0  0  0
    1.9037    0.0000    1.1595 O   0  0  0  0  0  0  0  0  0  0  0  0
    2.1702   -0.0265   -1.1781 C   0  0  1  0  0  0  0  0  0  0  0  0
    2.9473    0.7728   -1.0264 H   0  0  0  0  0  0  0  0  0  0  0  0
    2.7785   -1.4358   -1.3216 C   0  0  0  0  0  0  0  0  0  0  0  0
    1.8794   -2.1641   -2.3373 C   0  0  0  0  0  0  0  0  0  0  0  0
    1.0953   -1.0631   -3.0880 C   0  0  0  0  0  0  0  0  0  0  0  0
    1.4553    0.2075   -2.4344 N   0  0  0  0  0  0  0  0  0  0  0  0
    0.8665    1.4403   -2.6593 C   0  0  0  0  0  0  0  0  0  0  0  0
    1.1273    2.3488   -1.8941 O   0  0  0  0  0  0  0  0  0  0  0  0
   -0.0152    1.6326   -3.8837 C   0  0  2  0  0  0  0  0  0  0  0  0
   -0.1576    0.6825   -4.4518 H   0  0  0  0  0  0  0  0  0  0  0  0
    0.6836    2.6481   -4.7929 C   0  0  0  0  0  0  0  0  0  0  0  0
   -1.3659    2.1720   -3.4117 C   0  0  0  0  0  0  0  0  0  0  0  0
   -2.3296    0.9193   -2.4821 S   0  0  0  0  0  0  0  0  0  0  0  0
    1.3372    0.0569    1.9692 H   0  0  0  0  0  0  0  0  0  0  0  0
    2.8331   -1.9661   -0.3561 H   0  0  0  0  0  0  0  0  0  0  0  0
    3.8174   -1.3656   -1.6922 H   0  0  0  0  0  0  0  0  0  0  0  0
    2.4750   -2.7766   -3.0324 H   0  0  0  0  0  0  0  0  0  0  0  0
    1.1870   -2.8556   -1.8264 H   0  0  0  0  0  0  0  0  0  0  0  0
    1.3839   -1.0178   -4.1587 H   0  0  0  0  0  0  0  0  0  0  0  0
   -0.0001   -1.2454   -3.0314 H   0  0  0  0  0  0  0  0  0  0  0  0
    0.0710    2.8899   -5.6683 H   0  0  0  0  0  0  0  0  0  0  0  0
    1.6467    2.2683   -5.1547 H   0  0  0  0  0  0  0  0  0  0  0  0
    0.8897    3.5877   -4.2582 H   0  0  0  0  0  0  0  0  0  0  0  0
   -1.2274    3.0840   -2.7948 H   0  0  0  0  0  0  0  0  0  0  0  0
   -1.9892    2.4718   -4.2764 H   0  0  0  0  0  0  0  0  0  0  0  0
   -1.6249    0.8694   -1.3364 H   0  0  0  0  0  0  0  0  0  0  0  0
  2  1  2  0  0  0  0
  2  3  1  0  0  0  0
  3 17  1  0  0  0  0
  4  5  1  1  0  0  0
  4  2  1  0  0  0  0
  6  4  1  0  0  0  0
  6 18  1  0  0  0  0
  7 21  1  0  0  0  0
  7  6  1  0  0  0  0
  8 23  1  0  0  0  0
  8  9  1  0  0  0  0
  8  7  1  0  0  0  0
  9  4  1  0  0  0  0
 10  9  1  0  0  0  0
 10 11  2  0  0  0  0
 12 13  1  6  0  0  0
 12 15  1  0  0  0  0
 12 10  1  0  0  0  0
 14 26  1  0  0  0  0
 14 12  1  0  0  0  0
 15 27  1  0  0  0  0
 15 16  1  0  0  0  0
 16 29  1  0  0  0  0
 19  6  1  0  0  0  0
 20  7  1  0  0  0  0
 22  8  1  0  0  0  0
 24 14  1  0  0  0  0
 25 14  1  0  0  0  0
 28 15  1  0  0  0  0
M  END
$$$$
