29
rmsd240.gzmat
O          0.00000        0.00000        0.00000
C          1.20070        0.00000        0.00000
O          1.90100        0.00000        1.16180
C          2.17490       -0.03160       -1.17350
H          2.92080        0.80120       -1.04490
C          2.83750       -1.42120       -1.26280
C          1.97650       -2.21570       -2.26120
C          1.20480       -1.16430       -3.09090
N          1.46040        0.13230       -2.44070
C          0.82800        1.33140       -2.71690
O          1.04990        2.27710       -1.98530
C         -0.06200        1.44140       -3.94570
H         -0.16680        0.46620       -4.47830
C          0.59070        2.45240       -4.89300
C         -1.43210        1.94360       -3.48790
S         -2.35630        0.68010       -2.53420
H          1.33200        0.05280        1.97010
H          2.90190       -1.91510       -0.27850
H          3.87670       -1.32570       -1.62540
H          2.59710       -2.85900       -2.90540
H          1.27690       -2.88700       -1.73330
H          1.57500       -1.12420       -4.13760
H          0.11760       -1.39380       -3.11640
H         -0.02970        2.63170       -5.77800
H          1.57080        2.10420       -5.23890
H          0.74950        3.42050       -4.39410
H         -1.32570        2.87310       -2.89050
H         -2.06280        2.20490       -4.35970
H         -1.64490        0.66250       -1.39060
