29
rmsd150.gzmat
O          0.00000        0.00000        0.00000
C          1.19970        0.00000        0.00000
O          1.90530        0.00000        1.16040
C          2.17110       -0.01620       -1.17580
H          2.87190        0.85840       -1.07440
C          2.90670       -1.36950       -1.24020
C          2.08660       -2.23450       -2.21570
C          1.19190       -1.25870       -3.01490
N          1.43700        0.07250       -2.43810
C          0.80660        1.25000       -2.79040
O          1.03260        2.24400       -2.12690
C         -0.08190        1.26080       -4.02580
H         -0.56940        0.26510       -4.17550
C          0.80110        1.57490       -5.23640
C         -1.15250        2.33650       -3.84290
S         -2.37400        1.87150       -2.55640
H          1.33900        0.04630        1.97010
H          3.00210       -1.83790       -0.24600
H          3.93730       -1.22420       -1.61180
H          2.74360       -2.81290       -2.88400
H          1.47180       -2.97060       -1.67000
H          1.46040       -1.24800       -4.09240
H          0.11900       -1.53880       -2.92910
H          0.21590        1.58800       -6.16350
H          1.59890        0.83300       -5.36100
H          1.28530        2.55660       -5.13630
H         -0.68740        3.31140       -3.58690
H         -1.71810        2.49300       -4.78060
H         -1.57610        1.83890       -1.47470
