29
rmsd170.gzmat
O          0.00000        0.00000        0.00000
C          1.20160        0.00000        0.00000
O          1.90670        0.00000        1.15610
C          2.16510       -0.06500       -1.18040
H          3.08520        0.53610       -0.93910
C          2.49470       -1.54160       -1.49130
C          2.16260       -1.74630       -2.98000
C          1.25930       -0.56140       -3.38050
N          1.53990        0.48730       -2.38800
C          0.95330        1.73920       -2.32000
O          1.17000        2.41280       -1.32990
C          0.11530        2.24840       -3.48120
H          0.08200        1.52070       -4.32610
C          0.75550        3.55000       -3.97340
C         -1.29530        2.51810       -2.95270
S         -2.20100        0.97940       -2.53720
H          1.34250        0.08650        1.96610
H          1.90660       -2.23180       -0.85970
H          3.55400       -1.76250       -1.27700
H          3.08460       -1.75710       -3.58710
H          1.66010       -2.71070       -3.15700
H          1.50200       -0.18890       -4.39680
H          0.18600       -0.85400       -3.36820
H          0.16550        4.01050       -4.77310
H          1.76710        3.37940       -4.36070
H          0.84520        4.28320       -3.15630
H         -1.25590        3.18920       -2.06930
H         -1.90120        3.04500       -3.71510
H         -1.62090        0.65690       -1.36550
