rmsd14.gzmat
 OpenBabel08211713423D

 29 29  0  0  1  0  0  0  0  0999 V2000
    0.0000    0.0000    0.0000 O   0  0  0  0  0  0  0  0  0  0  0  0
    1.1988    0.0000    0.0000 C   0  0  0  0  0  0  0  0  0  0  0  0
    1.9024    0.0000    1.1613 O   0  0  0  0  0  0  0  0  0  0  0  0
    2.1706   -0.0422   -1.1793 C   0  0  1  0  0  0  0  0  0  0  0  0
    3.0353   -0.7101   -0.9234 H   0  0  0  0  0  0  0  0  0  0  0  0
    1.4381   -0.5340   -2.4460 C   0  0  0  0  0  0  0  0  0  0  0  0
    1.0045    0.7425   -3.1860 C   0  0  0  0  0  0  0  0  0  0  0  0
    1.9141    1.8677   -2.6576 C   0  0  0  0  0  0  0  0  0  0  0  0
    2.5957    1.3299   -1.4569 N   0  0  0  0  0  0  0  0  0  0  0  0
    3.8259    1.8654   -1.0977 C   0  0  0  0  0  0  0  0  0  0  0  0
    4.2322    2.8356   -1.7079 O   0  0  0  0  0  0  0  0  0  0  0  0
    4.5729    1.2932    0.0972 C   0  0  2  0  0  0  0  0  0  0  0  0
    4.1412    0.3171    0.4351 H   0  0  0  0  0  0  0  0  0  0  0  0
    4.4290    2.3039    1.2398 C   0  0  0  0  0  0  0  0  0  0  0  0
    6.0412    1.1150   -0.2851 C   0  0  0  0  0  0  0  0  0  0  0  0
    6.2382   -0.0174   -1.7155 S   0  0  0  0  0  0  0  0  0  0  0  0
    1.3389    0.0416    1.9728 H   0  0  0  0  0  0  0  0  0  0  0  0
    0.5711   -1.1734   -2.2024 H   0  0  0  0  0  0  0  0  0  0  0  0
    2.1152   -1.1456   -3.0684 H   0  0  0  0  0  0  0  0  0  0  0  0
    1.0913    0.6295   -4.2778 H   0  0  0  0  0  0  0  0  0  0  0  0
   -0.0574    0.9695   -2.9768 H   0  0  0  0  0  0  0  0  0  0  0  0
    2.6586    2.1970   -3.4154 H   0  0  0  0  0  0  0  0  0  0  0  0
    1.3355    2.7690   -2.3598 H   0  0  0  0  0  0  0  0  0  0  0  0
    5.0093    2.0005    2.1180 H   0  0  0  0  0  0  0  0  0  0  0  0
    3.3801    2.3952    1.5531 H   0  0  0  0  0  0  0  0  0  0  0  0
    4.7692    3.3048    0.9382 H   0  0  0  0  0  0  0  0  0  0  0  0
    6.5082    2.0955   -0.5093 H   0  0  0  0  0  0  0  0  0  0  0  0
    6.6129    0.6797    0.5571 H   0  0  0  0  0  0  0  0  0  0  0  0
    5.9461    0.8276   -2.7156 H   0  0  0  0  0  0  0  0  0  0  0  0
  1  2  2  0  0  0  0
  2  3  1  0  0  0  0
  3 17  1  0  0  0  0
  4  5  1  1  0  0  0
  4  2  1  0  0  0  0
  6 18  1  0  0  0  0
  6  4  1  0  0  0  0
  7 21  1  0  0  0  0
  7  8  1  0  0  0  0
  7  6  1  0  0  0  0
  8 23  1  0  0  0  0
  8  9  1  0  0  0  0
  9  4  1  0  0  0  0
  9 10  1  0  0  0  0
 10 12  1  0  0  0  0
 11 10  2  0  0  0  0
 12 13  1  1  0  0  0
 12 14  1  0  0  0  0
 14 25  1  0  0  0  0
 14 24  1  0  0  0  0
 15 12  1  0  0  0  0
 15 28  1  0  0  0  0
 16 15  1  0  0  0  0
 19  6  1  0  0  0  0
 20  7  1  0  0  0  0
 22  8  1  0  0  0  0
 26 14  1  0  0  0  0
 27 15  1  0  0  0  0
 29 16  1  0  0  0  0
M  END
$$$$
