rmsd240.gzmat
 OpenBabel08211713423D

 29 29  0  0  1  0  0  0  0  0999 V2000
    0.0000    0.0000    0.0000 O   0  0  0  0  0  0  0  0  0  0  0  0
    1.2007    0.0000    0.0000 C   0  0  0  0  0  0  0  0  0  0  0  0
    1.9010    0.0000    1.1618 O   0  0  0  0  0  0  0  0  0  0  0  0
    2.1749   -0.0316   -1.1735 C   0  0  1  0  0  0  0  0  0  0  0  0
    2.9208    0.8012   -1.0449 H   0  0  0  0  0  0  0  0  0  0  0  0
    2.8375   -1.4212   -1.2628 C   0  0  0  0  0  0  0  0  0  0  0  0
    1.9765   -2.2157   -2.2612 C   0  0  0  0  0  0  0  0  0  0  0  0
    1.2048   -1.1643   -3.0909 C   0  0  0  0  0  0  0  0  0  0  0  0
    1.4604    0.1323   -2.4407 N   0  0  0  0  0  0  0  0  0  0  0  0
    0.8280    1.3314   -2.7169 C   0  0  0  0  0  0  0  0  0  0  0  0
    1.0499    2.2771   -1.9853 O   0  0  0  0  0  0  0  0  0  0  0  0
   -0.0620    1.4414   -3.9457 C   0  0  2  0  0  0  0  0  0  0  0  0
   -0.1668    0.4662   -4.4783 H   0  0  0  0  0  0  0  0  0  0  0  0
    0.5907    2.4524   -4.8930 C   0  0  0  0  0  0  0  0  0  0  0  0
   -1.4321    1.9436   -3.4879 C   0  0  0  0  0  0  0  0  0  0  0  0
   -2.3563    0.6801   -2.5342 S   0  0  0  0  0  0  0  0  0  0  0  0
    1.3320    0.0528    1.9701 H   0  0  0  0  0  0  0  0  0  0  0  0
    2.9019   -1.9151   -0.2785 H   0  0  0  0  0  0  0  0  0  0  0  0
    3.8767   -1.3257   -1.6254 H   0  0  0  0  0  0  0  0  0  0  0  0
    2.5971   -2.8590   -2.9054 H   0  0  0  0  0  0  0  0  0  0  0  0
    1.2769   -2.8870   -1.7333 H   0  0  0  0  0  0  0  0  0  0  0  0
    1.5750   -1.1242   -4.1376 H   0  0  0  0  0  0  0  0  0  0  0  0
    0.1176   -1.3938   -3.1164 H   0  0  0  0  0  0  0  0  0  0  0  0
   -0.0297    2.6317   -5.7780 H   0  0  0  0  0  0  0  0  0  0  0  0
    1.5708    2.1042   -5.2389 H   0  0  0  0  0  0  0  0  0  0  0  0
    0.7495    3.4205   -4.3941 H   0  0  0  0  0  0  0  0  0  0  0  0
   -1.3257    2.8731   -2.8905 H   0  0  0  0  0  0  0  0  0  0  0  0
   -2.0628    2.2049   -4.3597 H   0  0  0  0  0  0  0  0  0  0  0  0
   -1.6449    0.6625   -1.3906 H   0  0  0  0  0  0  0  0  0  0  0  0
  2  1  2  0  0  0  0
  2  3  1  0  0  0  0
  3 17  1  0  0  0  0
  4  5  1  1  0  0  0
  4  2  1  0  0  0  0
  6  4  1  0  0  0  0
  6 18  1  0  0  0  0
  7 21  1  0  0  0  0
  7  6  1  0  0  0  0
  8  9  1  0  0  0  0
  8  7  1  0  0  0  0
  9  4  1  0  0  0  0
 10  9  1  0  0  0  0
 10 11  2  0  0  0  0
 12 13  1  6  0  0  0
 12 15  1  0  0  0  0
 12 10  1  0  0  0  0
 14 26  1  0  0  0  0
 14 12  1  0  0  0  0
 15 27  1  0  0  0  0
 15 16  1  0  0  0  0
 16 29  1  0  0  0  0
 19  6  1  0  0  0  0
 20  7  1  0  0  0  0
 22  8  1  0  0  0  0
 23  8  1  0  0  0  0
 24 14  1  0  0  0  0
 25 14  1  0  0  0  0
 28 15  1  0  0  0  0
M  END
$$$$
