
     RDKit          3D

 29 29  0  0  0  0  0  0  0  0999 V2000
    0.1320   -0.0411    0.0011 O   0  0  0  0  0  0  0  0  0  0  0  0
    1.3261    0.1410   -0.0238 C   0  0  0  0  0  0  0  0  0  0  0  0
    2.0322    0.4960    1.0579 O   0  0  0  0  0  0  0  0  0  0  0  0
    2.2329   -0.0839   -1.2300 C   0  0  1  0  0  0  0  0  0  0  0  0
    3.0636    0.6311   -1.1540 H   0  0  0  0  0  0  0  0  0  0  0  0
    2.7090   -1.5497   -1.2997 C   0  0  0  0  0  0  0  0  0  0  0  0
    1.6031   -2.2297   -2.1156 C   0  0  0  0  0  0  0  0  0  0  0  0
    1.2429   -1.1772   -3.1693 C   0  0  0  0  0  0  0  0  0  0  0  0
    1.4910    0.0906   -2.4692 N   0  0  0  0  0  0  0  0  0  0  0  0
    0.9678    1.3231   -2.7261 C   0  0  0  0  0  0  0  0  0  0  0  0
    1.1749    2.2572   -1.9601 O   0  0  0  0  0  0  0  0  0  0  0  0
    0.0862    1.5035   -3.9613 C   0  0  2  0  0  0  0  0  0  0  0  0
    0.1624    0.6290   -4.6229 H   0  0  0  0  0  0  0  0  0  0  0  0
    0.5270    2.7585   -4.7231 C   0  0  0  0  0  0  0  0  0  0  0  0
   -1.3738    1.6390   -3.4957 C   0  0  0  0  0  0  0  0  0  0  0  0
   -2.0983    0.1446   -2.7112 S   0  0  0  0  0  0  0  0  0  0  0  0
    1.4015    0.5919    1.7925 H   0  0  0  0  0  0  0  0  0  0  0  0
    2.8644   -1.9886   -0.3040 H   0  0  0  0  0  0  0  0  0  0  0  0
    3.6704   -1.5877   -1.8359 H   0  0  0  0  0  0  0  0  0  0  0  0
    1.9158   -3.1849   -2.5611 H   0  0  0  0  0  0  0  0  0  0  0  0
    0.7277   -2.4185   -1.4755 H   0  0  0  0  0  0  0  0  0  0  0  0
    1.8906   -1.2636   -4.0609 H   0  0  0  0  0  0  0  0  0  0  0  0
    0.1937   -1.2513   -3.4832 H   0  0  0  0  0  0  0  0  0  0  0  0
   -0.1372    2.9470   -5.5808 H   0  0  0  0  0  0  0  0  0  0  0  0
    1.5549    2.6503   -5.1029 H   0  0  0  0  0  0  0  0  0  0  0  0
    0.5057    3.6313   -4.0549 H   0  0  0  0  0  0  0  0  0  0  0  0
   -1.4588    2.4902   -2.8041 H   0  0  0  0  0  0  0  0  0  0  0  0
   -2.0208    1.8440   -4.3618 H   0  0  0  0  0  0  0  0  0  0  0  0
   -1.3247    0.1457   -1.5963 H   0  0  0  0  0  0  0  0  0  0  0  0
  1  2  2  0
  2  3  1  0
  2  4  1  0
  3 17  1  0
  4  5  1  6
  4  6  1  0
  4  9  1  0
  6  7  1  0
  6 18  1  0
  6 19  1  0
  7  8  1  0
  7 20  1  0
  7 21  1  0
  8  9  1  0
  8 22  1  0
  8 23  1  0
  9 10  1  0
 10 11  2  0
 10 12  1  0
 12 13  1  6
 12 14  1  0
 12 15  1  0
 14 24  1  0
 14 25  1  0
 14 26  1  0
 15 16  1  0
 15 27  1  0
 15 28  1  0
 16 29  1  0
M  END

