rmsd101.gzmat
 OpenBabel08211713403D

 34 37  0  0  1  0  0  0  0  0999 V2000
    0.0000    0.0000    0.0000 O   0  0  0  0  0  0  0  0  0  0  0  0
    1.3783    0.0000    0.0000 C   0  0  0  0  0  0  0  0  0  0  0  0
    2.1322    0.0000    1.0986 N   0  0  0  0  0  0  0  0  0  0  0  0
    3.4625   -0.0022    0.8456 C   0  0  0  0  0  0  0  0  0  0  0  0
    4.0173   -0.0095   -0.4447 C   0  0  0  0  0  0  0  0  0  0  0  0
    3.2077   -0.0117   -1.5890 C   0  0  0  0  0  0  0  0  0  0  0  0
    1.8344   -0.0005   -1.3588 C   0  0  0  0  0  0  0  0  0  0  0  0
    0.6953    0.0039   -2.1797 N   0  0  0  0  0  0  0  0  0  0  0  0
   -0.3511    0.0012   -1.3702 C   0  0  0  0  0  0  0  0  0  0  0  0
   -1.7567    0.0063   -1.6333 C   0  0  2  0  0  0  0  0  0  0  0  0
   -2.2930    0.1103   -2.9581 C   0  0  0  0  0  0  0  0  0  0  0  0
   -1.4895    0.1575   -4.0544 N   0  0  0  0  0  0  0  0  0  0  0  0
   -1.9997    0.3734   -5.3835 C   0  0  0  0  0  0  0  0  0  0  0  0
   -1.3563    1.4720   -6.2178 C   0  0  0  0  0  0  0  0  0  0  0  0
   -1.0817    0.0219   -6.5406 C   0  0  0  0  0  0  0  0  0  0  0  0
   -3.6546    0.1470   -3.1742 N   0  0  0  0  0  0  0  0  0  0  0  0
   -4.4742    0.0644   -2.1304 C   0  0  0  0  0  0  0  0  0  0  0  0
   -4.0264   -0.0560   -0.7979 C   0  0  0  0  0  0  0  0  0  0  0  0
   -2.6649   -0.0820   -0.5635 C   0  0  0  0  0  0  0  0  0  0  0  0
    3.7744   -0.0188   -2.9579 C   0  0  0  0  0  0  0  0  0  0  0  0
    4.0996    0.0013    1.7391 H   0  0  0  0  0  0  0  0  0  0  0  0
    5.0991   -0.0137   -0.5553 H   0  0  0  0  0  0  0  0  0  0  0  0
   -0.4745    0.1505   -3.9276 H   0  0  0  0  0  0  0  0  0  0  0  0
   -3.0850    0.1898   -5.4731 H   0  0  0  0  0  0  0  0  0  0  0  0
   -0.5684    2.0875   -5.7913 H   0  0  0  0  0  0  0  0  0  0  0  0
   -1.9774    2.0702   -6.8769 H   0  0  0  0  0  0  0  0  0  0  0  0
   -1.5043   -0.4265   -7.4343 H   0  0  0  0  0  0  0  0  0  0  0  0
   -0.0960   -0.3953   -6.3515 H   0  0  0  0  0  0  0  0  0  0  0  0
   -5.5470    0.0967   -2.3691 H   0  0  0  0  0  0  0  0  0  0  0  0
   -4.7414   -0.1238    0.0131 H   0  0  0  0  0  0  0  0  0  0  0  0
   -2.2839   -0.1707    0.4603 H   0  0  0  0  0  0  0  0  0  0  0  0
    4.6643   -0.6586   -3.0405 H   0  0  0  0  0  0  0  0  0  0  0  0
    4.0705    0.9969   -3.2685 H   0  0  0  0  0  0  0  0  0  0  0  0
    3.0431   -0.3759   -3.7034 H   0  0  0  0  0  0  0  0  0  0  0  0
  1  2  1  0  0  0  0
  2  3  2  0  0  0  0
  4  3  2  0  0  0  0
  4 21  1  0  0  0  0
  5  4  1  0  0  0  0
  6  7  1  0  0  0  0
  6  5  2  0  0  0  0
  7  2  1  0  0  0  0
  8  9  2  0  0  0  0
  8  7  2  0  0  0  0
  9  1  1  0  0  0  0
 10  9  1  1  0  0  0
 10 19  1  0  0  0  0
 11 10  1  0  0  0  0
 12 23  1  0  0  0  0
 12 11  1  0  0  0  0
 13 12  1  0  0  0  0
 14 25  1  0  0  0  0
 14 13  1  0  0  0  0
 15 28  1  0  0  0  0
 15 14  1  0  0  0  0
 15 13  1  0  0  0  0
 16 11  2  0  0  0  0
 16 17  2  0  0  0  0
 17 18  1  0  0  0  0
 18 19  2  0  0  0  0
 18 30  1  0  0  0  0
 19 31  1  0  0  0  0
 20  6  1  0  0  0  0
 22  5  1  0  0  0  0
 24 13  1  0  0  0  0
 26 14  1  0  0  0  0
 27 15  1  0  0  0  0
 29 17  1  0  0  0  0
 32 20  1  0  0  0  0
 33 20  1  0  0  0  0
 34 20  1  0  0  0  0
M  RAD  1  10   2
M  END
$$$$
