rmsd185.gzmat
 OpenBabel08211713403D

 34 37  0  0  1  0  0  0  0  0999 V2000
    0.0000    0.0000    0.0000 O   0  0  0  0  0  0  0  0  0  0  0  0
    1.3779    0.0000    0.0000 C   0  0  0  0  0  0  0  0  0  0  0  0
    2.1312    0.0000    1.0994 N   0  0  0  0  0  0  0  0  0  0  0  0
    3.4613    0.0015    0.8464 C   0  0  0  0  0  0  0  0  0  0  0  0
    4.0167    0.0044   -0.4441 C   0  0  0  0  0  0  0  0  0  0  0  0
    3.2078    0.0047   -1.5887 C   0  0  0  0  0  0  0  0  0  0  0  0
    1.8340   -0.0003   -1.3584 C   0  0  0  0  0  0  0  0  0  0  0  0
    0.6954   -0.0036   -2.1802 N   0  0  0  0  0  0  0  0  0  0  0  0
   -0.3512   -0.0011   -1.3705 C   0  0  0  0  0  0  0  0  0  0  0  0
   -1.7573    0.0000   -1.6309 C   0  0  1  0  0  0  0  0  0  0  0  0
   -2.2971   -0.0204   -2.9581 C   0  0  0  0  0  0  0  0  0  0  0  0
   -1.4978    0.0107   -4.0581 N   0  0  0  0  0  0  0  0  0  0  0  0
   -2.0203   -0.0794   -5.3969 C   0  0  0  0  0  0  0  0  0  0  0  0
   -1.0795    0.2830   -6.5314 C   0  0  0  0  0  0  0  0  0  0  0  0
   -1.4635   -1.1611   -6.3110 C   0  0  0  0  0  0  0  0  0  0  0  0
   -3.6592   -0.0488   -3.1728 N   0  0  0  0  0  0  0  0  0  0  0  0
   -4.4766   -0.0365   -2.1242 C   0  0  0  0  0  0  0  0  0  0  0  0
   -4.0256    0.0030   -0.7882 C   0  0  0  0  0  0  0  0  0  0  0  0
   -2.6637    0.0184   -0.5559 C   0  0  0  0  0  0  0  0  0  0  0  0
    3.7687    0.0267   -2.9600 C   0  0  0  0  0  0  0  0  0  0  0  0
    4.0983   -0.0004    1.7402 H   0  0  0  0  0  0  0  0  0  0  0  0
    5.0987    0.0066   -0.5526 H   0  0  0  0  0  0  0  0  0  0  0  0
   -0.4831   -0.0097   -3.9356 H   0  0  0  0  0  0  0  0  0  0  0  0
   -3.0905    0.1852   -5.4660 H   0  0  0  0  0  0  0  0  0  0  0  0
   -0.0637    0.6072   -6.3183 H   0  0  0  0  0  0  0  0  0  0  0  0
   -1.4667    0.8262   -7.3883 H   0  0  0  0  0  0  0  0  0  0  0  0
   -2.1307   -1.6620   -7.0051 H   0  0  0  0  0  0  0  0  0  0  0  0
   -0.7249   -1.8642   -5.9355 H   0  0  0  0  0  0  0  0  0  0  0  0
   -5.5497   -0.0608   -2.3624 H   0  0  0  0  0  0  0  0  0  0  0  0
   -4.7390    0.0184    0.0268 H   0  0  0  0  0  0  0  0  0  0  0  0
   -2.2806    0.0442    0.4707 H   0  0  0  0  0  0  0  0  0  0  0  0
    4.7318   -0.4958   -3.0347 H   0  0  0  0  0  0  0  0  0  0  0  0
    3.9283    1.0640   -3.3011 H   0  0  0  0  0  0  0  0  0  0  0  0
    3.0839   -0.4382   -3.6902 H   0  0  0  0  0  0  0  0  0  0  0  0
  1  2  1  0  0  0  0
  2  3  2  0  0  0  0
  4  3  2  0  0  0  0
  4 21  1  0  0  0  0
  5  4  1  0  0  0  0
  6  7  1  0  0  0  0
  6  5  2  0  0  0  0
  7  2  1  0  0  0  0
  8  9  2  0  0  0  0
  8  7  2  0  0  0  0
  9  1  1  0  0  0  0
 10  9  1  1  0  0  0
 10 19  1  0  0  0  0
 11 10  1  0  0  0  0
 12 23  1  0  0  0  0
 12 11  1  0  0  0  0
 13 12  1  0  0  0  0
 14 25  1  0  0  0  0
 14 15  1  0  0  0  0
 14 13  1  0  0  0  0
 15 28  1  0  0  0  0
 15 13  1  0  0  0  0
 16 11  2  0  0  0  0
 16 17  2  0  0  0  0
 17 18  1  0  0  0  0
 18 19  2  0  0  0  0
 18 30  1  0  0  0  0
 19 31  1  0  0  0  0
 20  6  1  0  0  0  0
 22  5  1  0  0  0  0
 24 13  1  0  0  0  0
 26 14  1  0  0  0  0
 27 15  1  0  0  0  0
 29 17  1  0  0  0  0
 32 20  1  0  0  0  0
 33 20  1  0  0  0  0
 34 20  1  0  0  0  0
M  RAD  1  10   2
M  END
$$$$
