34
rmsd16.gzmat
O          0.00000        0.00000        0.00000
C          1.37860        0.00000        0.00000
N          2.13400        0.00000        1.09820
C          3.46350       -0.00370        0.84360
C          4.01870       -0.00580       -0.44740
C          3.20880       -0.00630       -1.59070
C          1.83520       -0.00390       -1.35840
N          0.69720       -0.00790       -2.18000
C         -0.35010       -0.00610       -1.37110
C         -1.75470       -0.00950       -1.63900
C         -2.28510        0.01200       -2.97050
N         -1.47500        0.06750       -4.06120
C         -1.97850        0.03440       -5.40950
C         -1.04130        0.50990       -6.50610
C         -1.35230       -0.96250       -6.37360
N         -3.64560       -0.00160       -3.19600
C         -4.47030       -0.02390       -2.15300
C         -4.02870       -0.04060       -0.81330
C         -2.66860       -0.03560       -0.57050
C          3.76520        0.00160       -2.96360
H          4.10240       -0.00650        1.73610
H          5.10060       -0.00770       -0.55690
H         -0.46100        0.03970       -3.92900
H         -3.05870        0.25140       -5.48100
H         -0.04860        0.87490       -6.25670
H         -1.44440        1.07960       -7.33750
H         -1.98050       -1.45710       -7.10730
H         -0.58340       -1.64640       -6.02440
H         -5.54210       -0.03040       -2.39880
H         -4.74790       -0.05750       -0.00360
H         -2.29250       -0.05320        0.45850
H          4.78620       -0.39890       -3.01520
H          3.79190        1.02720       -3.37020
H          3.14140       -0.58850       -3.65720
