rmsd142.gzmat
 OpenBabel08211713403D

 34 37  0  0  1  0  0  0  0  0999 V2000
    0.0000    0.0000    0.0000 O   0  0  0  0  0  0  0  0  0  0  0  0
    1.3787    0.0000    0.0000 C   0  0  0  0  0  0  0  0  0  0  0  0
    2.1335    0.0000    1.0978 N   0  0  0  0  0  0  0  0  0  0  0  0
    3.4640    0.0002    0.8436 C   0  0  0  0  0  0  0  0  0  0  0  0
    4.0187    0.0006   -0.4468 C   0  0  0  0  0  0  0  0  0  0  0  0
    3.2081   -0.0008   -1.5907 C   0  0  0  0  0  0  0  0  0  0  0  0
    1.8353   -0.0016   -1.3590 C   0  0  0  0  0  0  0  0  0  0  0  0
    0.6968   -0.0037   -2.1801 N   0  0  0  0  0  0  0  0  0  0  0  0
   -0.3502   -0.0027   -1.3709 C   0  0  0  0  0  0  0  0  0  0  0  0
   -1.7545   -0.0052   -1.6401 C   0  0  1  0  0  0  0  0  0  0  0  0
   -2.2823    0.0022   -2.9731 C   0  0  0  0  0  0  0  0  0  0  0  0
   -1.4706    0.0316   -4.0630 N   0  0  0  0  0  0  0  0  0  0  0  0
   -1.9709   -0.0021   -5.4121 C   0  0  0  0  0  0  0  0  0  0  0  0
   -1.0696    0.5551   -6.5003 C   0  0  0  0  0  0  0  0  0  0  0  0
   -1.2856   -0.9364   -6.3976 C   0  0  0  0  0  0  0  0  0  0  0  0
   -3.6428   -0.0071   -3.2003 N   0  0  0  0  0  0  0  0  0  0  0  0
   -4.4690   -0.0196   -2.1587 C   0  0  0  0  0  0  0  0  0  0  0  0
   -4.0295   -0.0261   -0.8180 C   0  0  0  0  0  0  0  0  0  0  0  0
   -2.6697   -0.0185   -0.5731 C   0  0  0  0  0  0  0  0  0  0  0  0
    3.7737    0.0055   -2.9603 C   0  0  0  0  0  0  0  0  0  0  0  0
    4.1018    0.0001    1.7367 H   0  0  0  0  0  0  0  0  0  0  0  0
    5.1004    0.0016   -0.5586 H   0  0  0  0  0  0  0  0  0  0  0  0
   -0.4567    0.0117   -3.9290 H   0  0  0  0  0  0  0  0  0  0  0  0
   -3.0626    0.1484   -5.4810 H   0  0  0  0  0  0  0  0  0  0  0  0
   -0.1015    0.9782   -6.2472 H   0  0  0  0  0  0  0  0  0  0  0  0
   -1.5126    1.1162   -7.3175 H   0  0  0  0  0  0  0  0  0  0  0  0
   -1.8845   -1.4554   -7.1394 H   0  0  0  0  0  0  0  0  0  0  0  0
   -0.4718   -1.5759   -6.0672 H   0  0  0  0  0  0  0  0  0  0  0  0
   -5.5402   -0.0262   -2.4065 H   0  0  0  0  0  0  0  0  0  0  0  0
   -4.7496   -0.0374   -0.0089 H   0  0  0  0  0  0  0  0  0  0  0  0
   -2.2955   -0.0237    0.4571 H   0  0  0  0  0  0  0  0  0  0  0  0
    4.5568   -0.7564   -3.0882 H   0  0  0  0  0  0  0  0  0  0  0  0
    4.2229    0.9826   -3.2020 H   0  0  0  0  0  0  0  0  0  0  0  0
    3.0032   -0.1875   -3.7262 H   0  0  0  0  0  0  0  0  0  0  0  0
  1  2  1  0  0  0  0
  2  3  2  0  0  0  0
  4  3  2  0  0  0  0
  4 21  1  0  0  0  0
  5  4  1  0  0  0  0
  6  7  1  0  0  0  0
  6  5  2  0  0  0  0
  7  2  1  0  0  0  0
  8  9  2  0  0  0  0
  8  7  2  0  0  0  0
  9  1  1  0  0  0  0
 10  9  1  6  0  0  0
 10 19  1  0  0  0  0
 11 10  1  0  0  0  0
 12 23  1  0  0  0  0
 12 11  1  0  0  0  0
 13 12  1  0  0  0  0
 14 15  1  0  0  0  0
 14 25  1  0  0  0  0
 14 13  1  0  0  0  0
 15 28  1  0  0  0  0
 15 13  1  0  0  0  0
 16 11  2  0  0  0  0
 16 17  2  0  0  0  0
 17 18  1  0  0  0  0
 18 19  2  0  0  0  0
 18 30  1  0  0  0  0
 19 31  1  0  0  0  0
 20  6  1  0  0  0  0
 22  5  1  0  0  0  0
 24 13  1  0  0  0  0
 26 14  1  0  0  0  0
 27 15  1  0  0  0  0
 29 17  1  0  0  0  0
 32 20  1  0  0  0  0
 33 20  1  0  0  0  0
 34 20  1  0  0  0  0
M  RAD  1  10   2
M  END
$$$$
