rmsd136.gzmat
 OpenBabel08211713403D

 34 37  0  0  1  0  0  0  0  0999 V2000
    0.0000    0.0000    0.0000 O   0  0  0  0  0  0  0  0  0  0  0  0
    1.3782    0.0000    0.0000 C   0  0  0  0  0  0  0  0  0  0  0  0
    2.1317    0.0000    1.0992 N   0  0  0  0  0  0  0  0  0  0  0  0
    3.4615   -0.0006    0.8468 C   0  0  0  0  0  0  0  0  0  0  0  0
    4.0176   -0.0023   -0.4437 C   0  0  0  0  0  0  0  0  0  0  0  0
    3.2094   -0.0044   -1.5884 C   0  0  0  0  0  0  0  0  0  0  0  0
    1.8351   -0.0018   -1.3585 C   0  0  0  0  0  0  0  0  0  0  0  0
    0.6968   -0.0028   -2.1803 N   0  0  0  0  0  0  0  0  0  0  0  0
   -0.3502   -0.0025   -1.3711 C   0  0  0  0  0  0  0  0  0  0  0  0
   -1.7557   -0.0088   -1.6346 C   0  0  1  0  0  0  0  0  0  0  0  0
   -2.2908    0.0297   -2.9634 C   0  0  0  0  0  0  0  0  0  0  0  0
   -1.4873    0.1115   -4.0580 N   0  0  0  0  0  0  0  0  0  0  0  0
   -2.0041    0.0694   -5.4016 C   0  0  0  0  0  0  0  0  0  0  0  0
   -1.0509    0.4478   -6.5208 C   0  0  0  0  0  0  0  0  0  0  0  0
   -1.4600   -0.9957   -6.3435 C   0  0  0  0  0  0  0  0  0  0  0  0
   -3.6521    0.0086   -3.1835 N   0  0  0  0  0  0  0  0  0  0  0  0
   -4.4724   -0.0413   -2.1381 C   0  0  0  0  0  0  0  0  0  0  0  0
   -4.0257   -0.0789   -0.8006 C   0  0  0  0  0  0  0  0  0  0  0  0
   -2.6646   -0.0628   -0.5631 C   0  0  0  0  0  0  0  0  0  0  0  0
    3.7696   -0.0001   -2.9598 C   0  0  0  0  0  0  0  0  0  0  0  0
    4.0989   -0.0007    1.7403 H   0  0  0  0  0  0  0  0  0  0  0  0
    5.0996   -0.0014   -0.5507 H   0  0  0  0  0  0  0  0  0  0  0  0
   -0.4727    0.0774   -3.9334 H   0  0  0  0  0  0  0  0  0  0  0  0
   -3.0688    0.3561   -5.4686 H   0  0  0  0  0  0  0  0  0  0  0  0
   -0.0310    0.7502   -6.2946 H   0  0  0  0  0  0  0  0  0  0  0  0
   -1.4257    1.0206   -7.3639 H   0  0  0  0  0  0  0  0  0  0  0  0
   -2.1300   -1.4662   -7.0558 H   0  0  0  0  0  0  0  0  0  0  0  0
   -0.7349   -1.7209   -5.9839 H   0  0  0  0  0  0  0  0  0  0  0  0
   -5.5448   -0.0547   -2.3800 H   0  0  0  0  0  0  0  0  0  0  0  0
   -4.7412   -0.1214    0.0118 H   0  0  0  0  0  0  0  0  0  0  0  0
   -2.2848   -0.0955    0.4644 H   0  0  0  0  0  0  0  0  0  0  0  0
    4.8029   -0.3693   -3.0032 H   0  0  0  0  0  0  0  0  0  0  0  0
    3.7660    1.0194   -3.3824 H   0  0  0  0  0  0  0  0  0  0  0  0
    3.1657   -0.6194   -3.6455 H   0  0  0  0  0  0  0  0  0  0  0  0
  1  2  1  0  0  0  0
  2  3  2  0  0  0  0
  4  3  2  0  0  0  0
  4 21  1  0  0  0  0
  5  4  1  0  0  0  0
  6  7  1  0  0  0  0
  6  5  2  0  0  0  0
  7  2  1  0  0  0  0
  8  9  2  0  0  0  0
  8  7  2  0  0  0  0
  9  1  1  0  0  0  0
 10  9  1  6  0  0  0
 10 19  1  0  0  0  0
 11 10  1  0  0  0  0
 12 23  1  0  0  0  0
 12 11  1  0  0  0  0
 13 12  1  0  0  0  0
 14 15  1  0  0  0  0
 14 25  1  0  0  0  0
 14 13  1  0  0  0  0
 15 28  1  0  0  0  0
 15 13  1  0  0  0  0
 16 11  2  0  0  0  0
 16 17  2  0  0  0  0
 17 18  1  0  0  0  0
 18 19  2  0  0  0  0
 18 30  1  0  0  0  0
 19 31  1  0  0  0  0
 20  6  1  0  0  0  0
 22  5  1  0  0  0  0
 24 13  1  0  0  0  0
 26 14  1  0  0  0  0
 27 15  1  0  0  0  0
 29 17  1  0  0  0  0
 32 20  1  0  0  0  0
 33 20  1  0  0  0  0
 34 20  1  0  0  0  0
M  RAD  1  10   2
M  END
$$$$
