34
rmsd133.gzmat
O          0.00000        0.00000        0.00000
C          1.37820        0.00000        0.00000
N          2.13230        0.00000        1.09850
C          3.46270        0.00040        0.84510
C          4.01750        0.00130       -0.44500
C          3.20780        0.00170       -1.58950
C          1.83460        0.00020       -1.35950
N          0.69600       -0.00060       -2.18130
C         -0.35070        0.00020       -1.37200
C         -1.75640       -0.00250       -1.63490
C         -2.29340        0.00810       -2.96330
N         -1.49160        0.06090       -4.06120
C         -2.00990       -0.03490       -5.40110
C         -1.08660        0.36800       -6.53700
C         -1.41430       -1.09060       -6.32160
N         -3.65540       -0.01150       -3.18020
C         -4.47440       -0.03100       -2.13280
C         -4.02530       -0.03910       -0.79530
C         -2.66380       -0.02540       -0.56070
C          3.77530        0.01630       -2.95780
H          4.10090       -0.00010        1.73820
H          5.09940        0.00210       -0.55580
H         -0.47700        0.03800       -3.93670
H         -3.08840        0.19290       -5.46890
H         -0.08440        0.73250       -6.32890
H         -1.50000        0.89870       -7.38960
H         -2.06160       -1.61530       -7.01610
H         -0.64800       -1.76570       -5.95070
H         -5.54730       -0.04270       -2.37260
H         -4.73930       -0.05810        0.01930
H         -2.28190       -0.03550        0.46660
H          4.63760       -0.65760       -3.06070
H          4.11550        1.02840       -3.23310
H          3.03240       -0.28410       -3.71600
