rmsd18.gzmat
 OpenBabel08211713403D

 34 37  0  0  1  0  0  0  0  0999 V2000
    0.0000    0.0000    0.0000 O   0  0  0  0  0  0  0  0  0  0  0  0
    1.3788    0.0000    0.0000 C   0  0  0  0  0  0  0  0  0  0  0  0
    2.1339    0.0000    1.0979 N   0  0  0  0  0  0  0  0  0  0  0  0
    3.4640    0.0019    0.8432 C   0  0  0  0  0  0  0  0  0  0  0  0
    4.0185    0.0032   -0.4475 C   0  0  0  0  0  0  0  0  0  0  0  0
    3.2081    0.0031   -1.5912 C   0  0  0  0  0  0  0  0  0  0  0  0
    1.8351    0.0015   -1.3590 C   0  0  0  0  0  0  0  0  0  0  0  0
    0.6969    0.0016   -2.1802 N   0  0  0  0  0  0  0  0  0  0  0  0
   -0.3502    0.0022   -1.3711 C   0  0  0  0  0  0  0  0  0  0  0  0
   -1.7543    0.0163   -1.6407 C   0  0  2  0  0  0  0  0  0  0  0  0
   -2.2809    0.0549   -2.9735 C   0  0  0  0  0  0  0  0  0  0  0  0
   -1.4693    0.0245   -4.0641 N   0  0  0  0  0  0  0  0  0  0  0  0
   -1.9645    0.1468   -5.4103 C   0  0  0  0  0  0  0  0  0  0  0  0
   -1.2748    1.1457   -6.3279 C   0  0  0  0  0  0  0  0  0  0  0  0
   -1.0532   -0.3354   -6.5254 C   0  0  0  0  0  0  0  0  0  0  0  0
   -3.6404    0.1038   -3.2008 N   0  0  0  0  0  0  0  0  0  0  0  0
   -4.4671    0.0982   -2.1592 C   0  0  0  0  0  0  0  0  0  0  0  0
   -4.0294    0.0466   -0.8188 C   0  0  0  0  0  0  0  0  0  0  0  0
   -2.6702    0.0067   -0.5738 C   0  0  0  0  0  0  0  0  0  0  0  0
    3.7692    0.0193   -2.9622 C   0  0  0  0  0  0  0  0  0  0  0  0
    4.1027    0.0029    1.7358 H   0  0  0  0  0  0  0  0  0  0  0  0
    5.1002    0.0053   -0.5585 H   0  0  0  0  0  0  0  0  0  0  0  0
   -0.4551    0.0214   -3.9281 H   0  0  0  0  0  0  0  0  0  0  0  0
   -3.0558    0.0012   -5.4928 H   0  0  0  0  0  0  0  0  0  0  0  0
   -0.4660    1.7647   -5.9485 H   0  0  0  0  0  0  0  0  0  0  0  0
   -1.8692    1.7099   -7.0395 H   0  0  0  0  0  0  0  0  0  0  0  0
   -1.4855   -0.8433   -7.3822 H   0  0  0  0  0  0  0  0  0  0  0  0
   -0.0844   -0.7693   -6.2903 H   0  0  0  0  0  0  0  0  0  0  0  0
   -5.5377    0.1382   -2.4065 H   0  0  0  0  0  0  0  0  0  0  0  0
   -4.7508    0.0420   -0.0105 H   0  0  0  0  0  0  0  0  0  0  0  0
   -2.2969   -0.0303    0.4559 H   0  0  0  0  0  0  0  0  0  0  0  0
    4.6847   -0.5816   -3.0519 H   0  0  0  0  0  0  0  0  0  0  0  0
    4.0191    1.0478   -3.2724 H   0  0  0  0  0  0  0  0  0  0  0  0
    3.0490   -0.3655   -3.7045 H   0  0  0  0  0  0  0  0  0  0  0  0
  1  2  1  0  0  0  0
  2  3  2  0  0  0  0
  4  3  2  0  0  0  0
  4 21  1  0  0  0  0
  5  4  1  0  0  0  0
  6  7  1  0  0  0  0
  6  5  2  0  0  0  0
  7  2  1  0  0  0  0
  8  9  2  0  0  0  0
  8  7  2  0  0  0  0
  9  1  1  0  0  0  0
 10  9  1  1  0  0  0
 10 19  1  0  0  0  0
 11 10  1  0  0  0  0
 12 23  1  0  0  0  0
 12 11  1  0  0  0  0
 13 12  1  0  0  0  0
 14 25  1  0  0  0  0
 14 13  1  0  0  0  0
 15 14  1  0  0  0  0
 15 28  1  0  0  0  0
 15 13  1  0  0  0  0
 16 11  2  0  0  0  0
 16 17  2  0  0  0  0
 17 18  1  0  0  0  0
 18 19  2  0  0  0  0
 18 30  1  0  0  0  0
 19 31  1  0  0  0  0
 20  6  1  0  0  0  0
 22  5  1  0  0  0  0
 24 13  1  0  0  0  0
 26 14  1  0  0  0  0
 27 15  1  0  0  0  0
 29 17  1  0  0  0  0
 32 20  1  0  0  0  0
 33 20  1  0  0  0  0
 34 20  1  0  0  0  0
M  RAD  1  10   2
M  END
$$$$
