34
rmsd142.gzmat
O          0.00000        0.00000        0.00000
C          1.37870        0.00000        0.00000
N          2.13350        0.00000        1.09780
C          3.46400        0.00020        0.84360
C          4.01870        0.00060       -0.44680
C          3.20810       -0.00080       -1.59070
C          1.83530       -0.00160       -1.35900
N          0.69680       -0.00370       -2.18010
C         -0.35020       -0.00270       -1.37090
C         -1.75450       -0.00520       -1.64010
C         -2.28230        0.00220       -2.97310
N         -1.47060        0.03160       -4.06300
C         -1.97090       -0.00210       -5.41210
C         -1.06960        0.55510       -6.50030
C         -1.28560       -0.93640       -6.39760
N         -3.64280       -0.00710       -3.20030
C         -4.46900       -0.01960       -2.15870
C         -4.02950       -0.02610       -0.81800
C         -2.66970       -0.01850       -0.57310
C          3.77370        0.00550       -2.96030
H          4.10180        0.00010        1.73670
H          5.10040        0.00160       -0.55860
H         -0.45670        0.01170       -3.92900
H         -3.06260        0.14840       -5.48100
H         -0.10150        0.97820       -6.24720
H         -1.51260        1.11620       -7.31750
H         -1.88450       -1.45540       -7.13940
H         -0.47180       -1.57590       -6.06720
H         -5.54020       -0.02620       -2.40650
H         -4.74960       -0.03740       -0.00890
H         -2.29550       -0.02370        0.45710
H          4.55680       -0.75640       -3.08820
H          4.22290        0.98260       -3.20200
H          3.00320       -0.18750       -3.72620
