rmsd188.gzmat
 OpenBabel08211713403D

 34 37  0  0  1  0  0  0  0  0999 V2000
    0.0000    0.0000    0.0000 O   0  0  0  0  0  0  0  0  0  0  0  0
    1.3783    0.0000    0.0000 C   0  0  0  0  0  0  0  0  0  0  0  0
    2.1308    0.0000    1.0998 N   0  0  0  0  0  0  0  0  0  0  0  0
    3.4608   -0.0002    0.8485 C   0  0  0  0  0  0  0  0  0  0  0  0
    4.0172   -0.0039   -0.4416 C   0  0  0  0  0  0  0  0  0  0  0  0
    3.2097   -0.0027   -1.5867 C   0  0  0  0  0  0  0  0  0  0  0  0
    1.8352    0.0019   -1.3581 C   0  0  0  0  0  0  0  0  0  0  0  0
    0.6967    0.0065   -2.1796 N   0  0  0  0  0  0  0  0  0  0  0  0
   -0.3504    0.0033   -1.3703 C   0  0  0  0  0  0  0  0  0  0  0  0
   -1.7559    0.0023   -1.6341 C   0  0  1  0  0  0  0  0  0  0  0  0
   -2.2907    0.0937   -2.9607 C   0  0  0  0  0  0  0  0  0  0  0  0
   -1.4846    0.2104   -4.0493 N   0  0  0  0  0  0  0  0  0  0  0  0
   -1.9926    0.2730   -5.3949 C   0  0  0  0  0  0  0  0  0  0  0  0
   -1.0650    0.8430   -6.4541 C   0  0  0  0  0  0  0  0  0  0  0  0
   -1.3571   -0.6388   -6.4339 C   0  0  0  0  0  0  0  0  0  0  0  0
   -3.6521    0.0859   -3.1814 N   0  0  0  0  0  0  0  0  0  0  0  0
   -4.4725   -0.0080   -2.1390 C   0  0  0  0  0  0  0  0  0  0  0  0
   -4.0261   -0.1016   -0.8042 C   0  0  0  0  0  0  0  0  0  0  0  0
   -2.6652   -0.0930   -0.5658 C   0  0  0  0  0  0  0  0  0  0  0  0
    3.7744    0.0056   -2.9560 C   0  0  0  0  0  0  0  0  0  0  0  0
    4.0974    0.0034    1.7424 H   0  0  0  0  0  0  0  0  0  0  0  0
    5.0994   -0.0069   -0.5491 H   0  0  0  0  0  0  0  0  0  0  0  0
   -0.4702    0.1686   -3.9232 H   0  0  0  0  0  0  0  0  0  0  0  0
   -3.0760    0.4793   -5.4466 H   0  0  0  0  0  0  0  0  0  0  0  0
   -0.0754    1.2002   -6.1800 H   0  0  0  0  0  0  0  0  0  0  0  0
   -1.4760    1.4699   -7.2392 H   0  0  0  0  0  0  0  0  0  0  0  0
   -1.9798   -1.0836   -7.2032 H   0  0  0  0  0  0  0  0  0  0  0  0
   -0.5789   -1.3374   -6.1394 H   0  0  0  0  0  0  0  0  0  0  0  0
   -5.5448   -0.0100   -2.3807 H   0  0  0  0  0  0  0  0  0  0  0  0
   -4.7410   -0.1795    0.0058 H   0  0  0  0  0  0  0  0  0  0  0  0
   -2.2864   -0.1624    0.4599 H   0  0  0  0  0  0  0  0  0  0  0  0
    4.8286   -0.2996   -2.9891 H   0  0  0  0  0  0  0  0  0  0  0  0
    3.7080    1.0138   -3.3999 H   0  0  0  0  0  0  0  0  0  0  0  0
    3.2140   -0.6659   -3.6290 H   0  0  0  0  0  0  0  0  0  0  0  0
  1  2  1  0  0  0  0
  2  3  2  0  0  0  0
  4  3  2  0  0  0  0
  4 21  1  0  0  0  0
  5  4  1  0  0  0  0
  6  7  1  0  0  0  0
  6  5  2  0  0  0  0
  7  2  1  0  0  0  0
  8  9  2  0  0  0  0
  8  7  2  0  0  0  0
  9  1  1  0  0  0  0
 10  9  1  6  0  0  0
 10 19  1  0  0  0  0
 11 10  1  0  0  0  0
 12 23  1  0  0  0  0
 12 11  1  0  0  0  0
 13 12  1  0  0  0  0
 14 15  1  0  0  0  0
 14 25  1  0  0  0  0
 14 13  1  0  0  0  0
 15 28  1  0  0  0  0
 15 13  1  0  0  0  0
 16 11  2  0  0  0  0
 16 17  2  0  0  0  0
 17 18  1  0  0  0  0
 18 19  2  0  0  0  0
 18 30  1  0  0  0  0
 19 31  1  0  0  0  0
 20  6  1  0  0  0  0
 22  5  1  0  0  0  0
 24 13  1  0  0  0  0
 26 14  1  0  0  0  0
 27 15  1  0  0  0  0
 29 17  1  0  0  0  0
 32 20  1  0  0  0  0
 33 20  1  0  0  0  0
 34 20  1  0  0  0  0
M  RAD  1  10   2
M  END
$$$$
