34

O          0.04890       -0.15820        0.00340
C          1.41750       -0.09450        0.01130
N          2.16250       -0.17830        1.08490
C          3.47780       -0.08790        0.82890
C          4.02190        0.08000       -0.45620
C          3.20270        0.16710       -1.59390
C          1.83050        0.07260       -1.32330
N          0.70770        0.10860       -2.13270
C         -0.31010       -0.02940       -1.31450
C         -1.71740       -0.05610       -1.64040
C         -2.17640        0.06380       -2.99890
N         -1.30200        0.19860       -4.02450
C         -1.71380        0.34820       -5.38360
C         -0.76410       -0.12470       -6.44760
C         -2.05100       -0.87240       -6.19840
N         -3.48830        0.05020       -3.29720
C         -4.37220       -0.08780       -2.31720
C         -4.03470       -0.22000       -0.96360
C         -2.68420       -0.20000       -0.63400
C          3.72370        0.34550       -2.98860
H          4.14510       -0.15210        1.69430
H          5.10690        0.14340       -0.56640
H         -0.31500        0.26590       -3.77200
H         -2.30720        1.24690       -5.58810
H          0.16680       -0.59440       -6.11610
H         -0.66730        0.47690       -7.35500
H         -2.86030       -0.78980       -6.92830
H         -1.98870       -1.83640       -5.68800
H         -5.42700       -0.09280       -2.61940
H         -4.80710       -0.33070       -0.20160
H         -2.35450       -0.29400        0.40200
H          4.82090        0.40280       -3.00620
H          3.31680        1.26400       -3.44180
H          3.40580       -0.49050       -3.63270
