34
rmsd188.gzmat
O          0.00000        0.00000        0.00000
C          1.37830        0.00000        0.00000
N          2.13080        0.00000        1.09980
C          3.46080       -0.00020        0.84850
C          4.01720       -0.00390       -0.44160
C          3.20970       -0.00270       -1.58670
C          1.83520        0.00190       -1.35810
N          0.69670        0.00650       -2.17960
C         -0.35040        0.00330       -1.37030
C         -1.75590        0.00230       -1.63410
C         -2.29070        0.09370       -2.96070
N         -1.48460        0.21040       -4.04930
C         -1.99260        0.27300       -5.39490
C         -1.06500        0.84300       -6.45410
C         -1.35710       -0.63880       -6.43390
N         -3.65210        0.08590       -3.18140
C         -4.47250       -0.00800       -2.13900
C         -4.02610       -0.10160       -0.80420
C         -2.66520       -0.09300       -0.56580
C          3.77440        0.00560       -2.95600
H          4.09740        0.00340        1.74240
H          5.09940       -0.00690       -0.54910
H         -0.47020        0.16860       -3.92320
H         -3.07600        0.47930       -5.44660
H         -0.07540        1.20020       -6.18000
H         -1.47600        1.46990       -7.23920
H         -1.97980       -1.08360       -7.20320
H         -0.57890       -1.33740       -6.13940
H         -5.54480       -0.01000       -2.38070
H         -4.74100       -0.17950        0.00580
H         -2.28640       -0.16240        0.45990
H          4.82860       -0.29960       -2.98910
H          3.70800        1.01380       -3.39990
H          3.21400       -0.66590       -3.62900
