29
rmsd38.gzmat
C          0.00000        0.00000        0.00000
C          1.53980        0.00000        0.00000
H          1.92190        0.00000        1.06080
C          2.04980       -1.26110       -0.73670
H          3.15780       -1.21380       -0.87180
C          1.34800       -1.48440       -2.09550
H          1.50790       -2.53410       -2.43530
C         -0.14510       -1.12630       -2.11280
H         -0.42920       -0.74080       -3.13090
C         -1.02730       -2.32620       -1.72920
O         -2.38760       -1.97500       -1.84860
O         -0.49540       -0.01470       -1.32130
O          1.92430       -0.60070       -3.04500
O          1.89210       -2.40520        0.06260
N          2.05360        1.17090       -0.70660
C          2.39020        2.31280       -0.00140
O          2.36620        2.31550        1.21260
C          2.80760        3.49200       -0.83220
H         -0.41620       -0.83360        0.58660
H         -0.40870        0.95620        0.38710
H         -0.91400       -3.17300       -2.43140
H         -0.84860       -2.67610       -0.69790
H         -2.52560       -1.06420       -1.50100
H          2.82470       -0.89270       -3.29240
H          0.97460       -2.49330        0.39320
H          1.92860        1.15740       -1.71240
H          3.36720        3.21170       -1.73250
H          3.44710        4.16530       -0.23810
H          1.92960        4.07630       -1.14480
