
     RDKit          3D

 29 29  0  0  0  0  0  0  0  0999 V2000
   -0.0964    0.0385   -0.0376 C   0  0  0  0  0  0  0  0  0  0  0  0
    1.4324    0.0593   -0.0175 C   0  0  1  0  0  0  0  0  0  0  0  0
    1.7897    0.1146    1.0202 H   0  0  0  0  0  0  0  0  0  0  0  0
    1.9631   -1.2333   -0.6591 C   0  0  2  0  0  0  0  0  0  0  0  0
    3.0632   -1.1368   -0.7718 H   0  0  0  0  0  0  0  0  0  0  0  0
    1.3439   -1.4407   -2.0573 C   0  0  1  0  0  0  0  0  0  0  0  0
    1.5492   -2.4752   -2.3929 H   0  0  0  0  0  0  0  0  0  0  0  0
   -0.1804   -1.2637   -2.0475 C   0  0  1  0  0  0  0  0  0  0  0  0
   -0.4706   -1.0958   -3.0992 H   0  0  0  0  0  0  0  0  0  0  0  0
   -0.9325   -2.5045   -1.5352 C   0  0  0  0  0  0  0  0  0  0  0  0
   -0.5713   -3.6777   -2.2382 O   0  0  0  0  0  0  0  0  0  0  0  0
   -0.5884   -0.0910   -1.3650 O   0  0  0  0  0  0  0  0  0  0  0  0
    1.8650   -0.5026   -2.9915 O   0  0  0  0  0  0  0  0  0  0  0  0
    1.6348   -2.2961    0.2126 O   0  0  0  0  0  0  0  0  0  0  0  0
    1.9529    1.2231   -0.7038 N   0  0  0  0  0  0  0  0  0  0  0  0
    2.6149    2.2251   -0.0529 C   0  0  0  0  0  0  0  0  0  0  0  0
    2.8638    2.1933    1.1408 O   0  0  0  0  0  0  0  0  0  0  0  0
    3.0109    3.4028   -0.9282 C   0  0  0  0  0  0  0  0  0  0  0  0
   -0.4609   -0.7747    0.6130 H   0  0  0  0  0  0  0  0  0  0  0  0
   -0.4902    0.9907    0.3433 H   0  0  0  0  0  0  0  0  0  0  0  0
   -0.6847   -2.6929   -0.4831 H   0  0  0  0  0  0  0  0  0  0  0  0
   -2.0162   -2.2917   -1.5951 H   0  0  0  0  0  0  0  0  0  0  0  0
   -0.8696   -3.5896   -3.1534 H   0  0  0  0  0  0  0  0  0  0  0  0
    2.8279   -0.5888   -3.0023 H   0  0  0  0  0  0  0  0  0  0  0  0
    1.8260   -3.1355   -0.2270 H   0  0  0  0  0  0  0  0  0  0  0  0
    1.7440    1.2947   -1.6936 H   0  0  0  0  0  0  0  0  0  0  0  0
    2.3868    4.2691   -0.6579 H   0  0  0  0  0  0  0  0  0  0  0  0
    2.8987    3.2072   -2.0047 H   0  0  0  0  0  0  0  0  0  0  0  0
    4.0536    3.6714   -0.7070 H   0  0  0  0  0  0  0  0  0  0  0  0
  1  2  1  0
  1 12  1  0
  1 19  1  0
  1 20  1  0
  2  3  1  1
  2  4  1  0
  2 15  1  0
  4  5  1  6
  4  6  1  0
  4 14  1  0
  6  7  1  6
  6  8  1  0
  6 13  1  0
  8  9  1  6
  8 10  1  0
  8 12  1  0
 10 11  1  0
 10 21  1  0
 10 22  1  0
 11 23  1  0
 13 24  1  0
 14 25  1  0
 15 16  1  0
 15 26  1  0
 16 17  2  0
 16 18  1  0
 18 27  1  0
 18 28  1  0
 18 29  1  0
M  END

