29
rmsd32.gzmat
C          0.00000        0.00000        0.00000
C          1.54020        0.00000        0.00000
H          1.92600        0.00000        1.05880
C          2.04300       -1.26360       -0.73840
H          3.15330       -1.23360       -0.85480
C          1.35570       -1.46180       -2.10800
H          1.51360       -2.50680       -2.46320
C         -0.13520       -1.09380       -2.13420
H         -0.40290       -0.68200       -3.14690
C         -1.03220       -2.29600       -1.79570
O         -2.38540       -1.94350       -1.97280
O         -0.49170        0.00160       -1.32310
O          1.94250       -0.56960       -3.04260
O          1.85290       -2.40890        0.05170
N          2.04660        1.16930       -0.71320
C          2.46150        2.29070       -0.01780
O          2.52450        2.27830        1.19440
C          2.83860        3.47100       -0.86730
H         -0.41910       -0.84000        0.57560
H         -0.40930        0.95150        0.39730
H         -0.89050       -3.13780       -2.49920
H         -0.89870       -2.65380       -0.76110
H         -2.54730       -1.04770       -1.59730
H          2.86400       -0.83040       -3.24410
H          0.91540       -2.51510        0.31450
H          1.88570        1.16730       -1.71430
H          3.27690        4.26420       -0.23970
H          1.95970        3.90060       -1.36830
H          3.57680        3.21340       -1.63740
