29

C         -0.09640        0.03850       -0.03760
C          1.43240        0.05930       -0.01750
H          1.78970        0.11460        1.02020
C          1.96310       -1.23330       -0.65910
H          3.06320       -1.13680       -0.77180
C          1.34390       -1.44070       -2.05730
H          1.54920       -2.47520       -2.39290
C         -0.18040       -1.26370       -2.04750
H         -0.47060       -1.09580       -3.09920
C         -0.93250       -2.50450       -1.53520
O         -0.57130       -3.67770       -2.23820
O         -0.58840       -0.09100       -1.36500
O          1.86500       -0.50260       -2.99150
O          1.63480       -2.29610        0.21260
N          1.95290        1.22310       -0.70380
C          2.61490        2.22510       -0.05290
O          2.86380        2.19330        1.14080
C          3.01090        3.40280       -0.92820
H         -0.46090       -0.77470        0.61300
H         -0.49020        0.99070        0.34330
H         -0.68470       -2.69290       -0.48310
H         -2.01620       -2.29170       -1.59510
H         -0.86960       -3.58960       -3.15340
H          2.82790       -0.58880       -3.00230
H          1.82600       -3.13550       -0.22700
H          1.74400        1.29470       -1.69360
H          2.38680        4.26910       -0.65790
H          2.89870        3.20720       -2.00470
H          4.05360        3.67140       -0.70700
