29
rmsd37.gzmat
C          0.00000        0.00000        0.00000
C          1.53980        0.00000        0.00000
H          1.92630        0.00000        1.05850
C          2.04600       -1.26200       -0.73950
H          3.15550       -1.22320       -0.86340
C          1.35090       -1.46860       -2.10400
H          1.50610       -2.51630       -2.45250
C         -0.13940       -1.09780       -2.12780
H         -0.40880       -0.69620       -3.14360
C         -1.04190       -2.28980       -1.76820
O         -2.39500       -1.92090       -1.91240
O         -0.48680        0.00710       -1.32500
O          1.93420       -0.58370       -3.04770
O          1.87260       -2.40950        0.05110
N          2.04000        1.17170       -0.71410
C          2.52130        2.26400       -0.01670
O          2.63050        2.22350        1.19220
C          2.90470        3.45580       -0.84620
H         -0.41810       -0.84380        0.57040
H         -0.41060        0.94910        0.40070
H         -0.92500       -3.13370       -2.47350
H         -0.88820       -2.64800       -0.73590
H         -2.53380       -1.01960       -1.54120
H          2.86260       -0.83220       -3.23210
H          0.94150       -2.51710        0.33430
H          1.84690        1.18550       -1.70920
H          3.76270        3.97320       -0.38620
H          2.07510        4.17940       -0.87830
H          3.17840        3.20890       -1.87810
