29
rmsd30.gzmat
C          0.00000        0.00000        0.00000
C          1.54050        0.00000        0.00000
H          1.92530        0.00000        1.05890
C          2.04510       -1.26160       -0.73930
H          3.15530       -1.23070       -0.85560
C          1.35760       -1.45910       -2.10880
H          1.51790       -2.50280       -2.46700
C         -0.13460       -1.09710       -2.13060
H         -0.40820       -0.69310       -3.14480
C         -1.02430       -2.30120       -1.78020
O         -2.37350       -1.97930       -2.03370
O         -0.49130        0.00090       -1.32320
O          1.94170       -0.56290       -3.04120
O          1.85480       -2.40920        0.04750
N          2.04690        1.17230       -0.71000
C          2.36500        2.32380       -0.01080
O          2.37110        2.32630        1.20300
C          2.73210        3.51090       -0.85490
H         -0.41940       -0.83890        0.57670
H         -0.40810        0.95200        0.39800
H         -0.83740       -3.17120       -2.43750
H         -0.93080       -2.60900       -0.72470
H         -2.57130       -1.08210       -1.68030
H          2.86480       -0.82100       -3.24100
H          0.92180       -2.50130        0.33240
H          1.90800        1.15960       -1.71430
H          2.79150        4.41580       -0.22780
H          1.99840        3.70810       -1.64720
H          3.71510        3.37580       -1.32700
