
     RDKit          3D

 29 29  0  0  0  0  0  0  0  0999 V2000
    0.0359   -0.0183    0.0658 C   0  0  0  0  0  0  0  0  0  0  0  0
    1.5600   -0.0374    0.0241 C   0  0  1  0  0  0  0  0  0  0  0  0
    1.9489   -0.0061    1.0529 H   0  0  0  0  0  0  0  0  0  0  0  0
    2.0198   -1.3767   -0.6081 C   0  0  2  0  0  0  0  0  0  0  0  0
    3.1045   -1.3278   -0.7951 H   0  0  0  0  0  0  0  0  0  0  0  0
    1.3574   -1.5636   -1.9927 C   0  0  1  0  0  0  0  0  0  0  0  0
    1.4881   -2.6189   -2.2842 H   0  0  0  0  0  0  0  0  0  0  0  0
   -0.1618   -1.2423   -1.9986 C   0  0  1  0  0  0  0  0  0  0  0  0
   -0.3898   -0.9834   -3.0442 H   0  0  0  0  0  0  0  0  0  0  0  0
   -1.0838   -2.4093   -1.6627 C   0  0  0  0  0  0  0  0  0  0  0  0
   -0.8040   -2.9367   -0.3681 O   0  0  0  0  0  0  0  0  0  0  0  0
   -0.4847   -0.0692   -1.2564 O   0  0  0  0  0  0  0  0  0  0  0  0
    2.0227   -0.7925   -2.9724 O   0  0  0  0  0  0  0  0  0  0  0  0
    1.7977   -2.4428    0.2753 O   0  0  0  0  0  0  0  0  0  0  0  0
    2.0129    1.1257   -0.7355 N   0  0  0  0  0  0  0  0  0  0  0  0
    3.1691    1.8564   -0.5510 C   0  0  0  0  0  0  0  0  0  0  0  0
    3.3476    2.9028   -1.1443 O   0  0  0  0  0  0  0  0  0  0  0  0
    4.1821    1.2831    0.4227 C   0  0  0  0  0  0  0  0  0  0  0  0
   -0.3299   -0.8561    0.6785 H   0  0  0  0  0  0  0  0  0  0  0  0
   -0.3310    0.9228    0.5016 H   0  0  0  0  0  0  0  0  0  0  0  0
   -2.1243   -2.0426   -1.7084 H   0  0  0  0  0  0  0  0  0  0  0  0
   -0.9535   -3.1868   -2.4389 H   0  0  0  0  0  0  0  0  0  0  0  0
   -1.3802   -3.6905   -0.1889 H   0  0  0  0  0  0  0  0  0  0  0  0
    2.1909    0.0812   -2.5881 H   0  0  0  0  0  0  0  0  0  0  0  0
    0.8782   -2.7517    0.1717 H   0  0  0  0  0  0  0  0  0  0  0  0
    1.3068    1.6053   -1.2904 H   0  0  0  0  0  0  0  0  0  0  0  0
    3.8092    1.3698    1.4565 H   0  0  0  0  0  0  0  0  0  0  0  0
    5.1080    1.8629    0.3316 H   0  0  0  0  0  0  0  0  0  0  0  0
    4.3872    0.2192    0.2347 H   0  0  0  0  0  0  0  0  0  0  0  0
  1  2  1  0
  1 12  1  0
  1 19  1  0
  1 20  1  0
  2  3  1  1
  2  4  1  0
  2 15  1  0
  4  5  1  6
  4  6  1  0
  4 14  1  0
  6  7  1  6
  6  8  1  0
  6 13  1  0
  8  9  1  6
  8 10  1  0
  8 12  1  0
 10 11  1  0
 10 21  1  0
 10 22  1  0
 11 23  1  0
 13 24  1  0
 14 25  1  0
 15 16  1  0
 15 26  1  0
 16 17  2  0
 16 18  1  0
 18 27  1  0
 18 28  1  0
 18 29  1  0
M  END

