29
rmsd43.gzmat
C          0.00000        0.00000        0.00000
C          1.53970        0.00000        0.00000
H          1.92030        0.00000        1.06120
C          2.05310       -1.26240       -0.73270
H          3.16260       -1.22120       -0.85260
C          1.36230       -1.47720       -2.09810
H          1.54920       -2.51560       -2.45830
C         -0.13950       -1.15760       -2.09780
H         -0.45240       -0.79540       -3.11530
C         -0.98030       -2.37520       -1.67800
O         -2.35180       -2.05850       -1.75120
O         -0.50030       -0.04020       -1.31900
O          1.91130       -0.56250       -3.03350
O          1.87770       -2.40710        0.06160
N          2.04950        1.17020       -0.70980
C          2.48690        2.27810       -0.00730
O          2.53560        2.25790        1.20580
C          2.92740        3.44650       -0.84210
H         -0.41860       -0.82110        0.60270
H         -0.40470        0.96430        0.37060
H         -0.86840       -3.22400       -2.37860
H         -0.75960       -2.71700       -0.65230
H         -2.50030       -1.14460       -1.41440
H          2.82990       -0.80950       -3.26380
H          0.95220       -2.49560        0.37130
H          1.89400        1.16970       -1.71130
H          3.92370        3.26910       -1.27200
H          3.00010        4.35060       -0.21460
H          2.23950        3.67080       -1.66590
