rmsd26.gzmat
 OpenBabel08211713423D

 29 29  0  0  1  0  0  0  0  0999 V2000
    0.0000    0.0000    0.0000 C   0  0  0  0  0  0  0  0  0  0  0  0
    1.5369    0.0000    0.0000 C   0  0  1  0  0  0  0  0  0  0  0  0
    1.9193    0.0000    1.0604 H   0  0  0  0  0  0  0  0  0  0  0  0
    2.0537   -1.2674   -0.7282 C   0  0  2  0  0  0  0  0  0  0  0  0
    3.1623   -1.2130   -0.8480 H   0  0  0  0  0  0  0  0  0  0  0  0
    1.3617   -1.4889   -2.0875 C   0  0  1  0  0  0  0  0  0  0  0  0
    1.5659   -2.5218   -2.4575 H   0  0  0  0  0  0  0  0  0  0  0  0
   -0.1487   -1.1934   -2.0740 C   0  0  1  0  0  0  0  0  0  0  0  0
   -0.4644   -0.8644   -3.0983 H   0  0  0  0  0  0  0  0  0  0  0  0
   -0.9819   -2.3981   -1.5869 C   0  0  0  0  0  0  0  0  0  0  0  0
   -0.3448   -3.6177   -1.8898 O   0  0  0  0  0  0  0  0  0  0  0  0
   -0.5047   -0.0606   -1.3201 O   0  0  0  0  0  0  0  0  0  0  0  0
    1.8795   -0.5649   -3.0333 O   0  0  0  0  0  0  0  0  0  0  0  0
    1.8679   -2.3679    0.1283 O   0  0  0  0  0  0  0  0  0  0  0  0
    2.0461    1.1681   -0.7172 N   0  0  0  0  0  0  0  0  0  0  0  0
    2.4853    2.2810   -0.0258 C   0  0  0  0  0  0  0  0  0  0  0  0
    2.5520    2.2738    1.1866 O   0  0  0  0  0  0  0  0  0  0  0  0
    2.9042    3.4480   -0.8761 C   0  0  0  0  0  0  0  0  0  0  0  0
   -0.4042   -0.8188    0.6177 H   0  0  0  0  0  0  0  0  0  0  0  0
   -0.4140    0.9655    0.3537 H   0  0  0  0  0  0  0  0  0  0  0  0
   -1.0621   -2.4242   -0.4819 H   0  0  0  0  0  0  0  0  0  0  0  0
   -2.0012   -2.3805   -2.0085 H   0  0  0  0  0  0  0  0  0  0  0  0
   -0.4186   -3.8316   -2.8414 H   0  0  0  0  0  0  0  0  0  0  0  0
    2.8168   -0.7609   -3.2335 H   0  0  0  0  0  0  0  0  0  0  0  0
    1.1046   -2.9214   -0.1483 H   0  0  0  0  0  0  0  0  0  0  0  0
    1.8776    1.1676   -1.7162 H   0  0  0  0  0  0  0  0  0  0  0  0
    3.0436    4.3416   -0.2460 H   0  0  0  0  0  0  0  0  0  0  0  0
    2.1635    3.6983   -1.6452 H   0  0  0  0  0  0  0  0  0  0  0  0
    3.8631    3.2508   -1.3751 H   0  0  0  0  0  0  0  0  0  0  0  0
  1  2  1  0  0  0  0
  1 20  1  0  0  0  0
  1 19  1  0  0  0  0
  2  4  1  0  0  0  0
  2  3  1  1  0  0  0
  4  6  1  0  0  0  0
  4 14  1  0  0  0  0
  4  5  1  6  0  0  0
  6  8  1  0  0  0  0
  6  7  1  6  0  0  0
  8  9  1  6  0  0  0
  8 10  1  0  0  0  0
  8 12  1  0  0  0  0
 10 21  1  0  0  0  0
 11 10  1  0  0  0  0
 12  1  1  0  0  0  0
 13  6  1  0  0  0  0
 15 16  1  0  0  0  0
 15  2  1  0  0  0  0
 16 17  2  0  0  0  0
 18 27  1  0  0  0  0
 18 16  1  0  0  0  0
 22 10  1  0  0  0  0
 23 11  1  0  0  0  0
 24 13  1  0  0  0  0
 25 14  1  0  0  0  0
 26 15  1  0  0  0  0
 28 18  1  0  0  0  0
 29 18  1  0  0  0  0
M  END
$$$$
