38
rmsd194.gzmat
C          0.00000        0.00000        0.00000
C          1.39700        0.00000        0.00000
C          2.08230        0.00000        1.21130
C          1.38950        0.00340        2.43380
C         -0.00880        0.01020        2.42190
C         -0.69420        0.00990        1.21100
O          1.91860       -0.04340        3.68460
C          3.30260        0.25740        3.81580
O          3.44550       -0.00770        1.26170
C         -0.74560       -0.04010       -1.29820
C         -0.84370       -1.48710       -1.82560
C         -1.78960       -2.28670       -0.98310
C         -1.34180       -2.86330        0.20740
C         -2.23660       -3.55490        1.01770
C         -3.58240       -3.70250        0.64130
C         -4.01520       -3.13940       -0.56380
C         -3.12360       -2.43270       -1.36510
O         -4.57280       -4.34710        1.31150
C         -4.24800       -4.91620        2.57340
O         -1.84120       -4.11240        2.19840
H          1.94340       -0.00510       -0.93810
H         -0.54720        0.01460        3.36920
H         -1.78400        0.00630        1.21090
H          3.41950        0.33750        4.90370
H          3.55620        1.20260        3.32660
H          3.90750       -0.56450        3.41690
H          3.84010        0.00310        0.35670
H         -0.24930        0.60000       -2.05420
H         -1.76570        0.38130       -1.18260
H          0.16240       -1.95280       -1.83840
H         -1.17410       -1.47240       -2.88320
H         -0.30150       -2.75480        0.50790
H         -5.05630       -3.25860       -0.85930
H         -3.47670       -1.98850       -2.29300
H         -5.21250       -5.33000        2.89330
H         -3.90220       -4.14790        3.27310
H         -3.50090       -5.70960        2.45990
H         -0.91420       -3.84920        2.42380
