rmsd194.gzmat
 OpenBabel08211713373D

 38 39  0  0  0  0  0  0  0  0999 V2000
    0.0000    0.0000    0.0000 C   0  0  0  0  0  0  0  0  0  0  0  0
    1.3970    0.0000    0.0000 C   0  0  0  0  0  0  0  0  0  0  0  0
    2.0823    0.0000    1.2113 C   0  0  0  0  0  0  0  0  0  0  0  0
    1.3895    0.0034    2.4338 C   0  0  0  0  0  0  0  0  0  0  0  0
   -0.0088    0.0102    2.4219 C   0  0  0  0  0  0  0  0  0  0  0  0
   -0.6942    0.0099    1.2110 C   0  0  0  0  0  0  0  0  0  0  0  0
    1.9186   -0.0434    3.6846 O   0  0  0  0  0  0  0  0  0  0  0  0
    3.3026    0.2574    3.8158 C   0  0  0  0  0  0  0  0  0  0  0  0
    3.4455   -0.0077    1.2617 O   0  0  0  0  0  0  0  0  0  0  0  0
   -0.7456   -0.0401   -1.2982 C   0  0  0  0  0  0  0  0  0  0  0  0
   -0.8437   -1.4871   -1.8256 C   0  0  0  0  0  0  0  0  0  0  0  0
   -1.7896   -2.2867   -0.9831 C   0  0  0  0  0  0  0  0  0  0  0  0
   -1.3418   -2.8633    0.2074 C   0  0  0  0  0  0  0  0  0  0  0  0
   -2.2366   -3.5549    1.0177 C   0  0  0  0  0  0  0  0  0  0  0  0
   -3.5824   -3.7025    0.6413 C   0  0  0  0  0  0  0  0  0  0  0  0
   -4.0152   -3.1394   -0.5638 C   0  0  0  0  0  0  0  0  0  0  0  0
   -3.1236   -2.4327   -1.3651 C   0  0  0  0  0  0  0  0  0  0  0  0
   -4.5728   -4.3471    1.3115 O   0  0  0  0  0  0  0  0  0  0  0  0
   -4.2480   -4.9162    2.5734 C   0  0  0  0  0  0  0  0  0  0  0  0
   -1.8412   -4.1124    2.1984 O   0  0  0  0  0  0  0  0  0  0  0  0
    1.9434   -0.0051   -0.9381 H   0  0  0  0  0  0  0  0  0  0  0  0
   -0.5472    0.0146    3.3692 H   0  0  0  0  0  0  0  0  0  0  0  0
   -1.7840    0.0063    1.2109 H   0  0  0  0  0  0  0  0  0  0  0  0
    3.4195    0.3375    4.9037 H   0  0  0  0  0  0  0  0  0  0  0  0
    3.5562    1.2026    3.3266 H   0  0  0  0  0  0  0  0  0  0  0  0
    3.9075   -0.5645    3.4169 H   0  0  0  0  0  0  0  0  0  0  0  0
    3.8401    0.0031    0.3567 H   0  0  0  0  0  0  0  0  0  0  0  0
   -0.2493    0.6000   -2.0542 H   0  0  0  0  0  0  0  0  0  0  0  0
   -1.7657    0.3813   -1.1826 H   0  0  0  0  0  0  0  0  0  0  0  0
    0.1624   -1.9528   -1.8384 H   0  0  0  0  0  0  0  0  0  0  0  0
   -1.1741   -1.4724   -2.8832 H   0  0  0  0  0  0  0  0  0  0  0  0
   -0.3015   -2.7548    0.5079 H   0  0  0  0  0  0  0  0  0  0  0  0
   -5.0563   -3.2586   -0.8593 H   0  0  0  0  0  0  0  0  0  0  0  0
   -3.4767   -1.9885   -2.2930 H   0  0  0  0  0  0  0  0  0  0  0  0
   -5.2125   -5.3300    2.8933 H   0  0  0  0  0  0  0  0  0  0  0  0
   -3.9022   -4.1479    3.2731 H   0  0  0  0  0  0  0  0  0  0  0  0
   -3.5009   -5.7096    2.4599 H   0  0  0  0  0  0  0  0  0  0  0  0
   -0.9142   -3.8492    2.4238 H   0  0  0  0  0  0  0  0  0  0  0  0
  1  6  1  0  0  0  0
  2  1  2  0  0  0  0
  2  3  1  0  0  0  0
  3  9  1  0  0  0  0
  3  4  2  0  0  0  0
  4  7  1  0  0  0  0
  5  4  1  0  0  0  0
  5 22  1  0  0  0  0
  6  5  2  0  0  0  0
  7  8  1  0  0  0  0
  8 24  1  0  0  0  0
 10 29  1  0  0  0  0
 10  1  1  0  0  0  0
 11 10  1  0  0  0  0
 11 12  1  0  0  0  0
 12 13  1  0  0  0  0
 13 32  1  0  0  0  0
 13 14  2  0  0  0  0
 14 20  1  0  0  0  0
 15 14  1  0  0  0  0
 15 18  1  0  0  0  0
 16 15  2  0  0  0  0
 17 12  2  0  0  0  0
 17 16  1  0  0  0  0
 18 19  1  0  0  0  0
 19 35  1  0  0  0  0
 19 36  1  0  0  0  0
 20 38  1  0  0  0  0
 21  2  1  0  0  0  0
 23  6  1  0  0  0  0
 25  8  1  0  0  0  0
 26  8  1  0  0  0  0
 27  9  1  0  0  0  0
 28 10  1  0  0  0  0
 30 11  1  0  0  0  0
 31 11  1  0  0  0  0
 33 16  1  0  0  0  0
 34 17  1  0  0  0  0
 37 19  1  0  0  0  0
M  END
$$$$
