rmsd62.gzmat
 OpenBabel08211713373D

 38 39  0  0  0  0  0  0  0  0999 V2000
    0.0000    0.0000    0.0000 C   0  0  0  0  0  0  0  0  0  0  0  0
    1.3969    0.0000    0.0000 C   0  0  0  0  0  0  0  0  0  0  0  0
    2.0834    0.0000    1.2109 C   0  0  0  0  0  0  0  0  0  0  0  0
    1.3911   -0.0038    2.4335 C   0  0  0  0  0  0  0  0  0  0  0  0
   -0.0079   -0.0257    2.4211 C   0  0  0  0  0  0  0  0  0  0  0  0
   -0.6940   -0.0245    1.2113 C   0  0  0  0  0  0  0  0  0  0  0  0
    1.9091    0.0242    3.6886 O   0  0  0  0  0  0  0  0  0  0  0  0
    3.3240    0.0011    3.8222 C   0  0  0  0  0  0  0  0  0  0  0  0
    3.4472    0.0130    1.2615 O   0  0  0  0  0  0  0  0  0  0  0  0
   -0.7472    0.0641   -1.2963 C   0  0  0  0  0  0  0  0  0  0  0  0
   -0.8860    1.5282   -1.7642 C   0  0  0  0  0  0  0  0  0  0  0  0
   -1.9049    2.2527   -0.9390 C   0  0  0  0  0  0  0  0  0  0  0  0
   -1.5306    2.8264    0.2777 C   0  0  0  0  0  0  0  0  0  0  0  0
   -2.4838    3.4723    1.0589 C   0  0  0  0  0  0  0  0  0  0  0  0
   -3.8184    3.5711    0.6302 C   0  0  0  0  0  0  0  0  0  0  0  0
   -4.1814    2.9984   -0.5934 C   0  0  0  0  0  0  0  0  0  0  0  0
   -3.2296    2.3426   -1.3685 C   0  0  0  0  0  0  0  0  0  0  0  0
   -4.8590    4.1696    1.2662 O   0  0  0  0  0  0  0  0  0  0  0  0
   -4.5890    4.8050    2.5092 C   0  0  0  0  0  0  0  0  0  0  0  0
   -2.1573    4.0334    2.2589 O   0  0  0  0  0  0  0  0  0  0  0  0
    1.9434    0.0047   -0.9381 H   0  0  0  0  0  0  0  0  0  0  0  0
   -0.5457   -0.0427    3.3685 H   0  0  0  0  0  0  0  0  0  0  0  0
   -1.7840   -0.0288    1.2127 H   0  0  0  0  0  0  0  0  0  0  0  0
    3.4500    0.0080    4.9124 H   0  0  0  0  0  0  0  0  0  0  0  0
    3.7724    0.8936    3.3731 H   0  0  0  0  0  0  0  0  0  0  0  0
    3.7446   -0.9119    3.3882 H   0  0  0  0  0  0  0  0  0  0  0  0
    3.8426   -0.0090    0.3573 H   0  0  0  0  0  0  0  0  0  0  0  0
   -1.7537   -0.3926   -1.1989 H   0  0  0  0  0  0  0  0  0  0  0  0
   -0.2312   -0.5293   -2.0765 H   0  0  0  0  0  0  0  0  0  0  0  0
   -1.1618    1.5495   -2.8369 H   0  0  0  0  0  0  0  0  0  0  0  0
    0.0989    2.0354   -1.7051 H   0  0  0  0  0  0  0  0  0  0  0  0
   -0.5000    2.7538    0.6196 H   0  0  0  0  0  0  0  0  0  0  0  0
   -5.2156    3.0740   -0.9254 H   0  0  0  0  0  0  0  0  0  0  0  0
   -3.5268    1.8971   -2.3154 H   0  0  0  0  0  0  0  0  0  0  0  0
   -5.5720    5.2096    2.7796 H   0  0  0  0  0  0  0  0  0  0  0  0
   -3.8579    5.6105    2.3839 H   0  0  0  0  0  0  0  0  0  0  0  0
   -4.2482    4.0761    3.2517 H   0  0  0  0  0  0  0  0  0  0  0  0
   -1.2248    3.8185    2.5111 H   0  0  0  0  0  0  0  0  0  0  0  0
  1  6  1  0  0  0  0
  2  1  2  0  0  0  0
  2  3  1  0  0  0  0
  3  9  1  0  0  0  0
  3  4  2  0  0  0  0
  4  7  1  0  0  0  0
  5  4  1  0  0  0  0
  5 22  1  0  0  0  0
  6 23  1  0  0  0  0
  6  5  2  0  0  0  0
  7  8  1  0  0  0  0
  8 24  1  0  0  0  0
 10 28  1  0  0  0  0
 10  1  1  0  0  0  0
 11 31  1  0  0  0  0
 11 10  1  0  0  0  0
 11 12  1  0  0  0  0
 12 13  1  0  0  0  0
 13 32  1  0  0  0  0
 13 14  2  0  0  0  0
 14 20  1  0  0  0  0
 15 14  1  0  0  0  0
 15 18  1  0  0  0  0
 16 15  2  0  0  0  0
 17 12  2  0  0  0  0
 17 16  1  0  0  0  0
 18 19  1  0  0  0  0
 19 35  1  0  0  0  0
 19 37  1  0  0  0  0
 20 38  1  0  0  0  0
 21  2  1  0  0  0  0
 25  8  1  0  0  0  0
 26  8  1  0  0  0  0
 27  9  1  0  0  0  0
 29 10  1  0  0  0  0
 30 11  1  0  0  0  0
 33 16  1  0  0  0  0
 34 17  1  0  0  0  0
 36 19  1  0  0  0  0
M  END
$$$$
