38

C          0.09150        0.00660       -0.11070
C          1.45860        0.31340       -0.03880
C          2.11770        0.44610        1.18640
C          1.39880        0.25590        2.38770
C          0.04240       -0.06640        2.31480
C         -0.60900       -0.18580        1.08500
O          1.98090        0.42760        3.61060
C          3.01450       -0.48070        3.96110
O          3.43760        0.76830        1.27770
C         -0.62160        0.03100       -1.43950
C         -0.97720        1.47150       -1.89540
C         -1.88460        2.18820       -0.92620
C         -1.35740        2.77170        0.23520
C         -2.17920        3.33520        1.21280
C         -3.57670        3.37160        1.01170
C         -4.10090        2.80750       -0.15320
C         -3.27260        2.20840       -1.10610
O         -4.43550        3.88200        1.94140
C         -4.27970        5.24990        2.28530
O         -1.68050        3.83560        2.37640
H          2.02670        0.47830       -0.96140
H         -0.49460       -0.20550        3.25520
H         -1.67820       -0.40420        1.05580
H          3.30940       -0.24030        4.99200
H          3.88930       -0.38030        3.29990
H          2.65190       -1.52440        3.92690
H          3.80290        0.85930        0.38810
H         -1.54970       -0.55780       -1.37330
H          0.00530       -0.43710       -2.21680
H         -1.45710        1.41800       -2.88570
H         -0.04090        2.03950       -2.02440
H         -0.27800        2.75070        0.41070
H         -5.18440        2.84050       -0.28380
H         -3.71150        1.75860       -2.00040
H         -5.10490        5.49830        2.96740
H         -4.35100        5.89390        1.38940
H         -3.32010        5.44020        2.78980
H         -0.73580        3.63620        2.42380
