38
rmsd233.gzmat
C          0.00000        0.00000        0.00000
C          1.39640        0.00000        0.00000
C          2.08210        0.00000        1.21100
C          1.38840        0.02550        2.43250
C         -0.00950        0.04250        2.42060
C         -0.69540        0.02410        1.21040
O          1.92090       -0.02380        3.68220
C          3.28200        0.36770        3.81850
O          3.44430       -0.03460        1.26360
C         -0.74880       -0.05910       -1.29550
C         -1.15580       -1.51140       -1.61980
C          0.02280       -2.30110       -2.10040
C          0.92440       -2.83440       -1.17680
C          2.03380       -3.54310       -1.62630
C          2.24140       -3.76120       -2.99890
C          1.32950       -3.22760       -3.91530
C          0.23450       -2.49570       -3.46550
O          3.26840       -4.42580       -3.59040
C          4.12330       -5.18830       -2.74740
O          2.95390       -4.04960       -0.75550
H          1.94140       -0.01810       -0.94110
H         -0.54710        0.06690        3.36720
H         -1.78310        0.02820        1.21260
H          3.38380        0.47660        4.90530
H          3.48310        1.31620        3.31260
H          3.93890       -0.42440        3.44160
H          3.83810       -0.05880        0.35690
H         -0.14280        0.35320       -2.12790
H         -1.65400        0.57890       -1.24890
H         -1.96290       -1.50730       -2.37890
H         -1.60260       -1.98610       -0.72150
H          0.76440       -2.68320       -0.11080
H          1.49140       -3.39330       -4.97940
H         -0.46040       -2.07570       -4.18930
H          4.74660       -5.72390       -3.47430
H          3.55320       -5.89090       -2.13150
H          4.73250       -4.52450       -2.12420
H          2.76380       -3.75890        0.17140
