38
rmsd136.gzmat
C          0.00000        0.00000        0.00000
C          1.39640        0.00000        0.00000
C          2.08360        0.00000        1.21070
C          1.39230       -0.00460        2.43360
C         -0.00740        0.00060        2.42090
C         -0.69420        0.00320        1.21140
O          1.91160       -0.02020        3.68860
C          3.32760       -0.00980        3.81570
O          3.44810        0.00610        1.25380
C         -0.74400        0.01540       -1.29960
C         -0.94600        1.46250       -1.79430
C         -2.06480        2.11880       -1.04570
C         -3.37370        2.01560       -1.52110
C         -4.41160        2.60620       -0.80580
C         -4.16240        3.30160        0.38900
C         -2.84600        3.39930        0.85440
C         -1.80810        2.81420        0.13700
O         -5.06020        3.92760        1.19360
C         -6.43290        3.85040        0.83280
O         -5.70570        2.53010       -1.23300
H          1.94320        0.00230       -0.93760
H         -0.54480        0.00230        3.36890
H         -1.78420        0.02000        1.21080
H          3.46040       -0.03440        4.90490
H          3.74870        0.90710        3.39040
H          3.76890       -0.89760        3.35080
H          3.83520        0.00350        0.34530
H         -1.72860       -0.48550       -1.19590
H         -0.19940       -0.56800       -2.06790
H         -1.15110        1.45810       -2.88310
H         -0.00330        2.03570       -1.67670
H         -3.58170        1.47700       -2.44040
H         -2.65030        3.93570        1.78230
H         -0.78660        2.88960        0.51020
H         -6.91690        4.39790        1.65140
H         -6.77430        2.81050        0.80520
H         -6.61110        4.34630       -0.12710
H         -5.77400        2.04360       -2.08940
