38
rmsd159.gzmat
C          0.00000        0.00000        0.00000
C          1.39640        0.00000        0.00000
C          2.08720        0.00000        1.20720
C          1.39710        0.02700        2.43080
C         -0.00150        0.03280        2.41980
C         -0.69180        0.01510        1.21120
O          1.92050        0.03910        3.68460
C          3.33560        0.11720        3.80140
O          3.45100       -0.02120        1.24350
C         -0.74200       -0.02970       -1.30110
C         -0.84660       -1.47050       -1.84350
C          0.49210       -1.95950       -2.30380
C          0.97200       -1.59310       -3.56330
C          2.23940       -2.00760       -3.96270
C          3.04550       -2.78550       -3.11490
C          2.54650       -3.16310       -1.86370
C          1.27790       -2.75330       -1.46700
O          4.31320       -3.22030       -3.33700
C          4.85570       -3.02900       -4.63730
O          2.75010       -1.67070       -5.18260
H          1.94070       -0.01610       -0.94230
H         -0.53790        0.04990        3.36710
H         -1.77950        0.01480        1.21800
H          3.47510        0.16290        4.88860
H          3.71920        1.02350        3.32070
H          3.80790       -0.77900        3.38430
H          3.82830       -0.16880        0.34010
H         -0.23930        0.61660       -2.04950
H         -1.75930        0.39410       -1.18400
H         -1.58010       -1.50150       -2.67370
H         -1.26380       -2.13370       -1.05810
H          0.36290       -0.98360       -4.22340
H          3.16430       -3.77760       -1.20950
H          0.90180       -3.04440       -0.48630
H          5.82430       -3.53890       -4.55950
H          4.99220       -1.96180       -4.84350
H          4.22900       -3.49900       -5.40140
H          2.09660       -1.16080       -5.71910
