
     RDKit          3D

 38 39  0  0  0  0  0  0  0  0999 V2000
    0.0915    0.0066   -0.1107 C   0  0  0  0  0  0  0  0  0  0  0  0
    1.4586    0.3134   -0.0388 C   0  0  0  0  0  0  0  0  0  0  0  0
    2.1177    0.4461    1.1864 C   0  0  0  0  0  0  0  0  0  0  0  0
    1.3988    0.2559    2.3877 C   0  0  0  0  0  0  0  0  0  0  0  0
    0.0424   -0.0664    2.3148 C   0  0  0  0  0  0  0  0  0  0  0  0
   -0.6090   -0.1858    1.0850 C   0  0  0  0  0  0  0  0  0  0  0  0
    1.9809    0.4276    3.6106 O   0  0  0  0  0  0  0  0  0  0  0  0
    3.0145   -0.4807    3.9611 C   0  0  0  0  0  0  0  0  0  0  0  0
    3.4376    0.7683    1.2777 O   0  0  0  0  0  0  0  0  0  0  0  0
   -0.6216    0.0310   -1.4395 C   0  0  0  0  0  0  0  0  0  0  0  0
   -0.9772    1.4715   -1.8954 C   0  0  0  0  0  0  0  0  0  0  0  0
   -1.8846    2.1882   -0.9262 C   0  0  0  0  0  0  0  0  0  0  0  0
   -1.3574    2.7717    0.2352 C   0  0  0  0  0  0  0  0  0  0  0  0
   -2.1792    3.3352    1.2128 C   0  0  0  0  0  0  0  0  0  0  0  0
   -3.5767    3.3716    1.0117 C   0  0  0  0  0  0  0  0  0  0  0  0
   -4.1009    2.8075   -0.1532 C   0  0  0  0  0  0  0  0  0  0  0  0
   -3.2726    2.2084   -1.1061 C   0  0  0  0  0  0  0  0  0  0  0  0
   -4.4355    3.8820    1.9414 O   0  0  0  0  0  0  0  0  0  0  0  0
   -4.2797    5.2499    2.2853 C   0  0  0  0  0  0  0  0  0  0  0  0
   -1.6805    3.8356    2.3764 O   0  0  0  0  0  0  0  0  0  0  0  0
    2.0267    0.4783   -0.9614 H   0  0  0  0  0  0  0  0  0  0  0  0
   -0.4946   -0.2055    3.2552 H   0  0  0  0  0  0  0  0  0  0  0  0
   -1.6782   -0.4042    1.0558 H   0  0  0  0  0  0  0  0  0  0  0  0
    3.3094   -0.2403    4.9920 H   0  0  0  0  0  0  0  0  0  0  0  0
    3.8893   -0.3803    3.2999 H   0  0  0  0  0  0  0  0  0  0  0  0
    2.6519   -1.5244    3.9269 H   0  0  0  0  0  0  0  0  0  0  0  0
    3.8029    0.8593    0.3881 H   0  0  0  0  0  0  0  0  0  0  0  0
   -1.5497   -0.5578   -1.3733 H   0  0  0  0  0  0  0  0  0  0  0  0
    0.0053   -0.4371   -2.2168 H   0  0  0  0  0  0  0  0  0  0  0  0
   -1.4571    1.4180   -2.8857 H   0  0  0  0  0  0  0  0  0  0  0  0
   -0.0409    2.0395   -2.0244 H   0  0  0  0  0  0  0  0  0  0  0  0
   -0.2780    2.7507    0.4107 H   0  0  0  0  0  0  0  0  0  0  0  0
   -5.1844    2.8405   -0.2838 H   0  0  0  0  0  0  0  0  0  0  0  0
   -3.7115    1.7586   -2.0004 H   0  0  0  0  0  0  0  0  0  0  0  0
   -5.1049    5.4983    2.9674 H   0  0  0  0  0  0  0  0  0  0  0  0
   -4.3510    5.8939    1.3894 H   0  0  0  0  0  0  0  0  0  0  0  0
   -3.3201    5.4402    2.7898 H   0  0  0  0  0  0  0  0  0  0  0  0
   -0.7358    3.6362    2.4238 H   0  0  0  0  0  0  0  0  0  0  0  0
  1  2  2  0
  1  6  1  0
  1 10  1  0
  2  3  1  0
  2 21  1  0
  3  4  2  0
  3  9  1  0
  4  5  1  0
  4  7  1  0
  5  6  2  0
  5 22  1  0
  6 23  1  0
  7  8  1  0
  8 24  1  0
  8 25  1  0
  8 26  1  0
  9 27  1  0
 10 11  1  0
 10 28  1  0
 10 29  1  0
 11 12  1  0
 11 30  1  0
 11 31  1  0
 12 13  2  0
 12 17  1  0
 13 14  1  0
 13 32  1  0
 14 15  2  0
 14 20  1  0
 15 16  1  0
 15 18  1  0
 16 17  2  0
 16 33  1  0
 17 34  1  0
 18 19  1  0
 19 35  1  0
 19 36  1  0
 19 37  1  0
 20 38  1  0
M  END

