38
rmsd41.gzmat
C          0.00000        0.00000        0.00000
C          1.39640        0.00000        0.00000
C          2.08310        0.00000        1.21080
C          1.39220        0.00440        2.43410
C         -0.00700       -0.00930        2.42190
C         -0.69320       -0.01270        1.21220
O          1.91540        0.04410        3.68690
C          3.32660       -0.07990        3.81220
O          3.44740        0.00000        1.25510
C         -0.74740        0.04030       -1.29710
C         -0.87790        1.49110       -1.80630
C         -1.84180        2.25910       -0.95490
C         -1.39570        2.87160        0.21840
C         -2.30160        3.54220        1.03420
C         -3.65940        3.62700        0.68180
C         -4.09340        3.02010       -0.50160
C         -3.18870        2.34000       -1.31090
O         -4.66440        4.23780        1.36160
C         -4.32720        4.92430        2.56000
O         -1.90880        4.14100        2.19550
H          1.94370        0.00430       -0.93740
H         -0.54660       -0.01790        3.36820
H         -1.78320       -0.01220        1.21320
H          3.46150       -0.09410        4.90110
H          3.82970        0.78590        3.36800
H          3.68220       -1.01290        3.36340
H          3.83660       -0.04110        0.34830
H         -1.75740       -0.40610       -1.18670
H         -0.23670       -0.57650       -2.06250
H         -1.20610        1.48220       -2.86470
H          0.11790        1.97860       -1.81230
H         -0.34710        2.80710        0.50090
H         -5.14590        3.08610       -0.77290
H         -3.54050        1.86600       -2.22450
H         -5.29650        5.33930        2.86460
H         -3.60570        5.72450        2.36410
H         -3.94530        4.22630        3.31280
H         -0.96850        3.92100        2.41210
