rmsd188.gzmat
 OpenBabel08211713373D

 38 39  0  0  0  0  0  0  0  0999 V2000
    0.0000    0.0000    0.0000 C   0  0  0  0  0  0  0  0  0  0  0  0
    1.3960    0.0000    0.0000 C   0  0  0  0  0  0  0  0  0  0  0  0
    2.0839    0.0000    1.2109 C   0  0  0  0  0  0  0  0  0  0  0  0
    1.3941    0.0082    2.4346 C   0  0  0  0  0  0  0  0  0  0  0  0
   -0.0055    0.0047    2.4220 C   0  0  0  0  0  0  0  0  0  0  0  0
   -0.6921   -0.0030    1.2128 C   0  0  0  0  0  0  0  0  0  0  0  0
    1.9131    0.0159    3.6895 O   0  0  0  0  0  0  0  0  0  0  0  0
    3.3287    0.0537    3.8163 C   0  0  0  0  0  0  0  0  0  0  0  0
    3.4476   -0.0073    1.2547 O   0  0  0  0  0  0  0  0  0  0  0  0
   -0.7486   -0.0018   -1.2961 C   0  0  0  0  0  0  0  0  0  0  0  0
   -1.5982    1.2750   -1.4346 C   0  0  0  0  0  0  0  0  0  0  0  0
   -2.2604    1.3080   -2.7764 C   0  0  0  0  0  0  0  0  0  0  0  0
   -3.3202    0.4390   -3.0483 C   0  0  0  0  0  0  0  0  0  0  0  0
   -3.9217    0.4608   -4.3027 C   0  0  0  0  0  0  0  0  0  0  0  0
   -3.4857    1.3529   -5.2976 C   0  0  0  0  0  0  0  0  0  0  0  0
   -2.4283    2.2227   -5.0114 C   0  0  0  0  0  0  0  0  0  0  0  0
   -1.8210    2.1950   -3.7594 C   0  0  0  0  0  0  0  0  0  0  0  0
   -3.9640    1.4946   -6.5604 O   0  0  0  0  0  0  0  0  0  0  0  0
   -5.0761    0.6930   -6.9379 C   0  0  0  0  0  0  0  0  0  0  0  0
   -4.9516   -0.3776   -4.6163 O   0  0  0  0  0  0  0  0  0  0  0  0
    1.9443   -0.0005   -0.9379 H   0  0  0  0  0  0  0  0  0  0  0  0
   -0.5423    0.0087    3.3698 H   0  0  0  0  0  0  0  0  0  0  0  0
   -1.7805   -0.0076    1.2167 H   0  0  0  0  0  0  0  0  0  0  0  0
    3.4607    0.0811    4.9055 H   0  0  0  0  0  0  0  0  0  0  0  0
    3.7399    0.9556    3.3519 H   0  0  0  0  0  0  0  0  0  0  0  0
    3.7799   -0.8488    3.3906 H   0  0  0  0  0  0  0  0  0  0  0  0
    3.8359   -0.0293    0.3462 H   0  0  0  0  0  0  0  0  0  0  0  0
   -1.3967   -0.9001   -1.3620 H   0  0  0  0  0  0  0  0  0  0  0  0
   -0.0592   -0.0810   -2.1614 H   0  0  0  0  0  0  0  0  0  0  0  0
   -0.9564    2.1663   -1.2782 H   0  0  0  0  0  0  0  0  0  0  0  0
   -2.3570    1.3204   -0.6271 H   0  0  0  0  0  0  0  0  0  0  0  0
   -3.6706   -0.2496   -2.2851 H   0  0  0  0  0  0  0  0  0  0  0  0
   -2.0913    2.9170   -5.7801 H   0  0  0  0  0  0  0  0  0  0  0  0
   -0.9965    2.8748   -3.5511 H   0  0  0  0  0  0  0  0  0  0  0  0
   -5.2694    1.0388   -7.9612 H   0  0  0  0  0  0  0  0  0  0  0  0
   -5.9395    0.8878   -6.2936 H   0  0  0  0  0  0  0  0  0  0  0  0
   -4.8087   -0.3689   -6.9271 H   0  0  0  0  0  0  0  0  0  0  0  0
   -5.1794   -0.9674   -3.8580 H   0  0  0  0  0  0  0  0  0  0  0  0
  1  2  2  0  0  0  0
  1  6  1  0  0  0  0
  2  3  1  0  0  0  0
  3  9  1  0  0  0  0
  3  4  2  0  0  0  0
  4  7  1  0  0  0  0
  5  4  1  0  0  0  0
  5 22  1  0  0  0  0
  6 23  1  0  0  0  0
  6  5  2  0  0  0  0
  7  8  1  0  0  0  0
  8 24  1  0  0  0  0
 10  1  1  0  0  0  0
 11 10  1  0  0  0  0
 11 30  1  0  0  0  0
 11 31  1  0  0  0  0
 12 11  1  0  0  0  0
 13 12  1  0  0  0  0
 13 32  1  0  0  0  0
 14 13  2  0  0  0  0
 15 16  2  0  0  0  0
 15 14  1  0  0  0  0
 16 17  1  0  0  0  0
 17 34  1  0  0  0  0
 17 12  2  0  0  0  0
 18 15  1  0  0  0  0
 19 37  1  0  0  0  0
 19 18  1  0  0  0  0
 19 36  1  0  0  0  0
 20 14  1  0  0  0  0
 20 38  1  0  0  0  0
 21  2  1  0  0  0  0
 25  8  1  0  0  0  0
 26  8  1  0  0  0  0
 27  9  1  0  0  0  0
 28 10  1  0  0  0  0
 29 10  1  0  0  0  0
 33 16  1  0  0  0  0
 35 19  1  0  0  0  0
M  END
$$$$
