
     RDKit          3D

 38 39  0  0  0  0  0  0  0  0999 V2000
   -0.0281   -0.0052   -0.0332 C   0  0  0  0  0  0  0  0  0  0  0  0
    1.3649   -0.1679   -0.0047 C   0  0  0  0  0  0  0  0  0  0  0  0
    2.0543   -0.3878    1.1910 C   0  0  0  0  0  0  0  0  0  0  0  0
    1.3388   -0.4351    2.4084 C   0  0  0  0  0  0  0  0  0  0  0  0
   -0.0456   -0.2579    2.3805 C   0  0  0  0  0  0  0  0  0  0  0  0
   -0.7262   -0.0516    1.1784 C   0  0  0  0  0  0  0  0  0  0  0  0
    1.9547   -0.6989    3.5978 O   0  0  0  0  0  0  0  0  0  0  0  0
    2.8953    0.2593    4.0595 C   0  0  0  0  0  0  0  0  0  0  0  0
    3.4024   -0.5740    1.2361 O   0  0  0  0  0  0  0  0  0  0  0  0
   -0.7554    0.0785   -1.3520 C   0  0  0  0  0  0  0  0  0  0  0  0
   -0.9708   -1.3140   -2.0018 C   0  0  0  0  0  0  0  0  0  0  0  0
   -1.7822   -2.2466   -1.1371 C   0  0  0  0  0  0  0  0  0  0  0  0
   -1.1707   -2.9473   -0.0875 C   0  0  0  0  0  0  0  0  0  0  0  0
   -1.9074   -3.7403    0.7939 C   0  0  0  0  0  0  0  0  0  0  0  0
   -3.3056   -3.8517    0.6282 C   0  0  0  0  0  0  0  0  0  0  0  0
   -3.9132   -3.1646   -0.4243 C   0  0  0  0  0  0  0  0  0  0  0  0
   -3.1668   -2.3708   -1.2995 C   0  0  0  0  0  0  0  0  0  0  0  0
   -4.0714   -4.6467    1.4315 O   0  0  0  0  0  0  0  0  0  0  0  0
   -4.1264   -4.3048    2.8077 C   0  0  0  0  0  0  0  0  0  0  0  0
   -1.3244   -4.4215    1.8178 O   0  0  0  0  0  0  0  0  0  0  0  0
    1.9328   -0.1455   -0.9418 H   0  0  0  0  0  0  0  0  0  0  0  0
   -0.5784   -0.3021    3.3325 H   0  0  0  0  0  0  0  0  0  0  0  0
   -1.8131    0.0510    1.1796 H   0  0  0  0  0  0  0  0  0  0  0  0
    3.2273   -0.0775    5.0515 H   0  0  0  0  0  0  0  0  0  0  0  0
    2.4281    1.2562    4.1580 H   0  0  0  0  0  0  0  0  0  0  0  0
    3.7666    0.3333    3.3904 H   0  0  0  0  0  0  0  0  0  0  0  0
    3.7606   -0.5090    0.3413 H   0  0  0  0  0  0  0  0  0  0  0  0
   -0.1915    0.7110   -2.0578 H   0  0  0  0  0  0  0  0  0  0  0  0
   -1.7372    0.5547   -1.2038 H   0  0  0  0  0  0  0  0  0  0  0  0
    0.0157   -1.7595   -2.2124 H   0  0  0  0  0  0  0  0  0  0  0  0
   -1.4719   -1.1745   -2.9730 H   0  0  0  0  0  0  0  0  0  0  0  0
   -0.0904   -2.8632    0.0634 H   0  0  0  0  0  0  0  0  0  0  0  0
   -4.9936   -3.2736   -0.5387 H   0  0  0  0  0  0  0  0  0  0  0  0
   -3.6691   -1.8382   -2.1111 H   0  0  0  0  0  0  0  0  0  0  0  0
   -4.8447   -4.9930    3.2750 H   0  0  0  0  0  0  0  0  0  0  0  0
   -4.4851   -3.2677    2.9438 H   0  0  0  0  0  0  0  0  0  0  0  0
   -3.1463   -4.4134    3.2971 H   0  0  0  0  0  0  0  0  0  0  0  0
   -0.3894   -4.1808    1.8626 H   0  0  0  0  0  0  0  0  0  0  0  0
  1  2  2  0
  1  6  1  0
  1 10  1  0
  2  3  1  0
  2 21  1  0
  3  4  2  0
  3  9  1  0
  4  5  1  0
  4  7  1  0
  5  6  2  0
  5 22  1  0
  6 23  1  0
  7  8  1  0
  8 24  1  0
  8 25  1  0
  8 26  1  0
  9 27  1  0
 10 11  1  0
 10 28  1  0
 10 29  1  0
 11 12  1  0
 11 30  1  0
 11 31  1  0
 12 13  2  0
 12 17  1  0
 13 14  1  0
 13 32  1  0
 14 15  2  0
 14 20  1  0
 15 16  1  0
 15 18  1  0
 16 17  2  0
 16 33  1  0
 17 34  1  0
 18 19  1  0
 19 35  1  0
 19 36  1  0
 19 37  1  0
 20 38  1  0
M  END

