
     RDKit          3D

 38 39  0  0  0  0  0  0  0  0999 V2000
   -0.0879    0.0820    0.0426 C   0  0  0  0  0  0  0  0  0  0  0  0
    1.2946    0.3034   -0.0404 C   0  0  0  0  0  0  0  0  0  0  0  0
    2.0856    0.4483    1.1026 C   0  0  0  0  0  0  0  0  0  0  0  0
    1.4897    0.3493    2.3793 C   0  0  0  0  0  0  0  0  0  0  0  0
    0.1142    0.1269    2.4617 C   0  0  0  0  0  0  0  0  0  0  0  0
   -0.6705   -0.0000    1.3128 C   0  0  0  0  0  0  0  0  0  0  0  0
    2.2037    0.5254    3.5288 O   0  0  0  0  0  0  0  0  0  0  0  0
    3.2388   -0.4087    3.7941 C   0  0  0  0  0  0  0  0  0  0  0  0
    3.4219    0.7002    1.0393 O   0  0  0  0  0  0  0  0  0  0  0  0
   -0.9060   -0.1215   -1.2084 C   0  0  0  0  0  0  0  0  0  0  0  0
   -0.9342   -1.5961   -1.6698 C   0  0  0  0  0  0  0  0  0  0  0  0
   -1.7524   -1.7996   -2.9208 C   0  0  0  0  0  0  0  0  0  0  0  0
   -3.1348   -2.0211   -2.8378 C   0  0  0  0  0  0  0  0  0  0  0  0
   -3.9258   -2.1660   -3.9808 C   0  0  0  0  0  0  0  0  0  0  0  0
   -3.3300   -2.0668   -5.2575 C   0  0  0  0  0  0  0  0  0  0  0  0
   -1.9544   -1.8443   -5.3399 C   0  0  0  0  0  0  0  0  0  0  0  0
   -1.1698   -1.7174   -4.1910 C   0  0  0  0  0  0  0  0  0  0  0  0
   -4.0439   -2.2429   -6.4070 O   0  0  0  0  0  0  0  0  0  0  0  0
   -5.0791   -1.3089   -6.6723 C   0  0  0  0  0  0  0  0  0  0  0  0
   -5.2621   -2.4181   -3.9175 O   0  0  0  0  0  0  0  0  0  0  0  0
    1.7716    0.3833   -1.0238 H   0  0  0  0  0  0  0  0  0  0  0  0
   -0.3264    0.0676    3.4590 H   0  0  0  0  0  0  0  0  0  0  0  0
   -1.7466   -0.1665    1.4063 H   0  0  0  0  0  0  0  0  0  0  0  0
    3.6390   -0.1613    4.7872 H   0  0  0  0  0  0  0  0  0  0  0  0
    4.0482   -0.3469    3.0503 H   0  0  0  0  0  0  0  0  0  0  0  0
    2.8446   -1.4414    3.8149 H   0  0  0  0  0  0  0  0  0  0  0  0
    3.6897    0.7543    0.1128 H   0  0  0  0  0  0  0  0  0  0  0  0
   -0.5081    0.4965   -2.0298 H   0  0  0  0  0  0  0  0  0  0  0  0
   -1.9412    0.2158   -1.0384 H   0  0  0  0  0  0  0  0  0  0  0  0
   -1.3321   -2.2140   -0.8484 H   0  0  0  0  0  0  0  0  0  0  0  0
    0.1010   -1.9333   -1.8398 H   0  0  0  0  0  0  0  0  0  0  0  0
   -3.6118   -2.1011   -1.8544 H   0  0  0  0  0  0  0  0  0  0  0  0
   -1.5138   -1.7850   -6.3372 H   0  0  0  0  0  0  0  0  0  0  0  0
   -0.0937   -1.5508   -4.2845 H   0  0  0  0  0  0  0  0  0  0  0  0
   -5.4792   -1.5563   -7.6654 H   0  0  0  0  0  0  0  0  0  0  0  0
   -4.6848   -0.2762   -6.6930 H   0  0  0  0  0  0  0  0  0  0  0  0
   -5.8884   -1.3707   -5.9285 H   0  0  0  0  0  0  0  0  0  0  0  0
   -5.5298   -2.4723   -2.9910 H   0  0  0  0  0  0  0  0  0  0  0  0
  1  2  2  0
  1  6  1  0
  1 10  1  0
  2  3  1  0
  2 21  1  0
  3  4  2  0
  3  9  1  0
  4  5  1  0
  4  7  1  0
  5  6  2  0
  5 22  1  0
  6 23  1  0
  7  8  1  0
  8 24  1  0
  8 25  1  0
  8 26  1  0
  9 27  1  0
 10 11  1  0
 10 28  1  0
 10 29  1  0
 11 12  1  0
 11 30  1  0
 11 31  1  0
 12 13  2  0
 12 17  1  0
 13 14  1  0
 13 32  1  0
 14 15  2  0
 14 20  1  0
 15 16  1  0
 15 18  1  0
 16 17  2  0
 16 33  1  0
 17 34  1  0
 18 19  1  0
 19 35  1  0
 19 36  1  0
 19 37  1  0
 20 38  1  0
M  END

