rmsd212.gzmat
 OpenBabel08211713373D

 38 39  0  0  0  0  0  0  0  0999 V2000
    0.0000    0.0000    0.0000 C   0  0  0  0  0  0  0  0  0  0  0  0
    1.3968    0.0000    0.0000 C   0  0  0  0  0  0  0  0  0  0  0  0
    2.0856    0.0000    1.2090 C   0  0  0  0  0  0  0  0  0  0  0  0
    1.3944    0.0341    2.4316 C   0  0  0  0  0  0  0  0  0  0  0  0
   -0.0041    0.0551    2.4201 C   0  0  0  0  0  0  0  0  0  0  0  0
   -0.6928    0.0304    1.2111 C   0  0  0  0  0  0  0  0  0  0  0  0
    1.9203    0.0077    3.6842 O   0  0  0  0  0  0  0  0  0  0  0  0
    3.3186    0.2351    3.8106 C   0  0  0  0  0  0  0  0  0  0  0  0
    3.4483   -0.0412    1.2536 O   0  0  0  0  0  0  0  0  0  0  0  0
   -0.7448   -0.0743   -1.2973 C   0  0  0  0  0  0  0  0  0  0  0  0
   -1.0040   -1.5451   -1.6889 C   0  0  0  0  0  0  0  0  0  0  0  0
    0.2792   -2.2202   -2.0641 C   0  0  0  0  0  0  0  0  0  0  0  0
    1.0674   -2.8133   -1.0755 C   0  0  0  0  0  0  0  0  0  0  0  0
    2.2936   -3.3756   -1.4167 C   0  0  0  0  0  0  0  0  0  0  0  0
    2.7383   -3.3791   -2.7496 C   0  0  0  0  0  0  0  0  0  0  0  0
    1.9281   -2.8066   -3.7362 C   0  0  0  0  0  0  0  0  0  0  0  0
    0.7110   -2.2274   -3.3914 C   0  0  0  0  0  0  0  0  0  0  0  0
    3.9046   -3.8728   -3.2408 O   0  0  0  0  0  0  0  0  0  0  0  0
    4.7929   -4.4964   -2.3223 C   0  0  0  0  0  0  0  0  0  0  0  0
    3.1076   -3.9330   -0.4745 O   0  0  0  0  0  0  0  0  0  0  0  0
    1.9411   -0.0222   -0.9418 H   0  0  0  0  0  0  0  0  0  0  0  0
   -0.5403    0.0852    3.3675 H   0  0  0  0  0  0  0  0  0  0  0  0
   -1.7807    0.0317    1.2151 H   0  0  0  0  0  0  0  0  0  0  0  0
    3.4400    0.3246    4.8973 H   0  0  0  0  0  0  0  0  0  0  0  0
    3.6210    1.1591    3.3088 H   0  0  0  0  0  0  0  0  0  0  0  0
    3.8791   -0.6233    3.4242 H   0  0  0  0  0  0  0  0  0  0  0  0
    3.8327   -0.1409    0.3475 H   0  0  0  0  0  0  0  0  0  0  0  0
   -0.1822    0.4328   -2.1076 H   0  0  0  0  0  0  0  0  0  0  0  0
   -1.7100    0.4654   -1.2281 H   0  0  0  0  0  0  0  0  0  0  0  0
   -1.7283   -1.5810   -2.5269 H   0  0  0  0  0  0  0  0  0  0  0  0
   -1.4995   -2.0744   -0.8498 H   0  0  0  0  0  0  0  0  0  0  0  0
    0.7314   -2.8169   -0.0405 H   0  0  0  0  0  0  0  0  0  0  0  0
    2.2670   -2.8186   -4.7708 H   0  0  0  0  0  0  0  0  0  0  0  0
    0.0966   -1.7733   -4.1656 H   0  0  0  0  0  0  0  0  0  0  0  0
    5.6136   -4.8149   -2.9774 H   0  0  0  0  0  0  0  0  0  0  0  0
    4.3204   -5.3603   -1.8432 H   0  0  0  0  0  0  0  0  0  0  0  0
    5.1456   -3.7771   -1.5758 H   0  0  0  0  0  0  0  0  0  0  0  0
    2.7344   -3.8179    0.4346 H   0  0  0  0  0  0  0  0  0  0  0  0
  1  2  2  0  0  0  0
  1  6  1  0  0  0  0
  2  3  1  0  0  0  0
  3  9  1  0  0  0  0
  3  4  2  0  0  0  0
  4  7  1  0  0  0  0
  5  4  1  0  0  0  0
  5 22  1  0  0  0  0
  6 23  1  0  0  0  0
  6  5  2  0  0  0  0
  7  8  1  0  0  0  0
  8 24  1  0  0  0  0
 10 29  1  0  0  0  0
 10  1  1  0  0  0  0
 11 10  1  0  0  0  0
 11 31  1  0  0  0  0
 12 11  1  0  0  0  0
 12 13  2  0  0  0  0
 13 32  1  0  0  0  0
 14 13  1  0  0  0  0
 14 20  1  0  0  0  0
 15 14  2  0  0  0  0
 16 17  2  0  0  0  0
 16 15  1  0  0  0  0
 17 12  1  0  0  0  0
 18 15  1  0  0  0  0
 18 19  1  0  0  0  0
 19 36  1  0  0  0  0
 19 37  1  0  0  0  0
 20 38  1  0  0  0  0
 21  2  1  0  0  0  0
 25  8  1  0  0  0  0
 26  8  1  0  0  0  0
 27  9  1  0  0  0  0
 28 10  1  0  0  0  0
 30 11  1  0  0  0  0
 33 16  1  0  0  0  0
 34 17  1  0  0  0  0
 35 19  1  0  0  0  0
M  END
$$$$
