rmsd41.gzmat
 OpenBabel08211713373D

 38 39  0  0  0  0  0  0  0  0999 V2000
    0.0000    0.0000    0.0000 C   0  0  0  0  0  0  0  0  0  0  0  0
    1.3964    0.0000    0.0000 C   0  0  0  0  0  0  0  0  0  0  0  0
    2.0831    0.0000    1.2108 C   0  0  0  0  0  0  0  0  0  0  0  0
    1.3922    0.0044    2.4341 C   0  0  0  0  0  0  0  0  0  0  0  0
   -0.0070   -0.0093    2.4219 C   0  0  0  0  0  0  0  0  0  0  0  0
   -0.6932   -0.0127    1.2122 C   0  0  0  0  0  0  0  0  0  0  0  0
    1.9154    0.0441    3.6869 O   0  0  0  0  0  0  0  0  0  0  0  0
    3.3266   -0.0799    3.8122 C   0  0  0  0  0  0  0  0  0  0  0  0
    3.4474    0.0000    1.2551 O   0  0  0  0  0  0  0  0  0  0  0  0
   -0.7474    0.0403   -1.2971 C   0  0  0  0  0  0  0  0  0  0  0  0
   -0.8779    1.4911   -1.8063 C   0  0  0  0  0  0  0  0  0  0  0  0
   -1.8418    2.2591   -0.9549 C   0  0  0  0  0  0  0  0  0  0  0  0
   -1.3957    2.8716    0.2184 C   0  0  0  0  0  0  0  0  0  0  0  0
   -2.3016    3.5422    1.0342 C   0  0  0  0  0  0  0  0  0  0  0  0
   -3.6594    3.6270    0.6818 C   0  0  0  0  0  0  0  0  0  0  0  0
   -4.0934    3.0201   -0.5016 C   0  0  0  0  0  0  0  0  0  0  0  0
   -3.1887    2.3400   -1.3109 C   0  0  0  0  0  0  0  0  0  0  0  0
   -4.6644    4.2378    1.3616 O   0  0  0  0  0  0  0  0  0  0  0  0
   -4.3272    4.9243    2.5600 C   0  0  0  0  0  0  0  0  0  0  0  0
   -1.9088    4.1410    2.1955 O   0  0  0  0  0  0  0  0  0  0  0  0
    1.9437    0.0043   -0.9374 H   0  0  0  0  0  0  0  0  0  0  0  0
   -0.5466   -0.0179    3.3682 H   0  0  0  0  0  0  0  0  0  0  0  0
   -1.7832   -0.0122    1.2132 H   0  0  0  0  0  0  0  0  0  0  0  0
    3.4615   -0.0941    4.9011 H   0  0  0  0  0  0  0  0  0  0  0  0
    3.8297    0.7859    3.3680 H   0  0  0  0  0  0  0  0  0  0  0  0
    3.6822   -1.0129    3.3634 H   0  0  0  0  0  0  0  0  0  0  0  0
    3.8366   -0.0411    0.3483 H   0  0  0  0  0  0  0  0  0  0  0  0
   -1.7574   -0.4061   -1.1867 H   0  0  0  0  0  0  0  0  0  0  0  0
   -0.2367   -0.5765   -2.0625 H   0  0  0  0  0  0  0  0  0  0  0  0
   -1.2061    1.4822   -2.8647 H   0  0  0  0  0  0  0  0  0  0  0  0
    0.1179    1.9786   -1.8123 H   0  0  0  0  0  0  0  0  0  0  0  0
   -0.3471    2.8071    0.5009 H   0  0  0  0  0  0  0  0  0  0  0  0
   -5.1459    3.0861   -0.7729 H   0  0  0  0  0  0  0  0  0  0  0  0
   -3.5405    1.8660   -2.2245 H   0  0  0  0  0  0  0  0  0  0  0  0
   -5.2965    5.3393    2.8646 H   0  0  0  0  0  0  0  0  0  0  0  0
   -3.6057    5.7245    2.3641 H   0  0  0  0  0  0  0  0  0  0  0  0
   -3.9453    4.2263    3.3128 H   0  0  0  0  0  0  0  0  0  0  0  0
   -0.9685    3.9210    2.4121 H   0  0  0  0  0  0  0  0  0  0  0  0
  1  6  1  0  0  0  0
  2  1  2  0  0  0  0
  2  3  1  0  0  0  0
  3  9  1  0  0  0  0
  3  4  2  0  0  0  0
  4  7  1  0  0  0  0
  5  4  1  0  0  0  0
  5 22  1  0  0  0  0
  6 23  1  0  0  0  0
  6  5  2  0  0  0  0
  7  8  1  0  0  0  0
  8 24  1  0  0  0  0
 10 28  1  0  0  0  0
 10  1  1  0  0  0  0
 11 10  1  0  0  0  0
 11 12  1  0  0  0  0
 12 13  1  0  0  0  0
 13 32  1  0  0  0  0
 13 14  2  0  0  0  0
 14 20  1  0  0  0  0
 15 14  1  0  0  0  0
 15 18  1  0  0  0  0
 16 15  2  0  0  0  0
 17 12  2  0  0  0  0
 17 16  1  0  0  0  0
 18 19  1  0  0  0  0
 19 35  1  0  0  0  0
 19 37  1  0  0  0  0
 20 38  1  0  0  0  0
 21  2  1  0  0  0  0
 25  8  1  0  0  0  0
 26  8  1  0  0  0  0
 27  9  1  0  0  0  0
 29 10  1  0  0  0  0
 30 11  1  0  0  0  0
 31 11  1  0  0  0  0
 33 16  1  0  0  0  0
 34 17  1  0  0  0  0
 36 19  1  0  0  0  0
M  END
$$$$
