rmsd117.gzmat
 OpenBabel08211713363D

 37 39  0  0  1  0  0  0  0  0999 V2000
    0.0000    0.0000    0.0000 C   0  0  0  0  0  0  0  0  0  0  0  0
    1.4230    0.0000    0.0000 C   0  0  0  0  0  0  0  0  0  0  0  0
    2.1492    0.0000    1.1649 C   0  0  0  0  0  0  0  0  0  0  0  0
    1.4464   -0.0069    2.3866 C   0  0  0  0  0  0  0  0  0  0  0  0
   -0.0337   -0.0050    2.4129 C   0  0  0  0  0  0  0  0  0  0  0  0
   -0.7185    0.0004    1.2312 C   0  0  0  0  0  0  0  0  0  0  0  0
   -0.4077   -0.0117    3.7886 C   0  0  0  0  0  0  0  0  0  0  0  0
    0.7567   -0.0170    4.5578 C   0  0  0  0  0  0  0  0  0  0  0  0
    1.8826   -0.0194    3.6590 N   0  0  0  0  0  0  0  0  0  0  0  0
    2.8559   -0.0028    4.0812 H   0  0  0  0  0  0  0  0  0  0  0  0
    1.0085   -0.0169    5.9460 C   0  0  2  0  0  0  0  0  0  0  0  0
   -0.0697   -0.0528    6.8601 C   0  0  0  0  0  0  0  0  0  0  0  0
    0.1294   -0.0269    8.2227 C   0  0  0  0  0  0  0  0  0  0  0  0
   -1.0016   -0.1170    9.1826 C   0  0  0  0  0  0  0  0  0  0  0  0
   -2.2780    0.6991    8.7390 C   0  0  0  0  0  0  0  0  0  0  0  0
   -2.7727    0.3987    7.6443 O   0  0  0  0  0  0  0  0  0  0  0  0
   -2.6857    1.5185    9.5682 O   0  0  0  0  0  0  0  0  0  0  0  0
    1.4561    0.0555    8.7210 C   0  0  0  0  0  0  0  0  0  0  0  0
    2.5168    0.0752    7.8593 C   0  0  0  0  0  0  0  0  0  0  0  0
    2.3659    0.0299    6.4329 C   0  0  0  0  0  0  0  0  0  0  0  0
    3.3487    0.0288    5.6597 O   0  0  0  0  0  0  0  0  0  0  0  0
    4.2902    0.1664    8.5459 Br  0  0  0  0  0  0  0  0  0  0  0  0
   -0.7140    0.0073   -1.2283 C   0  0  0  0  0  0  0  0  0  0  0  0
   -0.1915   -0.5394   -2.3730 N   0  0  0  0  0  0  0  0  0  0  0  0
   -0.6151   -0.4388   -3.2685 H   0  0  0  0  0  0  0  0  0  0  0  0
    0.6986   -1.0066   -2.3426 H   0  0  0  0  0  0  0  0  0  0  0  0
   -1.9602    0.5636   -1.3332 N   0  0  0  0  0  0  0  0  0  0  0  0
    1.9514    0.0353   -0.9503 H   0  0  0  0  0  0  0  0  0  0  0  0
    3.2350    0.0127    1.1636 H   0  0  0  0  0  0  0  0  0  0  0  0
   -1.8045   -0.0291    1.2366 H   0  0  0  0  0  0  0  0  0  0  0  0
   -1.4083   -0.0008    4.1696 H   0  0  0  0  0  0  0  0  0  0  0  0
   -1.1018   -0.0939    6.4731 H   0  0  0  0  0  0  0  0  0  0  0  0
   -0.7242    0.2453   10.1858 H   0  0  0  0  0  0  0  0  0  0  0  0
   -1.3364   -1.1621    9.2940 H   0  0  0  0  0  0  0  0  0  0  0  0
    1.5995    0.1016    9.8010 H   0  0  0  0  0  0  0  0  0  0  0  0
   -2.3761    1.0082   -0.5269 H   0  0  0  0  0  0  0  0  0  0  0  0
   -2.5382    0.4630   -2.1383 H   0  0  0  0  0  0  0  0  0  0  0  0
  1  2  2  0  0  0  0
  1  6  1  0  0  0  0
  2  3  1  0  0  0  0
  3  4  2  0  0  0  0
  4  5  1  0  0  0  0
  4  9  1  0  0  0  0
  5  7  1  0  0  0  0
  6 30  1  0  0  0  0
  6  5  2  0  0  0  0
  7 31  1  0  0  0  0
  7  8  2  0  0  0  0
  9 10  1  0  0  0  0
  9  8  1  0  0  0  0
 11  8  1  6  0  0  0
 11 20  1  0  0  0  0
 11 12  1  0  0  0  0
 12 13  2  0  0  0  0
 13 18  1  0  0  0  0
 13 14  1  0  0  0  0
 14 34  1  0  0  0  0
 14 33  1  0  0  0  0
 15 14  1  0  0  0  0
 15 17  1  0  0  0  0
 16 15  2  0  0  0  0
 18 35  1  0  0  0  0
 19 22  1  0  0  0  0
 19 18  2  0  0  0  0
 20 19  1  0  0  0  0
 21 20  2  0  0  0  0
 23  1  1  0  0  0  0
 24 26  1  0  0  0  0
 24 23  2  0  0  0  0
 25 24  1  0  0  0  0
 27 23  1  0  0  0  0
 27 36  1  0  0  0  0
 28  2  1  0  0  0  0
 29  3  1  0  0  0  0
 32 12  1  0  0  0  0
 37 27  1  0  0  0  0
M  RAD  2  11   2  17   2
M  END
$$$$
