rmsd131.gzmat
 OpenBabel08211713363D

 37 39  0  0  1  0  0  0  0  0999 V2000
    0.0000    0.0000    0.0000 C   0  0  0  0  0  0  0  0  0  0  0  0
    1.4228    0.0000    0.0000 C   0  0  0  0  0  0  0  0  0  0  0  0
    2.1500    0.0000    1.1652 C   0  0  0  0  0  0  0  0  0  0  0  0
    1.4494   -0.0050    2.3875 C   0  0  0  0  0  0  0  0  0  0  0  0
   -0.0307   -0.0207    2.4123 C   0  0  0  0  0  0  0  0  0  0  0  0
   -0.7169   -0.0228    1.2314 C   0  0  0  0  0  0  0  0  0  0  0  0
   -0.4080   -0.0220    3.7857 C   0  0  0  0  0  0  0  0  0  0  0  0
    0.7549    0.0015    4.5570 C   0  0  0  0  0  0  0  0  0  0  0  0
    1.8833    0.0001    3.6621 N   0  0  0  0  0  0  0  0  0  0  0  0
    2.8521    0.0281    4.0836 H   0  0  0  0  0  0  0  0  0  0  0  0
    0.9930    0.0370    5.9460 C   0  0  2  0  0  0  0  0  0  0  0  0
   -0.0985    0.0388    6.8444 C   0  0  0  0  0  0  0  0  0  0  0  0
    0.0803    0.1102    8.2075 C   0  0  0  0  0  0  0  0  0  0  0  0
   -1.0706    0.0757    9.1477 C   0  0  0  0  0  0  0  0  0  0  0  0
   -2.3464    0.8366    8.6116 C   0  0  0  0  0  0  0  0  0  0  0  0
   -2.7467    1.7592    9.3281 O   0  0  0  0  0  0  0  0  0  0  0  0
   -2.8473    0.4007    7.5655 O   0  0  0  0  0  0  0  0  0  0  0  0
    1.4013    0.1838    8.7227 C   0  0  0  0  0  0  0  0  0  0  0  0
    2.4747    0.1613    7.8766 C   0  0  0  0  0  0  0  0  0  0  0  0
    2.3444    0.0873    6.4484 C   0  0  0  0  0  0  0  0  0  0  0  0
    3.3337    0.0669    5.6855 O   0  0  0  0  0  0  0  0  0  0  0  0
    4.2379    0.2263    8.5927 Br  0  0  0  0  0  0  0  0  0  0  0  0
   -0.7216    0.0425   -1.2234 C   0  0  0  0  0  0  0  0  0  0  0  0
   -0.2045   -0.4580   -2.3916 N   0  0  0  0  0  0  0  0  0  0  0  0
   -0.6380   -0.3286   -3.2793 H   0  0  0  0  0  0  0  0  0  0  0  0
    0.6925   -0.9115   -2.3867 H   0  0  0  0  0  0  0  0  0  0  0  0
   -1.9724    0.5925   -1.3013 N   0  0  0  0  0  0  0  0  0  0  0  0
    1.9528    0.0350   -0.9492 H   0  0  0  0  0  0  0  0  0  0  0  0
    3.2358    0.0135    1.1616 H   0  0  0  0  0  0  0  0  0  0  0  0
   -1.8019   -0.0725    1.2392 H   0  0  0  0  0  0  0  0  0  0  0  0
   -1.4093   -0.0242    4.1659 H   0  0  0  0  0  0  0  0  0  0  0  0
   -1.1252   -0.0090    6.4430 H   0  0  0  0  0  0  0  0  0  0  0  0
   -0.8200    0.5194   10.1245 H   0  0  0  0  0  0  0  0  0  0  0  0
   -1.3930   -0.9637    9.3286 H   0  0  0  0  0  0  0  0  0  0  0  0
    1.5309    0.2550    9.8032 H   0  0  0  0  0  0  0  0  0  0  0  0
   -2.3868    1.0096   -0.4793 H   0  0  0  0  0  0  0  0  0  0  0  0
   -2.5527    0.5160   -2.1075 H   0  0  0  0  0  0  0  0  0  0  0  0
  1  2  2  0  0  0  0
  1  6  1  0  0  0  0
  2  3  1  0  0  0  0
  3  4  2  0  0  0  0
  4  5  1  0  0  0  0
  4  9  1  0  0  0  0
  5  7  1  0  0  0  0
  6 30  1  0  0  0  0
  6  5  2  0  0  0  0
  7 31  1  0  0  0  0
  7  8  2  0  0  0  0
  9 10  1  0  0  0  0
  9  8  1  0  0  0  0
 11  8  1  6  0  0  0
 11 20  1  0  0  0  0
 11 12  1  0  0  0  0
 12 13  2  0  0  0  0
 13 18  1  0  0  0  0
 13 14  1  0  0  0  0
 14 34  1  0  0  0  0
 14 33  1  0  0  0  0
 15 14  1  0  0  0  0
 15 16  1  0  0  0  0
 17 15  2  0  0  0  0
 18 35  1  0  0  0  0
 19 22  1  0  0  0  0
 19 18  2  0  0  0  0
 20 19  1  0  0  0  0
 21 20  2  0  0  0  0
 23  1  1  0  0  0  0
 24 26  1  0  0  0  0
 24 23  2  0  0  0  0
 25 24  1  0  0  0  0
 27 23  1  0  0  0  0
 27 36  1  0  0  0  0
 28  2  1  0  0  0  0
 29  3  1  0  0  0  0
 32 12  1  0  0  0  0
 37 27  1  0  0  0  0
M  RAD  2  11   2  16   2
M  END
$$$$
