37
rmsd154.gzmat
C          0.00000        0.00000        0.00000
C          1.42250        0.00000        0.00000
C          2.14820        0.00000        1.16590
C          1.44600        0.01150        2.38720
C         -0.03390        0.02040        2.41190
C         -0.71870        0.01430        1.23020
C         -0.41160        0.03040        3.78510
C          0.75130        0.02210        4.55660
N          1.87970        0.02000        3.66180
H          2.84950        0.00040        4.08090
C          0.98970        0.00730        5.94580
C         -0.10010        0.02700        6.84640
C          0.08280       -0.01770        8.21010
C         -1.06020        0.05500        9.15760
C         -2.34870       -0.71420        8.66800
O         -2.83610       -0.34380        7.59140
O         -2.77230       -1.57200        9.44930
C          1.40490       -0.09460        8.72260
C          2.47600       -0.09420        7.87390
C          2.34220       -0.03850        6.44560
O          3.33060       -0.02910        5.68140
Br         4.24160       -0.16800        8.58280
C         -0.71860       -0.02650       -1.22550
N         -0.20060        0.50110       -2.38090
H         -0.62700        0.38590       -3.27330
H          0.69080        0.96580       -2.36100
N         -1.96560       -0.58320       -1.31510
H          1.95280       -0.03430       -0.94900
H          3.23380       -0.01790        1.16350
H         -1.80390        0.05300        1.23690
H         -1.41250        0.03030        4.16540
H         -1.12800        0.07150        6.44800
H         -1.37280        1.10250        9.30490
H         -0.80410       -0.35390       10.14840
H          1.53550       -0.15030        9.80380
H         -2.37860       -1.01540       -0.49990
H         -2.54520       -0.49770       -2.12070
