37
rmsd134.gzmat
C          0.00000        0.00000        0.00000
C          1.42310        0.00000        0.00000
C          2.15010        0.00000        1.16480
C          1.44950       -0.01000        2.38770
C         -0.03050       -0.02170        2.41380
C         -0.71630       -0.01660        1.23270
C         -0.40510       -0.03660        3.78880
C          0.75890       -0.03100        4.55870
N          1.88540       -0.01930        3.66080
H          2.85730        0.00610        4.08230
C          1.00600       -0.03470        5.94720
C         -0.07560       -0.09130        6.85610
C          0.11770       -0.08090        8.21950
C         -1.01820       -0.20730        9.16960
C         -2.30420        0.59990        8.73670
O         -2.72760        1.39730        9.57960
O         -2.78960        0.31400        7.63380
C          1.44120        0.01070        8.72460
C          2.50550        0.05270        7.86790
C          2.36120        0.02150        6.44010
O          3.34620        0.03840        5.67060
Br         4.27520        0.15170        8.56350
C         -0.72010        0.03080       -1.22450
N         -0.20430       -0.48250       -2.38780
H         -0.63980       -0.36340       -3.27560
H          0.69050       -0.93980       -2.38110
N         -1.97050        0.58250       -1.30980
H          1.95200        0.03450       -0.95000
H          3.23600        0.01510        1.16300
H         -1.80170       -0.05850        1.24020
H         -1.40560       -0.03790        4.17040
H         -1.10650       -0.13800        6.46600
H         -0.75320        0.13340       10.18350
H         -1.33840       -1.25990        9.24970
H          1.57950        0.04310        9.80570
H         -2.38490        1.00750       -0.49210
H         -2.55210        0.49500       -2.11420
