rmsd159.gzmat
 OpenBabel08211713363D

 37 39  0  0  1  0  0  0  0  0999 V2000
    0.0000    0.0000    0.0000 C   0  0  0  0  0  0  0  0  0  0  0  0
    1.4222    0.0000    0.0000 C   0  0  0  0  0  0  0  0  0  0  0  0
    2.1475    0.0000    1.1662 C   0  0  0  0  0  0  0  0  0  0  0  0
    1.4444    0.0111    2.3870 C   0  0  0  0  0  0  0  0  0  0  0  0
   -0.0357    0.0197    2.4115 C   0  0  0  0  0  0  0  0  0  0  0  0
   -0.7203    0.0141    1.2297 C   0  0  0  0  0  0  0  0  0  0  0  0
   -0.4130    0.0295    3.7851 C   0  0  0  0  0  0  0  0  0  0  0  0
    0.7500    0.0244    4.5564 C   0  0  0  0  0  0  0  0  0  0  0  0
    1.8775    0.0196    3.6614 N   0  0  0  0  0  0  0  0  0  0  0  0
    2.8484    0.0002    4.0853 H   0  0  0  0  0  0  0  0  0  0  0  0
    0.9934    0.0196    5.9452 C   0  0  1  0  0  0  0  0  0  0  0  0
   -0.0916    0.0403    6.8516 C   0  0  0  0  0  0  0  0  0  0  0  0
    0.0991    0.0166    8.2153 C   0  0  0  0  0  0  0  0  0  0  0  0
   -1.0459    0.0935    9.1589 C   0  0  0  0  0  0  0  0  0  0  0  0
   -2.2731   -0.8006    8.7233 C   0  0  0  0  0  0  0  0  0  0  0  0
   -2.6166   -1.6545    9.5460 O   0  0  0  0  0  0  0  0  0  0  0  0
   -2.7986   -0.5178    7.6382 O   0  0  0  0  0  0  0  0  0  0  0  0
    1.4229   -0.0506    8.7234 C   0  0  0  0  0  0  0  0  0  0  0  0
    2.4892   -0.0591    7.8685 C   0  0  0  0  0  0  0  0  0  0  0  0
    2.3478   -0.0178    6.4406 C   0  0  0  0  0  0  0  0  0  0  0  0
    3.3342   -0.0132    5.6725 O   0  0  0  0  0  0  0  0  0  0  0  0
    4.2584   -0.1312    8.5685 Br  0  0  0  0  0  0  0  0  0  0  0  0
   -0.7196   -0.0274   -1.2252 C   0  0  0  0  0  0  0  0  0  0  0  0
   -1.9567   -0.6055   -1.3154 N   0  0  0  0  0  0  0  0  0  0  0  0
   -2.5431   -0.5205   -2.1158 H   0  0  0  0  0  0  0  0  0  0  0  0
   -2.3559   -1.0559   -0.5029 H   0  0  0  0  0  0  0  0  0  0  0  0
   -0.2128    0.5187   -2.3767 N   0  0  0  0  0  0  0  0  0  0  0  0
    1.9513   -0.0358   -0.9496 H   0  0  0  0  0  0  0  0  0  0  0  0
    3.2332   -0.0177    1.1643 H   0  0  0  0  0  0  0  0  0  0  0  0
   -1.8055    0.0539    1.2341 H   0  0  0  0  0  0  0  0  0  0  0  0
   -1.4139    0.0235    4.1653 H   0  0  0  0  0  0  0  0  0  0  0  0
   -1.1218    0.0644    6.4596 H   0  0  0  0  0  0  0  0  0  0  0  0
   -1.4310    1.1251    9.2208 H   0  0  0  0  0  0  0  0  0  0  0  0
   -0.7690   -0.2165   10.1788 H   0  0  0  0  0  0  0  0  0  0  0  0
    1.5597   -0.0949    9.8046 H   0  0  0  0  0  0  0  0  0  0  0  0
    0.6713    0.9971   -2.3546 H   0  0  0  0  0  0  0  0  0  0  0  0
   -0.6451    0.4139   -3.2679 H   0  0  0  0  0  0  0  0  0  0  0  0
  1  2  2  0  0  0  0
  1  6  1  0  0  0  0
  2  3  1  0  0  0  0
  3  4  2  0  0  0  0
  4  5  1  0  0  0  0
  4  9  1  0  0  0  0
  5  7  1  0  0  0  0
  6 30  1  0  0  0  0
  6  5  2  0  0  0  0
  7 31  1  0  0  0  0
  7  8  2  0  0  0  0
  9 10  1  0  0  0  0
  9  8  1  0  0  0  0
 11  8  1  6  0  0  0
 11 20  1  0  0  0  0
 11 12  1  0  0  0  0
 12 13  2  0  0  0  0
 13 18  1  0  0  0  0
 13 14  1  0  0  0  0
 14 33  1  0  0  0  0
 14 34  1  0  0  0  0
 15 14  1  0  0  0  0
 15 16  1  0  0  0  0
 17 15  2  0  0  0  0
 18 35  1  0  0  0  0
 19 22  1  0  0  0  0
 19 18  2  0  0  0  0
 20 19  1  0  0  0  0
 21 20  2  0  0  0  0
 23  1  1  0  0  0  0
 24 23  1  0  0  0  0
 24 26  1  0  0  0  0
 25 24  1  0  0  0  0
 27 36  1  0  0  0  0
 27 23  2  0  0  0  0
 28  2  1  0  0  0  0
 29  3  1  0  0  0  0
 32 12  1  0  0  0  0
 37 27  1  0  0  0  0
M  RAD  2  11   2  16   2
M  END
$$$$
