rmsd118.gzmat
 OpenBabel08211713363D

 37 39  0  0  1  0  0  0  0  0999 V2000
    0.0000    0.0000    0.0000 C   0  0  0  0  0  0  0  0  0  0  0  0
    1.4229    0.0000    0.0000 C   0  0  0  0  0  0  0  0  0  0  0  0
    2.1484    0.0000    1.1656 C   0  0  0  0  0  0  0  0  0  0  0  0
    1.4459   -0.0100    2.3870 C   0  0  0  0  0  0  0  0  0  0  0  0
   -0.0341   -0.0089    2.4127 C   0  0  0  0  0  0  0  0  0  0  0  0
   -0.7188   -0.0034    1.2308 C   0  0  0  0  0  0  0  0  0  0  0  0
   -0.4099   -0.0202    3.7873 C   0  0  0  0  0  0  0  0  0  0  0  0
    0.7539   -0.0306    4.5572 C   0  0  0  0  0  0  0  0  0  0  0  0
    1.8806   -0.0279    3.6604 N   0  0  0  0  0  0  0  0  0  0  0  0
    2.8524   -0.0166    4.0833 H   0  0  0  0  0  0  0  0  0  0  0  0
    1.0003   -0.0439    5.9459 C   0  0  2  0  0  0  0  0  0  0  0  0
   -0.0830   -0.0840    6.8535 C   0  0  0  0  0  0  0  0  0  0  0  0
    0.1096   -0.0847    8.2173 C   0  0  0  0  0  0  0  0  0  0  0  0
   -1.0300   -0.1885    9.1654 C   0  0  0  0  0  0  0  0  0  0  0  0
   -2.2912    0.6545    8.7264 C   0  0  0  0  0  0  0  0  0  0  0  0
   -2.8035    0.3527    7.6399 O   0  0  0  0  0  0  0  0  0  0  0  0
   -2.6686    1.4962    9.5474 O   0  0  0  0  0  0  0  0  0  0  0  0
    1.4339   -0.0217    8.7240 C   0  0  0  0  0  0  0  0  0  0  0  0
    2.4990    0.0066    7.8676 C   0  0  0  0  0  0  0  0  0  0  0  0
    2.3557   -0.0136    6.4396 C   0  0  0  0  0  0  0  0  0  0  0  0
    3.3405   -0.0092    5.6696 O   0  0  0  0  0  0  0  0  0  0  0  0
    4.2682    0.0714    8.5683 Br  0  0  0  0  0  0  0  0  0  0  0  0
   -0.7158    0.0094   -1.2274 C   0  0  0  0  0  0  0  0  0  0  0  0
   -0.1969   -0.5392   -2.3729 N   0  0  0  0  0  0  0  0  0  0  0  0
   -0.6232   -0.4398   -3.2673 H   0  0  0  0  0  0  0  0  0  0  0  0
    0.6903   -1.0111   -2.3434 H   0  0  0  0  0  0  0  0  0  0  0  0
   -1.9606    0.5690   -1.3307 N   0  0  0  0  0  0  0  0  0  0  0  0
    1.9522    0.0345   -0.9499 H   0  0  0  0  0  0  0  0  0  0  0  0
    3.2341    0.0156    1.1648 H   0  0  0  0  0  0  0  0  0  0  0  0
   -1.8043   -0.0368    1.2375 H   0  0  0  0  0  0  0  0  0  0  0  0
   -1.4104   -0.0085    4.1690 H   0  0  0  0  0  0  0  0  0  0  0  0
   -1.1134   -0.1081    6.4607 H   0  0  0  0  0  0  0  0  0  0  0  0
   -0.7600    0.1454   10.1801 H   0  0  0  0  0  0  0  0  0  0  0  0
   -1.3745   -1.2332    9.2428 H   0  0  0  0  0  0  0  0  0  0  0  0
    1.5725    0.0011    9.8057 H   0  0  0  0  0  0  0  0  0  0  0  0
   -2.3721    1.0219   -0.5264 H   0  0  0  0  0  0  0  0  0  0  0  0
   -2.5404    0.4683   -2.1345 H   0  0  0  0  0  0  0  0  0  0  0  0
  1  2  2  0  0  0  0
  1  6  1  0  0  0  0
  2  3  1  0  0  0  0
  3  4  2  0  0  0  0
  4  5  1  0  0  0  0
  4  9  1  0  0  0  0
  5  7  1  0  0  0  0
  6 30  1  0  0  0  0
  6  5  2  0  0  0  0
  7 31  1  0  0  0  0
  7  8  2  0  0  0  0
  9 10  1  0  0  0  0
  9  8  1  0  0  0  0
 11  8  1  1  0  0  0
 11 20  1  0  0  0  0
 11 12  1  0  0  0  0
 12 13  2  0  0  0  0
 13 18  1  0  0  0  0
 13 14  1  0  0  0  0
 14 34  1  0  0  0  0
 14 33  1  0  0  0  0
 15 14  1  0  0  0  0
 15 17  1  0  0  0  0
 16 15  2  0  0  0  0
 18 35  1  0  0  0  0
 19 22  1  0  0  0  0
 19 18  2  0  0  0  0
 20 19  1  0  0  0  0
 21 20  2  0  0  0  0
 23  1  1  0  0  0  0
 24 26  1  0  0  0  0
 24 23  2  0  0  0  0
 25 24  1  0  0  0  0
 27 23  1  0  0  0  0
 27 36  1  0  0  0  0
 28  2  1  0  0  0  0
 29  3  1  0  0  0  0
 32 12  1  0  0  0  0
 37 27  1  0  0  0  0
M  RAD  2  11   2  17   2
M  END
$$$$
