37
rmsd102.gzmat
C          0.00000        0.00000        0.00000
C          1.42290        0.00000        0.00000
C          2.14880        0.00000        1.16540
C          1.44720       -0.00780        2.38760
C         -0.03260       -0.01690        2.41310
C         -0.71740       -0.01580        1.23150
C         -0.40920       -0.01810        3.78770
C          0.75420       -0.00600        4.55780
N          1.88160       -0.01040        3.66120
H          2.85290        0.01870        4.08350
C          1.00010        0.02570        5.94650
C         -0.08350        0.01180        6.85450
C          0.10570        0.09590        8.21560
C         -1.02880        0.05490        9.17570
C         -2.35610        0.71930        8.64010
O         -2.82240        0.26170        7.58760
O         -2.82770        1.59930        9.36770
C          1.42980        0.19630        8.71870
C          2.49600        0.18650        7.86350
C          2.35440        0.09540        6.43800
O          3.33990        0.08030        5.66890
Br         4.26440        0.30220        8.56010
C         -0.71870        0.03290       -1.22510
N         -1.97040        0.58050       -1.30750
H         -2.55090        0.49700       -2.11240
H         -2.38480        1.00280       -0.48820
N         -0.19910       -0.47590       -2.38880
H          1.95230        0.03480       -0.94970
H          3.23450        0.01590        1.16320
H         -1.80260       -0.05700        1.24050
H         -1.41060       -0.01270        4.16810
H         -1.11280       -0.06000        6.46270
H         -0.78100        0.56290       10.12250
H         -1.29190       -0.98720        9.42350
H          1.56680        0.27890        9.79760
H          0.69880       -0.92730       -2.38060
H         -0.63360       -0.35630       -3.27700
