37
rmsd113.gzmat
C          0.00000        0.00000        0.00000
C          1.42250        0.00000        0.00000
C          2.14770        0.00000        1.16640
C          1.44460       -0.01020        2.38770
C         -0.03530       -0.01550        2.41140
C         -0.71960       -0.01020        1.22960
C         -0.41470       -0.02100        3.78450
C          0.74730       -0.01500        4.55710
N          1.87630       -0.01850        3.66290
H          2.84580        0.00420        4.08730
C          0.98690        0.00600        5.94680
C         -0.10110       -0.00770        6.84990
C          0.08350        0.05710        8.21280
C         -1.05840       -0.00010        9.16230
C         -2.33770        0.78460        8.67280
O         -2.81990        0.43420        7.58720
O         -2.76150        1.63430        9.46260
C          1.40560        0.14600        8.72320
C          2.47550        0.13530        7.87270
C          2.33940        0.06130        6.44540
O          3.32720        0.04720        5.67950
Br         4.24160        0.22180        8.57920
C         -0.71980        0.02350       -1.22510
N         -0.21210       -0.52670       -2.37410
H         -0.63990       -0.41800       -3.26670
H          0.67380       -1.00220       -2.34990
N         -1.95630        0.60150       -1.31940
H          1.95190        0.03730       -0.94960
H          3.23340        0.01800        1.16480
H         -1.80500       -0.04630        1.23610
H         -1.41670       -0.01300        4.16240
H         -1.12910       -0.06050        6.45310
H         -0.79410        0.40790       10.15120
H         -1.38550       -1.04250        9.31410
H          1.53730        0.22050        9.80340
H         -2.35840        1.05130       -0.50820
H         -2.53960        0.51730       -2.12260
