37
rmsd117.gzmat
C          0.00000        0.00000        0.00000
C          1.42300        0.00000        0.00000
C          2.14920        0.00000        1.16490
C          1.44640       -0.00690        2.38660
C         -0.03370       -0.00500        2.41290
C         -0.71850        0.00040        1.23120
C         -0.40770       -0.01170        3.78860
C          0.75670       -0.01700        4.55780
N          1.88260       -0.01940        3.65900
H          2.85590       -0.00280        4.08120
C          1.00850       -0.01690        5.94600
C         -0.06970       -0.05280        6.86010
C          0.12940       -0.02690        8.22270
C         -1.00160       -0.11700        9.18260
C         -2.27800        0.69910        8.73900
O         -2.77270        0.39870        7.64430
O         -2.68570        1.51850        9.56820
C          1.45610        0.05550        8.72100
C          2.51680        0.07520        7.85930
C          2.36590        0.02990        6.43290
O          3.34870        0.02880        5.65970
Br         4.29020        0.16640        8.54590
C         -0.71400        0.00730       -1.22830
N         -0.19150       -0.53940       -2.37300
H         -0.61510       -0.43880       -3.26850
H          0.69860       -1.00660       -2.34260
N         -1.96020        0.56360       -1.33320
H          1.95140        0.03530       -0.95030
H          3.23500        0.01270        1.16360
H         -1.80450       -0.02910        1.23660
H         -1.40830       -0.00080        4.16960
H         -1.10180       -0.09390        6.47310
H         -0.72420        0.24530       10.18580
H         -1.33640       -1.16210        9.29400
H          1.59950        0.10160        9.80100
H         -2.37610        1.00820       -0.52690
H         -2.53820        0.46300       -2.13830
