rmsd113.gzmat
 OpenBabel08211713363D

 37 39  0  0  1  0  0  0  0  0999 V2000
    0.0000    0.0000    0.0000 C   0  0  0  0  0  0  0  0  0  0  0  0
    1.4225    0.0000    0.0000 C   0  0  0  0  0  0  0  0  0  0  0  0
    2.1477    0.0000    1.1664 C   0  0  0  0  0  0  0  0  0  0  0  0
    1.4446   -0.0102    2.3877 C   0  0  0  0  0  0  0  0  0  0  0  0
   -0.0353   -0.0155    2.4114 C   0  0  0  0  0  0  0  0  0  0  0  0
   -0.7196   -0.0102    1.2296 C   0  0  0  0  0  0  0  0  0  0  0  0
   -0.4147   -0.0210    3.7845 C   0  0  0  0  0  0  0  0  0  0  0  0
    0.7473   -0.0150    4.5571 C   0  0  0  0  0  0  0  0  0  0  0  0
    1.8763   -0.0185    3.6629 N   0  0  0  0  0  0  0  0  0  0  0  0
    2.8458    0.0042    4.0873 H   0  0  0  0  0  0  0  0  0  0  0  0
    0.9869    0.0060    5.9468 C   0  0  2  0  0  0  0  0  0  0  0  0
   -0.1011   -0.0077    6.8499 C   0  0  0  0  0  0  0  0  0  0  0  0
    0.0835    0.0571    8.2128 C   0  0  0  0  0  0  0  0  0  0  0  0
   -1.0584   -0.0001    9.1623 C   0  0  0  0  0  0  0  0  0  0  0  0
   -2.3377    0.7846    8.6728 C   0  0  0  0  0  0  0  0  0  0  0  0
   -2.8199    0.4342    7.5872 O   0  0  0  0  0  0  0  0  0  0  0  0
   -2.7615    1.6343    9.4626 O   0  0  0  0  0  0  0  0  0  0  0  0
    1.4056    0.1460    8.7232 C   0  0  0  0  0  0  0  0  0  0  0  0
    2.4755    0.1353    7.8727 C   0  0  0  0  0  0  0  0  0  0  0  0
    2.3394    0.0613    6.4454 C   0  0  0  0  0  0  0  0  0  0  0  0
    3.3272    0.0472    5.6795 O   0  0  0  0  0  0  0  0  0  0  0  0
    4.2416    0.2218    8.5792 Br  0  0  0  0  0  0  0  0  0  0  0  0
   -0.7198    0.0235   -1.2251 C   0  0  0  0  0  0  0  0  0  0  0  0
   -0.2121   -0.5267   -2.3741 N   0  0  0  0  0  0  0  0  0  0  0  0
   -0.6399   -0.4180   -3.2667 H   0  0  0  0  0  0  0  0  0  0  0  0
    0.6738   -1.0022   -2.3499 H   0  0  0  0  0  0  0  0  0  0  0  0
   -1.9563    0.6015   -1.3194 N   0  0  0  0  0  0  0  0  0  0  0  0
    1.9519    0.0373   -0.9496 H   0  0  0  0  0  0  0  0  0  0  0  0
    3.2334    0.0180    1.1648 H   0  0  0  0  0  0  0  0  0  0  0  0
   -1.8050   -0.0463    1.2361 H   0  0  0  0  0  0  0  0  0  0  0  0
   -1.4167   -0.0130    4.1624 H   0  0  0  0  0  0  0  0  0  0  0  0
   -1.1291   -0.0605    6.4531 H   0  0  0  0  0  0  0  0  0  0  0  0
   -0.7941    0.4079   10.1512 H   0  0  0  0  0  0  0  0  0  0  0  0
   -1.3855   -1.0425    9.3141 H   0  0  0  0  0  0  0  0  0  0  0  0
    1.5373    0.2205    9.8034 H   0  0  0  0  0  0  0  0  0  0  0  0
   -2.3584    1.0513   -0.5082 H   0  0  0  0  0  0  0  0  0  0  0  0
   -2.5396    0.5173   -2.1226 H   0  0  0  0  0  0  0  0  0  0  0  0
  1  2  2  0  0  0  0
  1  6  1  0  0  0  0
  2  3  1  0  0  0  0
  3  4  2  0  0  0  0
  4  5  1  0  0  0  0
  4  9  1  0  0  0  0
  5  7  1  0  0  0  0
  6 30  1  0  0  0  0
  6  5  2  0  0  0  0
  7 31  1  0  0  0  0
  7  8  2  0  0  0  0
  9 10  1  0  0  0  0
  9  8  1  0  0  0  0
 11  8  1  6  0  0  0
 11 20  1  0  0  0  0
 11 12  1  0  0  0  0
 12 13  2  0  0  0  0
 13 18  1  0  0  0  0
 13 14  1  0  0  0  0
 14 34  1  0  0  0  0
 14 33  1  0  0  0  0
 15 14  1  0  0  0  0
 15 17  1  0  0  0  0
 16 15  2  0  0  0  0
 18 35  1  0  0  0  0
 19 22  1  0  0  0  0
 19 18  2  0  0  0  0
 20 19  1  0  0  0  0
 21 20  2  0  0  0  0
 23  1  1  0  0  0  0
 24 26  1  0  0  0  0
 24 23  2  0  0  0  0
 25 24  1  0  0  0  0
 27 23  1  0  0  0  0
 27 36  1  0  0  0  0
 28  2  1  0  0  0  0
 29  3  1  0  0  0  0
 32 12  1  0  0  0  0
 37 27  1  0  0  0  0
M  RAD  2  11   2  17   2
M  END
$$$$
