rmsd132.gzmat
 OpenBabel08211713363D

 37 39  0  0  1  0  0  0  0  0999 V2000
    0.0000    0.0000    0.0000 C   0  0  0  0  0  0  0  0  0  0  0  0
    1.4223    0.0000    0.0000 C   0  0  0  0  0  0  0  0  0  0  0  0
    2.1470    0.0000    1.1666 C   0  0  0  0  0  0  0  0  0  0  0  0
    1.4433   -0.0121    2.3876 C   0  0  0  0  0  0  0  0  0  0  0  0
   -0.0365   -0.0121    2.4114 C   0  0  0  0  0  0  0  0  0  0  0  0
   -0.7202   -0.0043    1.2293 C   0  0  0  0  0  0  0  0  0  0  0  0
   -0.4153   -0.0263    3.7849 C   0  0  0  0  0  0  0  0  0  0  0  0
    0.7466   -0.0357    4.5576 C   0  0  0  0  0  0  0  0  0  0  0  0
    1.8749   -0.0315    3.6623 N   0  0  0  0  0  0  0  0  0  0  0  0
    2.8456   -0.0177    4.0861 H   0  0  0  0  0  0  0  0  0  0  0  0
    0.9889   -0.0432    5.9473 C   0  0  2  0  0  0  0  0  0  0  0  0
   -0.0948   -0.0814    6.8556 C   0  0  0  0  0  0  0  0  0  0  0  0
    0.0969   -0.0595    8.2193 C   0  0  0  0  0  0  0  0  0  0  0  0
   -1.0350   -0.1555    9.1782 C   0  0  0  0  0  0  0  0  0  0  0  0
   -2.3292    0.6285    8.7306 C   0  0  0  0  0  0  0  0  0  0  0  0
   -2.7704    1.4238    9.5666 O   0  0  0  0  0  0  0  0  0  0  0  0
   -2.8040    0.3298    7.6268 O   0  0  0  0  0  0  0  0  0  0  0  0
    1.4214    0.0200    8.7247 C   0  0  0  0  0  0  0  0  0  0  0  0
    2.4870    0.0380    7.8693 C   0  0  0  0  0  0  0  0  0  0  0  0
    2.3441   -0.0027    6.4418 C   0  0  0  0  0  0  0  0  0  0  0  0
    3.3303   -0.0034    5.6735 O   0  0  0  0  0  0  0  0  0  0  0  0
    4.2557    0.1182    8.5694 Br  0  0  0  0  0  0  0  0  0  0  0  0
   -0.7221    0.0073   -1.2239 C   0  0  0  0  0  0  0  0  0  0  0  0
   -0.2195   -0.5615   -2.3657 N   0  0  0  0  0  0  0  0  0  0  0  0
   -0.6548   -0.4729   -3.2568 H   0  0  0  0  0  0  0  0  0  0  0  0
    0.6644   -1.0397   -2.3380 H   0  0  0  0  0  0  0  0  0  0  0  0
   -1.9591    0.5846   -1.3216 N   0  0  0  0  0  0  0  0  0  0  0  0
    1.9516    0.0352   -0.9496 H   0  0  0  0  0  0  0  0  0  0  0  0
    3.2328    0.0168    1.1654 H   0  0  0  0  0  0  0  0  0  0  0  0
   -1.8057   -0.0373    1.2345 H   0  0  0  0  0  0  0  0  0  0  0  0
   -1.4171   -0.0173    4.1625 H   0  0  0  0  0  0  0  0  0  0  0  0
   -1.1253   -0.1209    6.4632 H   0  0  0  0  0  0  0  0  0  0  0  0
   -0.7634    0.2254   10.1761 H   0  0  0  0  0  0  0  0  0  0  0  0
   -1.3492   -1.2050    9.3045 H   0  0  0  0  0  0  0  0  0  0  0  0
    1.5597    0.0639    9.8057 H   0  0  0  0  0  0  0  0  0  0  0  0
   -2.3568    1.0467   -0.5150 H   0  0  0  0  0  0  0  0  0  0  0  0
   -2.5519    0.4770   -2.1147 H   0  0  0  0  0  0  0  0  0  0  0  0
  1  2  2  0  0  0  0
  1  6  1  0  0  0  0
  2  3  1  0  0  0  0
  3  4  2  0  0  0  0
  4  5  1  0  0  0  0
  4  9  1  0  0  0  0
  5  7  1  0  0  0  0
  6 30  1  0  0  0  0
  6  5  2  0  0  0  0
  7 31  1  0  0  0  0
  7  8  2  0  0  0  0
  9 10  1  0  0  0  0
  9  8  1  0  0  0  0
 11  8  1  1  0  0  0
 11 20  1  0  0  0  0
 11 12  1  0  0  0  0
 12 13  2  0  0  0  0
 13 18  1  0  0  0  0
 13 14  1  0  0  0  0
 14 34  1  0  0  0  0
 14 33  1  0  0  0  0
 15 14  1  0  0  0  0
 15 16  1  0  0  0  0
 17 15  2  0  0  0  0
 18 35  1  0  0  0  0
 19 22  1  0  0  0  0
 19 18  2  0  0  0  0
 20 19  1  0  0  0  0
 21 20  2  0  0  0  0
 23  1  1  0  0  0  0
 24 26  1  0  0  0  0
 24 23  2  0  0  0  0
 25 24  1  0  0  0  0
 27 23  1  0  0  0  0
 27 36  1  0  0  0  0
 28  2  1  0  0  0  0
 29  3  1  0  0  0  0
 32 12  1  0  0  0  0
 37 27  1  0  0  0  0
M  RAD  2  11   2  16   2
M  END
$$$$
