37
rmsd155.gzmat
C          0.00000        0.00000        0.00000
C          1.42270        0.00000        0.00000
C          2.14900        0.00000        1.16550
C          1.44790        0.01040        2.38790
C         -0.03210        0.01350        2.41350
C         -0.71710        0.00740        1.23190
C         -0.40850        0.02530        3.78770
C          0.75480        0.02950        4.55820
N          1.88240        0.02430        3.66180
H          2.85340        0.00880        4.08420
C          0.99710        0.03700        5.94750
C         -0.08870        0.07040        6.85290
C          0.10020        0.06400        8.21680
C         -1.03890        0.15990        9.16680
C         -2.32070       -0.64330        8.71560
O         -2.73530       -1.46800        9.53650
O         -2.81370       -0.32830        7.62400
C          1.42460        0.00520        8.72540
C          2.49180       -0.01490        7.87190
C          2.35140        0.00660        6.44340
O          3.33760        0.00240        5.67530
Br         4.25990       -0.06940        8.57630
C         -0.72080       -0.01600       -1.22460
N         -0.20590        0.51560       -2.37970
H         -0.64640        0.41840       -3.26770
H          0.68650        0.97790       -2.36490
N         -1.97070       -0.56720       -1.31480
H          1.95210       -0.03470       -0.94970
H          3.23470       -0.01590        1.16290
H         -1.80260        0.04150        1.23940
H         -1.40890        0.01860        4.16940
H         -1.11920        0.09530        6.46010
H         -1.36580        1.20790        9.27390
H         -0.77130       -0.20440       10.17190
H          1.56070       -0.02050        9.80710
H         -2.38090       -1.00700       -0.50270
H         -2.55230       -0.47460       -2.11850
