rmsd166.gzmat
 OpenBabel08211713403D

 45 47  0  0  0  0  0  0  0  0999 V2000
    0.0000    0.0000    0.0000 O   0  0  0  0  0  0  0  0  0  0  0  0
    1.3811    0.0000    0.0000 N   0  0  0  0  0  0  0  0  0  0  0  0
    1.8070    0.0000    1.2596 C   0  0  0  0  0  0  0  0  0  0  0  0
    0.6571   -0.0127    2.1481 C   0  0  0  0  0  0  0  0  0  0  0  0
    0.5939   -0.0199    3.6084 C   0  0  0  0  0  0  0  0  0  0  0  0
   -0.3401    0.4624    4.2229 O   0  0  0  0  0  0  0  0  0  0  0  0
    1.6476   -0.6381    4.2625 N   0  0  0  0  0  0  0  0  0  0  0  0
    1.7137   -0.7353    5.6561 C   0  0  0  0  0  0  0  0  0  0  0  0
    0.8472   -0.1393    6.6033 C   0  0  0  0  0  0  0  0  0  0  0  0
    1.2826   -0.5065    7.8510 N   0  0  0  0  0  0  0  0  0  0  0  0
    0.6753   -0.1161    9.1078 C   0  0  0  0  0  0  0  0  0  0  0  0
    2.4031   -1.3203    7.7313 C   0  0  0  0  0  0  0  0  0  0  0  0
    2.6928   -1.4744    6.3643 C   0  0  0  0  0  0  0  0  0  0  0  0
    3.0821   -1.8807    8.8850 C   0  0  0  0  0  0  0  0  0  0  0  0
    2.7970   -1.6983   10.0476 O   0  0  0  0  0  0  0  0  0  0  0  0
    4.1056   -2.6807    8.4981 O   0  0  0  0  0  0  0  0  0  0  0  0
    4.8811   -3.2814    9.5392 C   0  0  0  0  0  0  0  0  0  0  0  0
    5.8695   -2.2680   10.0912 C   0  0  0  0  0  0  0  0  0  0  0  0
   -0.4357    0.0030    1.3052 C   0  0  0  0  0  0  0  0  0  0  0  0
   -1.8807    0.0162    1.5067 C   0  0  0  0  0  0  0  0  0  0  0  0
    3.2113    0.0293    1.6461 C   0  0  0  0  0  0  0  0  0  0  0  0
    3.6689    1.0461    2.4899 C   0  0  0  0  0  0  0  0  0  0  0  0
    5.0022    1.0613    2.8889 C   0  0  0  0  0  0  0  0  0  0  0  0
    5.8752    0.0685    2.4446 C   0  0  0  0  0  0  0  0  0  0  0  0
    5.4198   -0.9351    1.5912 C   0  0  0  0  0  0  0  0  0  0  0  0
    4.0877   -0.9552    1.1848 C   0  0  0  0  0  0  0  0  0  0  0  0
    2.4123   -1.0486    3.7370 H   0  0  0  0  0  0  0  0  0  0  0  0
   -0.0109    0.4868    6.4285 H   0  0  0  0  0  0  0  0  0  0  0  0
   -0.2312    0.4909    8.9432 H   0  0  0  0  0  0  0  0  0  0  0  0
    1.3908    0.4680    9.7231 H   0  0  0  0  0  0  0  0  0  0  0  0
    0.4041   -1.0114    9.7064 H   0  0  0  0  0  0  0  0  0  0  0  0
    3.5000   -2.0454    5.9566 H   0  0  0  0  0  0  0  0  0  0  0  0
    5.3712   -4.1084    8.9910 H   0  0  0  0  0  0  0  0  0  0  0  0
    4.2126   -3.6870   10.3202 H   0  0  0  0  0  0  0  0  0  0  0  0
    6.4315   -1.7792    9.2854 H   0  0  0  0  0  0  0  0  0  0  0  0
    6.5893   -2.7374   10.7700 H   0  0  0  0  0  0  0  0  0  0  0  0
    5.3496   -1.4782   10.6529 H   0  0  0  0  0  0  0  0  0  0  0  0
   -2.3946    0.7432    0.8554 H   0  0  0  0  0  0  0  0  0  0  0  0
   -2.1303    0.2859    2.5573 H   0  0  0  0  0  0  0  0  0  0  0  0
   -2.3377   -0.9706    1.3140 H   0  0  0  0  0  0  0  0  0  0  0  0
    2.9820    1.8201    2.8353 H   0  0  0  0  0  0  0  0  0  0  0  0
    5.3609    1.8485    3.5505 H   0  0  0  0  0  0  0  0  0  0  0  0
    6.9162    0.0795    2.7636 H   0  0  0  0  0  0  0  0  0  0  0  0
    6.1055   -1.7033    1.2382 H   0  0  0  0  0  0  0  0  0  0  0  0
    3.7290   -1.7302    0.5067 H   0  0  0  0  0  0  0  0  0  0  0  0
  1 19  1  0  0  0  0
  2  1  1  0  0  0  0
  2  3  2  0  0  0  0
  3 21  1  0  0  0  0
  3  4  1  0  0  0  0
  4  5  1  0  0  0  0
  5  6  2  0  0  0  0
  5  7  1  0  0  0  0
  7  8  1  0  0  0  0
  8 13  1  0  0  0  0
  8  9  2  0  0  0  0
  9 10  1  0  0  0  0
 10 11  1  0  0  0  0
 11 31  1  0  0  0  0
 11 30  1  0  0  0  0
 12 10  1  0  0  0  0
 12 14  1  0  0  0  0
 13 12  2  0  0  0  0
 14 15  2  0  0  0  0
 16 14  1  0  0  0  0
 16 17  1  0  0  0  0
 17 18  1  0  0  0  0
 17 34  1  0  0  0  0
 18 37  1  0  0  0  0
 18 36  1  0  0  0  0
 19 20  1  0  0  0  0
 19  4  2  0  0  0  0
 20 39  1  0  0  0  0
 21 22  2  0  0  0  0
 22 41  1  0  0  0  0
 22 23  1  0  0  0  0
 23 42  1  0  0  0  0
 24 43  1  0  0  0  0
 24 23  2  0  0  0  0
 25 24  1  0  0  0  0
 26 25  2  0  0  0  0
 26 21  1  0  0  0  0
 27  7  1  0  0  0  0
 28  9  1  0  0  0  0
 29 11  1  0  0  0  0
 32 13  1  0  0  0  0
 33 17  1  0  0  0  0
 35 18  1  0  0  0  0
 38 20  1  0  0  0  0
 40 20  1  0  0  0  0
 44 25  1  0  0  0  0
 45 26  1  0  0  0  0
M  END
$$$$
