45
rmsd219.gzmat
O          0.00000        0.00000        0.00000
N          1.38130        0.00000        0.00000
C          1.80770        0.00000        1.25910
C          0.65780        0.01060        2.14820
C          0.58560        0.00400        3.60770
O         -0.39190       -0.40800        4.20690
N          1.68210        0.51420        4.28330
C          1.77200        0.51240        5.67870
C          0.78170        0.11790        6.60910
N          1.30930        0.27440        7.86590
C          0.62170       -0.00880        9.10990
C          2.60680        0.76230        7.76760
C          2.91820        0.91700        6.40550
C          3.43350        1.03010        8.92970
O          3.13680        0.84070       10.08820
O          4.62840        1.55030        8.55470
C          5.57150        1.81420        9.59670
C          6.25560        0.52090       10.00740
C         -0.43550       -0.00320        1.30470
C         -1.88060       -0.01810        1.50630
C          3.21480       -0.02220        1.63890
C          4.07090        0.99490        1.21180
C          5.40550        0.98450        1.61200
C          5.88240       -0.03940        2.42850
C          5.02890       -1.06240        2.84100
C          3.69510       -1.06010        2.44300
H          2.48700        0.86580        3.77500
H         -0.21270       -0.24770        6.41790
H         -0.33650       -0.52540        8.92890
H          0.42380        0.92850        9.66900
H          1.24940       -0.64560        9.76960
H          3.84720        1.27210        6.01250
H          5.06710        2.31250       10.44420
H          6.25640        2.52120        9.09100
H          5.55180       -0.15320       10.51710
H          7.08900        0.70830       10.69260
H          6.64820       -0.01700        9.13520
H         -2.38510       -0.79090        0.90210
H         -2.34840        0.94930        1.25350
H         -2.12900       -0.22750        2.57140
H          3.69450        1.78790        0.56490
H          6.07560        1.77710        1.28410
H          6.92460       -0.04210        2.74370
H          5.40400       -1.86340        3.47680
H          3.02480       -1.86020        2.76020
