rmsd141.gzmat
 OpenBabel08211713403D

 45 47  0  0  0  0  0  0  0  0999 V2000
    0.0000    0.0000    0.0000 O   0  0  0  0  0  0  0  0  0  0  0  0
    1.3807    0.0000    0.0000 N   0  0  0  0  0  0  0  0  0  0  0  0
    1.8089    0.0000    1.2601 C   0  0  0  0  0  0  0  0  0  0  0  0
    0.6592   -0.0089    2.1478 C   0  0  0  0  0  0  0  0  0  0  0  0
    0.5788    0.0011    3.6065 C   0  0  0  0  0  0  0  0  0  0  0  0
   -0.3772    0.4688    4.1990 O   0  0  0  0  0  0  0  0  0  0  0  0
    1.6362   -0.5779    4.2884 N   0  0  0  0  0  0  0  0  0  0  0  0
    1.6849   -0.6340    5.6851 C   0  0  0  0  0  0  0  0  0  0  0  0
    0.7422   -0.1122    6.6030 C   0  0  0  0  0  0  0  0  0  0  0  0
    1.1901   -0.4030    7.8666 N   0  0  0  0  0  0  0  0  0  0  0  0
    0.5213   -0.0466    9.1021 C   0  0  0  0  0  0  0  0  0  0  0  0
    2.3937   -1.0933    7.7852 C   0  0  0  0  0  0  0  0  0  0  0  0
    2.7235   -1.2477    6.4273 C   0  0  0  0  0  0  0  0  0  0  0  0
    3.1127   -1.5496    8.9601 C   0  0  0  0  0  0  0  0  0  0  0  0
    2.7822   -1.3937   10.1144 O   0  0  0  0  0  0  0  0  0  0  0  0
    4.2406   -2.2118    8.6032 O   0  0  0  0  0  0  0  0  0  0  0  0
    5.0587   -2.7092    9.6661 C   0  0  0  0  0  0  0  0  0  0  0  0
    5.8826   -1.5774   10.2562 C   0  0  0  0  0  0  0  0  0  0  0  0
   -0.4345    0.0039    1.3046 C   0  0  0  0  0  0  0  0  0  0  0  0
   -1.8788    0.0147    1.5106 C   0  0  0  0  0  0  0  0  0  0  0  0
    3.2190    0.0283    1.6255 C   0  0  0  0  0  0  0  0  0  0  0  0
    4.1072   -0.8878    1.0565 C   0  0  0  0  0  0  0  0  0  0  0  0
    5.4549   -0.8504    1.4070 C   0  0  0  0  0  0  0  0  0  0  0  0
    5.9129    0.0967    2.3212 C   0  0  0  0  0  0  0  0  0  0  0  0
    5.0257    1.0130    2.8854 C   0  0  0  0  0  0  0  0  0  0  0  0
    3.6791    0.9863    2.5349 C   0  0  0  0  0  0  0  0  0  0  0  0
    2.4215   -0.9765    3.7844 H   0  0  0  0  0  0  0  0  0  0  0  0
   -0.1731    0.4178    6.4002 H   0  0  0  0  0  0  0  0  0  0  0  0
   -0.4706    0.3953    8.9072 H   0  0  0  0  0  0  0  0  0  0  0  0
    1.1297    0.6783    9.6811 H   0  0  0  0  0  0  0  0  0  0  0  0
    0.3926   -0.9396    9.7504 H   0  0  0  0  0  0  0  0  0  0  0  0
    3.5942   -1.7389    6.0475 H   0  0  0  0  0  0  0  0  0  0  0  0
    5.6747   -3.4556    9.1295 H   0  0  0  0  0  0  0  0  0  0  0  0
    4.4266   -3.2099   10.4214 H   0  0  0  0  0  0  0  0  0  0  0  0
    6.4055   -1.0137    9.4729 H   0  0  0  0  0  0  0  0  0  0  0  0
    6.6323   -1.9520   10.9612 H   0  0  0  0  0  0  0  0  0  0  0  0
    5.2433   -0.8650   10.7985 H   0  0  0  0  0  0  0  0  0  0  0  0
   -2.4173    0.6191    0.7629 H   0  0  0  0  0  0  0  0  0  0  0  0
   -2.1295    0.4292    2.5132 H   0  0  0  0  0  0  0  0  0  0  0  0
   -2.3089   -1.0026    1.4783 H   0  0  0  0  0  0  0  0  0  0  0  0
    3.7443   -1.6219    0.3365 H   0  0  0  0  0  0  0  0  0  0  0  0
    6.1508   -1.5584    0.9605 H   0  0  0  0  0  0  0  0  0  0  0  0
    6.9670    0.1242    2.5926 H   0  0  0  0  0  0  0  0  0  0  0  0
    5.3848    1.7519    3.6006 H   0  0  0  0  0  0  0  0  0  0  0  0
    2.9845    1.7091    2.9654 H   0  0  0  0  0  0  0  0  0  0  0  0
  1 19  1  0  0  0  0
  2  1  1  0  0  0  0
  2  3  2  0  0  0  0
  3 21  1  0  0  0  0
  3  4  1  0  0  0  0
  4  5  1  0  0  0  0
  5  6  2  0  0  0  0
  5  7  1  0  0  0  0
  7  8  1  0  0  0  0
  8 13  1  0  0  0  0
  8  9  2  0  0  0  0
  9 10  1  0  0  0  0
 10 11  1  0  0  0  0
 11 30  1  0  0  0  0
 11 31  1  0  0  0  0
 12 10  1  0  0  0  0
 12 14  1  0  0  0  0
 13 12  2  0  0  0  0
 14 15  2  0  0  0  0
 16 14  1  0  0  0  0
 16 17  1  0  0  0  0
 17 18  1  0  0  0  0
 17 34  1  0  0  0  0
 18 37  1  0  0  0  0
 18 36  1  0  0  0  0
 19 20  1  0  0  0  0
 19  4  2  0  0  0  0
 20 39  1  0  0  0  0
 21 26  2  0  0  0  0
 22 23  2  0  0  0  0
 22 21  1  0  0  0  0
 23 24  1  0  0  0  0
 24 43  1  0  0  0  0
 24 25  2  0  0  0  0
 25 44  1  0  0  0  0
 26 25  1  0  0  0  0
 26 45  1  0  0  0  0
 27  7  1  0  0  0  0
 28  9  1  0  0  0  0
 29 11  1  0  0  0  0
 32 13  1  0  0  0  0
 33 17  1  0  0  0  0
 35 18  1  0  0  0  0
 38 20  1  0  0  0  0
 40 20  1  0  0  0  0
 41 22  1  0  0  0  0
 42 23  1  0  0  0  0
M  END
$$$$
