45
rmsd141.gzmat
O          0.00000        0.00000        0.00000
N          1.38070        0.00000        0.00000
C          1.80890        0.00000        1.26010
C          0.65920       -0.00890        2.14780
C          0.57880        0.00110        3.60650
O         -0.37720        0.46880        4.19900
N          1.63620       -0.57790        4.28840
C          1.68490       -0.63400        5.68510
C          0.74220       -0.11220        6.60300
N          1.19010       -0.40300        7.86660
C          0.52130       -0.04660        9.10210
C          2.39370       -1.09330        7.78520
C          2.72350       -1.24770        6.42730
C          3.11270       -1.54960        8.96010
O          2.78220       -1.39370       10.11440
O          4.24060       -2.21180        8.60320
C          5.05870       -2.70920        9.66610
C          5.88260       -1.57740       10.25620
C         -0.43450        0.00390        1.30460
C         -1.87880        0.01470        1.51060
C          3.21900        0.02830        1.62550
C          4.10720       -0.88780        1.05650
C          5.45490       -0.85040        1.40700
C          5.91290        0.09670        2.32120
C          5.02570        1.01300        2.88540
C          3.67910        0.98630        2.53490
H          2.42150       -0.97650        3.78440
H         -0.17310        0.41780        6.40020
H         -0.47060        0.39530        8.90720
H          1.12970        0.67830        9.68110
H          0.39260       -0.93960        9.75040
H          3.59420       -1.73890        6.04750
H          5.67470       -3.45560        9.12950
H          4.42660       -3.20990       10.42140
H          6.40550       -1.01370        9.47290
H          6.63230       -1.95200       10.96120
H          5.24330       -0.86500       10.79850
H         -2.41730        0.61910        0.76290
H         -2.12950        0.42920        2.51320
H         -2.30890       -1.00260        1.47830
H          3.74430       -1.62190        0.33650
H          6.15080       -1.55840        0.96050
H          6.96700        0.12420        2.59260
H          5.38480        1.75190        3.60060
H          2.98450        1.70910        2.96540
