rmsd208.gzmat
 OpenBabel08211713403D

 45 47  0  0  0  0  0  0  0  0999 V2000
    0.0000    0.0000    0.0000 O   0  0  0  0  0  0  0  0  0  0  0  0
    1.3807    0.0000    0.0000 N   0  0  0  0  0  0  0  0  0  0  0  0
    1.8089    0.0000    1.2601 C   0  0  0  0  0  0  0  0  0  0  0  0
    0.6589   -0.0082    2.1480 C   0  0  0  0  0  0  0  0  0  0  0  0
    0.5795    0.0176    3.6068 C   0  0  0  0  0  0  0  0  0  0  0  0
   -0.3721    0.5005    4.1941 O   0  0  0  0  0  0  0  0  0  0  0  0
    1.6336   -0.5614    4.2950 N   0  0  0  0  0  0  0  0  0  0  0  0
    1.7138   -0.5465    5.6915 C   0  0  0  0  0  0  0  0  0  0  0  0
    0.7206   -0.1241    6.6070 C   0  0  0  0  0  0  0  0  0  0  0  0
    1.2284   -0.2834    7.8712 N   0  0  0  0  0  0  0  0  0  0  0  0
    0.5414    0.0455    9.1044 C   0  0  0  0  0  0  0  0  0  0  0  0
    2.5190   -0.7939    7.7926 C   0  0  0  0  0  0  0  0  0  0  0  0
    2.8438   -0.9659    6.4356 C   0  0  0  0  0  0  0  0  0  0  0  0
    3.3214   -1.0599    8.9719 C   0  0  0  0  0  0  0  0  0  0  0  0
    2.9918   -0.8789   10.1231 O   0  0  0  0  0  0  0  0  0  0  0  0
    4.5330   -1.5615    8.6273 O   0  0  0  0  0  0  0  0  0  0  0  0
    5.4560   -1.7974    9.6947 C   0  0  0  0  0  0  0  0  0  0  0  0
    6.0795   -0.4819   10.1308 C   0  0  0  0  0  0  0  0  0  0  0  0
   -0.4344    0.0030    1.3045 C   0  0  0  0  0  0  0  0  0  0  0  0
   -1.8788    0.0084    1.5100 C   0  0  0  0  0  0  0  0  0  0  0  0
    3.2186    0.0189    1.6282 C   0  0  0  0  0  0  0  0  0  0  0  0
    4.1007   -0.9009    1.0547 C   0  0  0  0  0  0  0  0  0  0  0  0
    5.4425   -0.8948    1.4285 C   0  0  0  0  0  0  0  0  0  0  0  0
    5.9029    0.0305    2.3638 C   0  0  0  0  0  0  0  0  0  0  0  0
    5.0253    0.9610    2.9199 C   0  0  0  0  0  0  0  0  0  0  0  0
    3.6835    0.9616    2.5504 C   0  0  0  0  0  0  0  0  0  0  0  0
    2.4185   -0.9654    3.7946 H   0  0  0  0  0  0  0  0  0  0  0  0
   -0.2626    0.2631    6.4014 H   0  0  0  0  0  0  0  0  0  0  0  0
   -0.4864    0.3957    8.9086 H   0  0  0  0  0  0  0  0  0  0  0  0
    1.0887    0.8362    9.6582 H   0  0  0  0  0  0  0  0  0  0  0  0
    0.4974   -0.8372    9.7766 H   0  0  0  0  0  0  0  0  0  0  0  0
    3.7712   -1.3391    6.0554 H   0  0  0  0  0  0  0  0  0  0  0  0
    6.1798   -2.4768    9.2057 H   0  0  0  0  0  0  0  0  0  0  0  0
    4.9452   -2.3183   10.5247 H   0  0  0  0  0  0  0  0  0  0  0  0
    6.5050    0.0614    9.2778 H   0  0  0  0  0  0  0  0  0  0  0  0
    6.8755   -0.6388   10.8664 H   0  0  0  0  0  0  0  0  0  0  0  0
    5.3281    0.1751   10.5936 H   0  0  0  0  0  0  0  0  0  0  0  0
   -2.4300    0.5221    0.7061 H   0  0  0  0  0  0  0  0  0  0  0  0
   -2.1371    0.5131    2.4682 H   0  0  0  0  0  0  0  0  0  0  0  0
   -2.2872   -1.0162    1.5824 H   0  0  0  0  0  0  0  0  0  0  0  0
    3.7382   -1.6142    0.3133 H   0  0  0  0  0  0  0  0  0  0  0  0
    6.1310   -1.6122    0.9858 H   0  0  0  0  0  0  0  0  0  0  0  0
    6.9511    0.0285    2.6585 H   0  0  0  0  0  0  0  0  0  0  0  0
    5.3876    1.6874    3.6464 H   0  0  0  0  0  0  0  0  0  0  0  0
    2.9964    1.6923    2.9806 H   0  0  0  0  0  0  0  0  0  0  0  0
  1 19  1  0  0  0  0
  2  1  1  0  0  0  0
  2  3  2  0  0  0  0
  3 21  1  0  0  0  0
  3  4  1  0  0  0  0
  4  5  1  0  0  0  0
  5  6  2  0  0  0  0
  5  7  1  0  0  0  0
  7  8  1  0  0  0  0
  8 13  1  0  0  0  0
  8  9  2  0  0  0  0
  9 10  1  0  0  0  0
 10 11  1  0  0  0  0
 11 30  1  0  0  0  0
 11 31  1  0  0  0  0
 12 10  1  0  0  0  0
 12 14  1  0  0  0  0
 13 12  2  0  0  0  0
 14 15  2  0  0  0  0
 16 14  1  0  0  0  0
 16 17  1  0  0  0  0
 17 18  1  0  0  0  0
 17 34  1  0  0  0  0
 18 37  1  0  0  0  0
 18 36  1  0  0  0  0
 19 20  1  0  0  0  0
 19  4  2  0  0  0  0
 20 40  1  0  0  0  0
 20 39  1  0  0  0  0
 21 26  2  0  0  0  0
 22 23  2  0  0  0  0
 22 21  1  0  0  0  0
 23 24  1  0  0  0  0
 24 43  1  0  0  0  0
 24 25  2  0  0  0  0
 25 44  1  0  0  0  0
 26 25  1  0  0  0  0
 26 45  1  0  0  0  0
 27  7  1  0  0  0  0
 28  9  1  0  0  0  0
 29 11  1  0  0  0  0
 32 13  1  0  0  0  0
 33 17  1  0  0  0  0
 35 18  1  0  0  0  0
 38 20  1  0  0  0  0
 41 22  1  0  0  0  0
 42 23  1  0  0  0  0
M  END
$$$$
