45
rmsd59.gzmat
O          0.00000        0.00000        0.00000
N          1.38140        0.00000        0.00000
C          1.80800        0.00000        1.25960
C          0.65760       -0.01150        2.14750
C          0.59530       -0.00190        3.60740
O         -0.33930        0.48580        4.21700
N          1.65420       -0.60530        4.26680
C          1.75760       -0.62880        5.66100
C          0.86050       -0.07220        6.60320
N          1.36530       -0.32420        7.85360
C          0.75160        0.06590        9.10740
C          2.55680       -1.03080        7.73970
C          2.82310       -1.23030        6.37400
C          3.32420       -1.45620        8.89560
O          3.06940       -1.22150       10.05600
O          4.40930       -2.17380        8.51300
C          5.21780       -2.72350        9.55730
C          4.53600       -3.94760       10.14530
C         -0.43550        0.00230        1.30470
C         -1.87990        0.01040        1.51160
C          3.21300        0.02820        1.64550
C          4.09370       -0.94290        1.16390
C          5.42820       -0.92100        1.56370
C          5.88100        0.06880        2.43460
C          5.00260        1.04580        2.90310
C          3.66830        1.03090        2.50720
H          2.42000       -1.01760        3.74390
H         -0.05950        0.45710        6.42390
H         -0.17320        0.64270        8.93840
H          1.45190        0.68060        9.71130
H          0.50950       -0.82760        9.71920
H          3.67190       -1.73980        5.96960
H          5.42430       -1.94870       10.31750
H          6.14310       -2.97110        9.00320
H          3.62390       -3.66520       10.69170
H          5.19180       -4.47460       10.84640
H          4.23940       -4.65560        9.36100
H         -2.41920        0.62140        0.76920
H         -2.13050        0.41550        2.51790
H         -2.30860       -1.00760        1.47000
H          3.73650       -1.70870        0.47490
H          6.11760       -1.67680        1.19200
H          6.92380        0.08170        2.74770
H          5.35840        1.82050        3.58120
H          2.97880        1.79490        2.86930
