45
rmsd72.gzmat
O          0.00000        0.00000        0.00000
N          1.38100        0.00000        0.00000
C          1.80800        0.00000        1.25950
C          0.65870       -0.00980        2.14850
C          0.57680       -0.00850        3.60720
O         -0.41650        0.37850        4.19730
N          1.67540       -0.49700        4.29500
C          1.73350       -0.52240        5.69220
C          0.70700       -0.18410        6.60610
N          1.20460       -0.36430        7.87170
C          0.47870       -0.13630        9.10530
C          2.51970       -0.80740        7.79540
C          2.87290       -0.91070        6.43860
C          3.31660       -1.08760        8.97520
O          2.95640       -0.99530       10.12760
O          4.56390       -1.48840        8.62540
C          5.48060       -1.74900        9.69200
C          5.95160       -0.44210       10.30740
C         -0.43480        0.00140        1.30470
C         -1.87980        0.00640        1.50700
C          3.21700        0.01680        1.63230
C          3.70580        1.04560        2.44320
C          5.04400        1.04320        2.82640
C          5.89300        0.02450        2.39390
C          5.40770       -0.98940        1.56960
C          4.06900       -0.99510        1.18400
H          2.49590       -0.82640        3.79710
H         -0.29210        0.15960        6.39870
H         -0.52620        0.27390        8.90850
H          1.03040        0.56930        9.76130
H          0.37530       -1.08130        9.67770
H          3.82370       -1.22360        6.06140
H          6.28500       -2.28400        9.15200
H          5.00680       -2.41770       10.43240
H          6.24970        0.27710        9.53430
H          6.80690       -0.59600       10.97330
H          5.15100        0.02700       10.89800
H         -2.38530        0.80160        0.93360
H         -2.12860        0.17500        2.57930
H         -2.34640       -0.95090        1.21760
H          3.03970        1.84310        2.77560
H          5.42640        1.83750        3.46630
H          6.93840        0.02340        2.69820
H          6.07480       -1.77660        1.22240
H          3.68600       -1.78020        0.53140
