rmsd35.gzmat
 OpenBabel08211713403D

 45 47  0  0  0  0  0  0  0  0999 V2000
    0.0000    0.0000    0.0000 O   0  0  0  0  0  0  0  0  0  0  0  0
    1.3813    0.0000    0.0000 N   0  0  0  0  0  0  0  0  0  0  0  0
    1.8081    0.0000    1.2594 C   0  0  0  0  0  0  0  0  0  0  0  0
    0.6587   -0.0098    2.1483 C   0  0  0  0  0  0  0  0  0  0  0  0
    0.5763    0.0007    3.6067 C   0  0  0  0  0  0  0  0  0  0  0  0
   -0.4232    0.3790    4.1925 O   0  0  0  0  0  0  0  0  0  0  0  0
    1.6807   -0.4674    4.2994 N   0  0  0  0  0  0  0  0  0  0  0  0
    1.7409   -0.4649    5.6970 C   0  0  0  0  0  0  0  0  0  0  0  0
    0.6806   -0.2256    6.6032 C   0  0  0  0  0  0  0  0  0  0  0  0
    1.1888   -0.3323    7.8726 N   0  0  0  0  0  0  0  0  0  0  0  0
    0.4405   -0.1388    9.0987 C   0  0  0  0  0  0  0  0  0  0  0  0
    2.5456   -0.6286    7.8066 C   0  0  0  0  0  0  0  0  0  0  0  0
    2.9125   -0.7173    6.4523 C   0  0  0  0  0  0  0  0  0  0  0  0
    3.3643   -0.7926    8.9936 C   0  0  0  0  0  0  0  0  0  0  0  0
    2.9865   -0.7376   10.1428 O   0  0  0  0  0  0  0  0  0  0  0  0
    4.6566   -1.0296    8.6582 O   0  0  0  0  0  0  0  0  0  0  0  0
    5.5858   -1.1682    9.7369 C   0  0  0  0  0  0  0  0  0  0  0  0
    5.9369    0.1992   10.2989 C   0  0  0  0  0  0  0  0  0  0  0  0
   -0.4349    0.0002    1.3044 C   0  0  0  0  0  0  0  0  0  0  0  0
   -1.8799    0.0032    1.5070 C   0  0  0  0  0  0  0  0  0  0  0  0
    3.2169    0.0201    1.6338 C   0  0  0  0  0  0  0  0  0  0  0  0
    3.7118    1.0795    2.4005 C   0  0  0  0  0  0  0  0  0  0  0  0
    5.0492    1.0838    2.7862 C   0  0  0  0  0  0  0  0  0  0  0  0
    5.8915    0.0419    2.3984 C   0  0  0  0  0  0  0  0  0  0  0  0
    5.3982   -1.0067    1.6238 C   0  0  0  0  0  0  0  0  0  0  0  0
    4.0604   -1.0190    1.2355 C   0  0  0  0  0  0  0  0  0  0  0  0
    2.5086   -0.7847    3.8064 H   0  0  0  0  0  0  0  0  0  0  0  0
   -0.3479    0.0077    6.3871 H   0  0  0  0  0  0  0  0  0  0  0  0
   -0.6343    0.0022    8.8936 H   0  0  0  0  0  0  0  0  0  0  0  0
    0.8181    0.7451    9.6525 H   0  0  0  0  0  0  0  0  0  0  0  0
    0.5631   -1.0116    9.7745 H   0  0  0  0  0  0  0  0  0  0  0  0
    3.8921   -0.9337    6.0819 H   0  0  0  0  0  0  0  0  0  0  0  0
    6.4372   -1.6536    9.2234 H   0  0  0  0  0  0  0  0  0  0  0  0
    5.1685   -1.8440   10.5048 H   0  0  0  0  0  0  0  0  0  0  0  0
    6.2345    0.8952    9.5053 H   0  0  0  0  0  0  0  0  0  0  0  0
    6.7586    0.1370   11.0200 H   0  0  0  0  0  0  0  0  0  0  0  0
    5.0750    0.6446   10.8176 H   0  0  0  0  0  0  0  0  0  0  0  0
   -2.4161    0.6380    0.7831 H   0  0  0  0  0  0  0  0  0  0  0  0
   -2.1344    0.3752    2.5255 H   0  0  0  0  0  0  0  0  0  0  0  0
   -2.3100   -1.0116    1.4312 H   0  0  0  0  0  0  0  0  0  0  0  0
    3.0510    1.8957    2.6946 H   0  0  0  0  0  0  0  0  0  0  0  0
    5.4366    1.9012    3.3930 H   0  0  0  0  0  0  0  0  0  0  0  0
    6.9380    0.0501    2.6991 H   0  0  0  0  0  0  0  0  0  0  0  0
    6.0586   -1.8167    1.3188 H   0  0  0  0  0  0  0  0  0  0  0  0
    3.6720   -1.8302    0.6195 H   0  0  0  0  0  0  0  0  0  0  0  0
  1 19  1  0  0  0  0
  2  1  1  0  0  0  0
  2  3  2  0  0  0  0
  3 21  1  0  0  0  0
  3  4  1  0  0  0  0
  4  5  1  0  0  0  0
  5  6  2  0  0  0  0
  5  7  1  0  0  0  0
  7  8  1  0  0  0  0
  8 13  1  0  0  0  0
  8  9  2  0  0  0  0
  9 10  1  0  0  0  0
 10 11  1  0  0  0  0
 11 30  1  0  0  0  0
 11 31  1  0  0  0  0
 12 10  1  0  0  0  0
 12 14  1  0  0  0  0
 13 12  2  0  0  0  0
 14 15  2  0  0  0  0
 16 14  1  0  0  0  0
 16 17  1  0  0  0  0
 17 18  1  0  0  0  0
 17 34  1  0  0  0  0
 18 37  1  0  0  0  0
 18 36  1  0  0  0  0
 19 20  1  0  0  0  0
 19  4  2  0  0  0  0
 20 39  1  0  0  0  0
 21 22  2  0  0  0  0
 22 41  1  0  0  0  0
 22 23  1  0  0  0  0
 23 42  1  0  0  0  0
 24 43  1  0  0  0  0
 24 23  2  0  0  0  0
 25 24  1  0  0  0  0
 26 25  2  0  0  0  0
 26 21  1  0  0  0  0
 27  7  1  0  0  0  0
 28  9  1  0  0  0  0
 29 11  1  0  0  0  0
 32 13  1  0  0  0  0
 33 17  1  0  0  0  0
 35 18  1  0  0  0  0
 38 20  1  0  0  0  0
 40 20  1  0  0  0  0
 44 25  1  0  0  0  0
 45 26  1  0  0  0  0
M  END
$$$$
