45

O          0.11990        0.30580        0.03780
N          1.49240        0.12990        0.07310
C          1.81500        0.03710        1.34420
C          0.64540        0.15000        2.18380
C          0.45630        0.02920        3.65380
O         -0.54670        0.45050        4.21970
N          1.46150       -0.61430        4.32100
C          1.53790       -0.79460        5.70530
C          0.58600       -0.45800        6.67100
N          1.08070       -0.80110        7.89710
C          0.36490       -0.59990        9.14710
C          2.33760       -1.35580        7.74220
C          2.64350       -1.36000        6.38050
C          3.13840       -1.82550        8.86830
O          2.80490       -1.78490       10.03750
O          4.32230       -2.32460        8.45100
C          5.21880       -2.80430        9.46360
C          6.02630       -1.67430       10.07920
C         -0.38040        0.32680        1.28050
C         -1.84520        0.51180        1.42700
C          3.23450       -0.14970        1.71470
C          3.81940        0.60380        2.74790
C          5.16060        0.41530        3.08540
C          5.93480       -0.51880        2.39060
C          5.36450       -1.25910        1.35070
C          4.02290       -1.07690        1.01280
H          2.25160       -0.95290        3.78520
H         -0.38830       -0.00110        6.54280
H         -0.60340       -0.13800        8.91510
H          0.93460        0.05190        9.82270
H          0.20600       -1.55550        9.66440
H          3.56890       -1.73080        5.94720
H          5.86830       -3.52310        8.94350
H          4.64000       -3.33500       10.23400
H          6.57070       -1.11430        9.30290
H          6.76110       -2.08070       10.79250
H          5.36770       -0.98090       10.62170
H         -2.14040        1.50330        1.04660
H         -2.11270        0.44500        2.48730
H         -2.39020       -0.24440        0.84060
H          3.22250        1.34410        3.28340
H          5.60350        1.00620        3.89020
H          6.98370       -0.66700        2.65760
H          5.96740       -1.98610        0.80160
H          3.56830       -1.65080        0.20370
