45

O          0.10360        0.13650        0.02150
N          1.48030       -0.00320        0.05570
C          1.81400       -0.01050        1.32730
C          0.64790        0.12460        2.16850
C          0.47210        0.08810        3.64460
O         -0.53870        0.51500        4.19240
N          1.49920       -0.48590        4.34130
C          1.58830       -0.58210        5.73320
C          0.63360       -0.21340        6.68430
N          1.14340       -0.47250        7.92490
C          0.43010       -0.21560        9.16600
C          2.41310       -1.00370        7.79370
C          2.71160       -1.07950        6.43240
C          3.23050       -1.38960        8.93950
O          2.90020       -1.29460       10.10650
O          4.42770       -1.87430        8.54410
C          5.32300       -2.31590        9.57500
C          5.00820       -3.73310       10.02240
C         -0.38830        0.22080        1.26490
C         -1.85630        0.37820        1.41220
C          3.24040       -0.13960        1.69630
C          4.04610       -1.08980        1.04690
C          5.39420       -1.21800        1.38370
C          5.95370       -0.40030        2.37000
C          5.16200        0.55670        3.01180
C          3.81410        0.69120        2.67500
H          2.29560       -0.83310        3.82060
H         -0.35260        0.21090        6.53660
H         -0.55100        0.20740        8.91430
H          0.98690        0.48890        9.79800
H          0.29830       -1.14270        9.73960
H          3.64310       -1.45300        6.01500
H          5.26720       -1.61720       10.42290
H          6.32300       -2.25230        9.12220
H          4.01900       -3.77550       10.50060
H          5.75900       -4.07340       10.75330
H          5.01960       -4.42540        9.16630
H         -2.17930        1.33600        0.97270
H         -2.11440        0.37150        2.47690
H         -2.38600       -0.42700        0.87920
H          3.59980       -1.72410        0.27940
H          6.01080       -1.96330        0.87580
H          7.00790       -0.50600        2.63650
H          5.59610        1.20750        3.77410
H          3.20300        1.44900        3.16850
