rmsd72.gzmat
 OpenBabel08211713403D

 45 47  0  0  0  0  0  0  0  0999 V2000
    0.0000    0.0000    0.0000 O   0  0  0  0  0  0  0  0  0  0  0  0
    1.3810    0.0000    0.0000 N   0  0  0  0  0  0  0  0  0  0  0  0
    1.8080    0.0000    1.2595 C   0  0  0  0  0  0  0  0  0  0  0  0
    0.6587   -0.0098    2.1485 C   0  0  0  0  0  0  0  0  0  0  0  0
    0.5768   -0.0085    3.6072 C   0  0  0  0  0  0  0  0  0  0  0  0
   -0.4165    0.3785    4.1973 O   0  0  0  0  0  0  0  0  0  0  0  0
    1.6754   -0.4970    4.2950 N   0  0  0  0  0  0  0  0  0  0  0  0
    1.7335   -0.5224    5.6922 C   0  0  0  0  0  0  0  0  0  0  0  0
    0.7070   -0.1841    6.6061 C   0  0  0  0  0  0  0  0  0  0  0  0
    1.2046   -0.3643    7.8717 N   0  0  0  0  0  0  0  0  0  0  0  0
    0.4787   -0.1363    9.1053 C   0  0  0  0  0  0  0  0  0  0  0  0
    2.5197   -0.8074    7.7954 C   0  0  0  0  0  0  0  0  0  0  0  0
    2.8729   -0.9107    6.4386 C   0  0  0  0  0  0  0  0  0  0  0  0
    3.3166   -1.0876    8.9752 C   0  0  0  0  0  0  0  0  0  0  0  0
    2.9564   -0.9953   10.1276 O   0  0  0  0  0  0  0  0  0  0  0  0
    4.5639   -1.4884    8.6254 O   0  0  0  0  0  0  0  0  0  0  0  0
    5.4806   -1.7490    9.6920 C   0  0  0  0  0  0  0  0  0  0  0  0
    5.9516   -0.4421   10.3074 C   0  0  0  0  0  0  0  0  0  0  0  0
   -0.4348    0.0014    1.3047 C   0  0  0  0  0  0  0  0  0  0  0  0
   -1.8798    0.0064    1.5070 C   0  0  0  0  0  0  0  0  0  0  0  0
    3.2170    0.0168    1.6323 C   0  0  0  0  0  0  0  0  0  0  0  0
    3.7058    1.0456    2.4432 C   0  0  0  0  0  0  0  0  0  0  0  0
    5.0440    1.0432    2.8264 C   0  0  0  0  0  0  0  0  0  0  0  0
    5.8930    0.0245    2.3939 C   0  0  0  0  0  0  0  0  0  0  0  0
    5.4077   -0.9894    1.5696 C   0  0  0  0  0  0  0  0  0  0  0  0
    4.0690   -0.9951    1.1840 C   0  0  0  0  0  0  0  0  0  0  0  0
    2.4959   -0.8264    3.7971 H   0  0  0  0  0  0  0  0  0  0  0  0
   -0.2921    0.1596    6.3987 H   0  0  0  0  0  0  0  0  0  0  0  0
   -0.5262    0.2739    8.9085 H   0  0  0  0  0  0  0  0  0  0  0  0
    1.0304    0.5693    9.7613 H   0  0  0  0  0  0  0  0  0  0  0  0
    0.3753   -1.0813    9.6777 H   0  0  0  0  0  0  0  0  0  0  0  0
    3.8237   -1.2236    6.0614 H   0  0  0  0  0  0  0  0  0  0  0  0
    6.2850   -2.2840    9.1520 H   0  0  0  0  0  0  0  0  0  0  0  0
    5.0068   -2.4177   10.4324 H   0  0  0  0  0  0  0  0  0  0  0  0
    6.2497    0.2771    9.5343 H   0  0  0  0  0  0  0  0  0  0  0  0
    6.8069   -0.5960   10.9733 H   0  0  0  0  0  0  0  0  0  0  0  0
    5.1510    0.0270   10.8980 H   0  0  0  0  0  0  0  0  0  0  0  0
   -2.3853    0.8016    0.9336 H   0  0  0  0  0  0  0  0  0  0  0  0
   -2.1286    0.1750    2.5793 H   0  0  0  0  0  0  0  0  0  0  0  0
   -2.3464   -0.9509    1.2176 H   0  0  0  0  0  0  0  0  0  0  0  0
    3.0397    1.8431    2.7756 H   0  0  0  0  0  0  0  0  0  0  0  0
    5.4264    1.8375    3.4663 H   0  0  0  0  0  0  0  0  0  0  0  0
    6.9384    0.0234    2.6982 H   0  0  0  0  0  0  0  0  0  0  0  0
    6.0748   -1.7766    1.2224 H   0  0  0  0  0  0  0  0  0  0  0  0
    3.6860   -1.7802    0.5314 H   0  0  0  0  0  0  0  0  0  0  0  0
  1 19  1  0  0  0  0
  2  1  1  0  0  0  0
  2  3  2  0  0  0  0
  3 21  1  0  0  0  0
  3  4  1  0  0  0  0
  4  5  1  0  0  0  0
  5  6  2  0  0  0  0
  5  7  1  0  0  0  0
  7  8  1  0  0  0  0
  8 13  1  0  0  0  0
  8  9  2  0  0  0  0
  9 10  1  0  0  0  0
 10 11  1  0  0  0  0
 11 31  1  0  0  0  0
 11 30  1  0  0  0  0
 12 10  1  0  0  0  0
 12 14  1  0  0  0  0
 13 12  2  0  0  0  0
 14 15  2  0  0  0  0
 16 14  1  0  0  0  0
 16 17  1  0  0  0  0
 17 18  1  0  0  0  0
 17 34  1  0  0  0  0
 18 37  1  0  0  0  0
 18 36  1  0  0  0  0
 19 20  1  0  0  0  0
 19  4  2  0  0  0  0
 20 39  1  0  0  0  0
 21 22  2  0  0  0  0
 22 41  1  0  0  0  0
 22 23  1  0  0  0  0
 23 42  1  0  0  0  0
 24 43  1  0  0  0  0
 24 23  2  0  0  0  0
 25 24  1  0  0  0  0
 26 25  2  0  0  0  0
 26 21  1  0  0  0  0
 27  7  1  0  0  0  0
 28  9  1  0  0  0  0
 29 11  1  0  0  0  0
 32 13  1  0  0  0  0
 33 17  1  0  0  0  0
 35 18  1  0  0  0  0
 38 20  1  0  0  0  0
 40 20  1  0  0  0  0
 44 25  1  0  0  0  0
 45 26  1  0  0  0  0
M  END
$$$$
