rmsd82.gzmat
 OpenBabel08211713373D

 36 37  0  0  0  0  0  0  0  0999 V2000
    0.0000    0.0000    0.0000 N   0  0  0  0  0  0  0  0  0  0  0  0
    1.4224    0.0000    0.0000 C   0  0  0  0  0  0  0  0  0  0  0  0
    1.9084    0.0000    1.2390 N   0  0  0  0  0  0  0  0  0  0  0  0
    0.8160    0.0309    2.0948 C   0  0  0  0  0  0  0  0  0  0  0  0
    0.7530    0.1423    3.5225 C   0  0  0  0  0  0  0  0  0  0  0  0
    1.6094    0.2169    4.3672 O   0  0  0  0  0  0  0  0  0  0  0  0
   -0.6098    0.1925    4.0086 N   0  0  0  0  0  0  0  0  0  0  0  0
   -0.7366    0.3110    5.0149 H   0  0  0  0  0  0  0  0  0  0  0  0
   -1.7182    0.1999    3.1682 C   0  0  0  0  0  0  0  0  0  0  0  0
   -2.9734    0.2575    3.7758 N   0  0  0  0  0  0  0  0  0  0  0  0
   -1.6582    0.0954    1.8300 N   0  0  0  0  0  0  0  0  0  0  0  0
   -0.3868    0.0290    1.3271 C   0  0  0  0  0  0  0  0  0  0  0  0
   -0.8703    0.2470   -1.1385 C   0  0  0  0  0  0  0  0  0  0  0  0
   -1.0027    1.7550   -1.4486 C   0  0  0  0  0  0  0  0  0  0  0  0
   -1.8354    2.5020   -0.3935 C   0  0  0  0  0  0  0  0  0  0  0  0
   -0.9389    3.2039    0.6336 C   0  0  0  0  0  0  0  0  0  0  0  0
   -1.7437    3.7796    1.8167 C   0  0  0  0  0  0  0  0  0  0  0  0
   -2.0821    5.0572    1.6099 F   0  0  0  0  0  0  0  0  0  0  0  0
   -2.9226    3.1766    2.0245 F   0  0  0  0  0  0  0  0  0  0  0  0
   -1.1144    3.7279    3.5696 P   0  0  0  0  0  0  0  0  0  0  0  0
   -1.8234    2.8858    4.5367 O   0  0  0  0  0  0  0  0  0  0  0  0
    0.3944    3.3083    3.2779 O   0  0  0  0  0  0  0  0  0  0  0  0
   -1.0660    5.2810    3.9069 O   0  0  0  0  0  0  0  0  0  0  0  0
    1.9941   -0.0257   -0.9095 H   0  0  0  0  0  0  0  0  0  0  0  0
   -3.0607    0.9243    4.5350 H   0  0  0  0  0  0  0  0  0  0  0  0
   -3.7566    0.2965    3.1335 H   0  0  0  0  0  0  0  0  0  0  0  0
   -1.8775   -0.1906   -0.9217 H   0  0  0  0  0  0  0  0  0  0  0  0
   -0.4669   -0.2945   -2.0246 H   0  0  0  0  0  0  0  0  0  0  0  0
   -1.4811    1.8646   -2.4416 H   0  0  0  0  0  0  0  0  0  0  0  0
    0.0000    2.2105   -1.5521 H   0  0  0  0  0  0  0  0  0  0  0  0
   -2.5145    1.7751    0.1045 H   0  0  0  0  0  0  0  0  0  0  0  0
   -2.4976    3.2406   -0.8832 H   0  0  0  0  0  0  0  0  0  0  0  0
   -0.3637    4.0214    0.1424 H   0  0  0  0  0  0  0  0  0  0  0  0
   -0.1508    2.4933    0.9797 H   0  0  0  0  0  0  0  0  0  0  0  0
    0.8693    2.9873    4.1236 H   0  0  0  0  0  0  0  0  0  0  0  0
   -1.0665    5.4050    4.9256 H   0  0  0  0  0  0  0  0  0  0  0  0
  1  2  1  0  0  0  0
  1 12  1  0  0  0  0
  2  3  2  0  0  0  0
  3  4  2  0  0  0  0
  4  5  1  0  0  0  0
  5  7  1  0  0  0  0
  5  6  2  0  0  0  0
  7  8  1  0  0  0  0
  9 10  1  0  0  0  0
  9  7  1  0  0  0  0
 10 25  1  0  0  0  0
 11  9  2  0  0  0  0
 12 11  2  0  0  0  0
 12  4  1  0  0  0  0
 13 27  1  0  0  0  0
 13  1  1  0  0  0  0
 14 13  1  0  0  0  0
 14 15  1  0  0  0  0
 15 31  1  0  0  0  0
 15 16  1  0  0  0  0
 16 34  1  0  0  0  0
 16 17  1  0  0  0  0
 17 19  1  0  0  0  0
 17 20  1  0  0  0  0
 18 17  1  0  0  0  0
 20 23  1  0  0  0  0
 20 21  2  0  0  0  0
 22 20  1  0  0  0  0
 22 35  1  0  0  0  0
 23 36  1  0  0  0  0
 24  2  1  0  0  0  0
 26 10  1  0  0  0  0
 28 13  1  0  0  0  0
 29 14  1  0  0  0  0
 30 14  1  0  0  0  0
 32 15  1  0  0  0  0
 33 16  1  0  0  0  0
M  END
$$$$
