rmsd121.gzmat
 OpenBabel08211713373D

 36 37  0  0  0  0  0  0  0  0999 V2000
    0.0000    0.0000    0.0000 N   0  0  0  0  0  0  0  0  0  0  0  0
    1.4224    0.0000    0.0000 C   0  0  0  0  0  0  0  0  0  0  0  0
    1.9082    0.0000    1.2390 N   0  0  0  0  0  0  0  0  0  0  0  0
    0.8155   -0.0267    2.0946 C   0  0  0  0  0  0  0  0  0  0  0  0
    0.7520   -0.1275    3.5225 C   0  0  0  0  0  0  0  0  0  0  0  0
    1.6087   -0.1984    4.3674 O   0  0  0  0  0  0  0  0  0  0  0  0
   -0.6103   -0.1709    4.0096 N   0  0  0  0  0  0  0  0  0  0  0  0
   -0.7374   -0.2835    5.0168 H   0  0  0  0  0  0  0  0  0  0  0  0
   -1.7191   -0.1772    3.1694 C   0  0  0  0  0  0  0  0  0  0  0  0
   -2.9759   -0.2137    3.7748 N   0  0  0  0  0  0  0  0  0  0  0  0
   -1.6586   -0.0824    1.8305 N   0  0  0  0  0  0  0  0  0  0  0  0
   -0.3875   -0.0253    1.3264 C   0  0  0  0  0  0  0  0  0  0  0  0
   -0.8730   -0.2229   -1.1412 C   0  0  0  0  0  0  0  0  0  0  0  0
   -1.0500   -1.7254   -1.4528 C   0  0  0  0  0  0  0  0  0  0  0  0
   -1.8809   -2.4576   -0.3859 C   0  0  0  0  0  0  0  0  0  0  0  0
   -0.9807   -3.2197    0.5943 C   0  0  0  0  0  0  0  0  0  0  0  0
   -1.7690   -3.8066    1.7844 C   0  0  0  0  0  0  0  0  0  0  0  0
   -2.9672   -3.2394    1.9828 F   0  0  0  0  0  0  0  0  0  0  0  0
   -2.0667   -5.0969    1.5909 F   0  0  0  0  0  0  0  0  0  0  0  0
   -1.1445   -3.7078    3.5365 P   0  0  0  0  0  0  0  0  0  0  0  0
   -1.8206   -2.7889    4.4574 O   0  0  0  0  0  0  0  0  0  0  0  0
   -1.1848   -5.2444    3.9427 O   0  0  0  0  0  0  0  0  0  0  0  0
    0.3923   -3.3849    3.2631 O   0  0  0  0  0  0  0  0  0  0  0  0
    1.9942    0.0263   -0.9093 H   0  0  0  0  0  0  0  0  0  0  0  0
   -3.0740   -0.8715    4.5396 H   0  0  0  0  0  0  0  0  0  0  0  0
   -3.7578   -0.2496    3.1306 H   0  0  0  0  0  0  0  0  0  0  0  0
   -0.4500    0.3055   -2.0262 H   0  0  0  0  0  0  0  0  0  0  0  0
   -1.8675    0.2443   -0.9283 H   0  0  0  0  0  0  0  0  0  0  0  0
   -0.0612   -2.2049   -1.5775 H   0  0  0  0  0  0  0  0  0  0  0  0
   -1.5494   -1.8181   -2.4371 H   0  0  0  0  0  0  0  0  0  0  0  0
   -2.5911   -3.1552   -0.8684 H   0  0  0  0  0  0  0  0  0  0  0  0
   -2.5113   -1.7140    0.1510 H   0  0  0  0  0  0  0  0  0  0  0  0
   -0.1590   -2.5456    0.9360 H   0  0  0  0  0  0  0  0  0  0  0  0
   -0.4485   -4.0407    0.0612 H   0  0  0  0  0  0  0  0  0  0  0  0
   -1.1419   -5.3188    4.9662 H   0  0  0  0  0  0  0  0  0  0  0  0
    0.8252   -2.9343    4.0731 H   0  0  0  0  0  0  0  0  0  0  0  0
  1  2  1  0  0  0  0
  1 12  1  0  0  0  0
  2  3  2  0  0  0  0
  3  4  2  0  0  0  0
  4  5  1  0  0  0  0
  5  7  1  0  0  0  0
  5  6  2  0  0  0  0
  7  8  1  0  0  0  0
  9 10  1  0  0  0  0
  9  7  1  0  0  0  0
 10 25  1  0  0  0  0
 11  9  2  0  0  0  0
 12 11  2  0  0  0  0
 12  4  1  0  0  0  0
 13 28  1  0  0  0  0
 13  1  1  0  0  0  0
 14 13  1  0  0  0  0
 14 15  1  0  0  0  0
 15 32  1  0  0  0  0
 15 16  1  0  0  0  0
 16 33  1  0  0  0  0
 16 17  1  0  0  0  0
 17 18  1  0  0  0  0
 17 20  1  0  0  0  0
 19 17  1  0  0  0  0
 20 22  1  0  0  0  0
 20 21  2  0  0  0  0
 22 35  1  0  0  0  0
 23 20  1  0  0  0  0
 23 36  1  0  0  0  0
 24  2  1  0  0  0  0
 26 10  1  0  0  0  0
 27 13  1  0  0  0  0
 29 14  1  0  0  0  0
 30 14  1  0  0  0  0
 31 15  1  0  0  0  0
 34 16  1  0  0  0  0
M  END
$$$$
