
     RDKit          3D

 36 37  0  0  0  0  0  0  0  0999 V2000
    0.1302   -0.0446   -0.0274 N   0  0  0  0  0  0  0  0  0  0  0  0
    1.4873    0.2658   -0.0077 C   0  0  0  0  0  0  0  0  0  0  0  0
    1.9652    0.4218    1.1956 N   0  0  0  0  0  0  0  0  0  0  0  0
    0.8895    0.2052    2.0350 C   0  0  0  0  0  0  0  0  0  0  0  0
    0.6797    0.6599    3.3748 C   0  0  0  0  0  0  0  0  0  0  0  0
    1.4194    1.3383    4.0956 O   0  0  0  0  0  0  0  0  0  0  0  0
   -0.6406    0.4165    3.7996 N   0  0  0  0  0  0  0  0  0  0  0  0
   -0.8766    0.8856    4.6755 H   0  0  0  0  0  0  0  0  0  0  0  0
   -1.6935    0.0735    2.9847 C   0  0  0  0  0  0  0  0  0  0  0  0
   -2.9261    0.0866    3.5636 N   0  0  0  0  0  0  0  0  0  0  0  0
   -1.5354   -0.2197    1.7127 N   0  0  0  0  0  0  0  0  0  0  0  0
   -0.2612   -0.1059    1.2866 C   0  0  0  0  0  0  0  0  0  0  0  0
   -0.7766    0.1906   -1.1438 C   0  0  0  0  0  0  0  0  0  0  0  0
   -1.0748    1.6822   -1.3840 C   0  0  0  0  0  0  0  0  0  0  0  0
   -1.9062    2.4056   -0.3069 C   0  0  0  0  0  0  0  0  0  0  0  0
   -1.1257    2.9526    0.8987 C   0  0  0  0  0  0  0  0  0  0  0  0
   -2.0429    3.5479    1.9571 C   0  0  0  0  0  0  0  0  0  0  0  0
   -2.5126    4.7523    1.5337 F   0  0  0  0  0  0  0  0  0  0  0  0
   -3.1461    2.7482    2.1395 F   0  0  0  0  0  0  0  0  0  0  0  0
   -1.2935    3.7181    3.6936 P   0  0  0  0  0  0  0  0  0  0  0  0
   -1.8635    2.7421    4.6775 O   0  0  0  0  0  0  0  0  0  0  0  0
    0.2870    3.6716    3.4950 O   0  0  0  0  0  0  0  0  0  0  0  0
   -1.6254    5.2659    3.9943 O   0  0  0  0  0  0  0  0  0  0  0  0
    2.0529    0.3577   -0.9362 H   0  0  0  0  0  0  0  0  0  0  0  0
   -3.0477    0.8245    4.2582 H   0  0  0  0  0  0  0  0  0  0  0  0
   -3.6788    0.0429    2.8847 H   0  0  0  0  0  0  0  0  0  0  0  0
   -1.7046   -0.3579   -0.9297 H   0  0  0  0  0  0  0  0  0  0  0  0
   -0.3256   -0.2479   -2.0470 H   0  0  0  0  0  0  0  0  0  0  0  0
   -1.6318    1.7319   -2.3345 H   0  0  0  0  0  0  0  0  0  0  0  0
   -0.1252    2.2167   -1.5617 H   0  0  0  0  0  0  0  0  0  0  0  0
   -2.6862    1.7222    0.0582 H   0  0  0  0  0  0  0  0  0  0  0  0
   -2.4289    3.2527   -0.7787 H   0  0  0  0  0  0  0  0  0  0  0  0
   -0.4288    3.7507    0.6001 H   0  0  0  0  0  0  0  0  0  0  0  0
   -0.5049    2.1819    1.3640 H   0  0  0  0  0  0  0  0  0  0  0  0
    0.7750    2.8617    3.8371 H   0  0  0  0  0  0  0  0  0  0  0  0
   -1.5566    5.4672    4.9405 H   0  0  0  0  0  0  0  0  0  0  0  0
  1  2  1  0
  1 12  1  0
  1 13  1  0
  2  3  2  0
  2 24  1  0
  3  4  1  0
  4  5  1  0
  4 12  2  0
  5  6  2  0
  5  7  1  0
  7  8  1  0
  7  9  1  0
  9 10  1  0
  9 11  2  0
 10 25  1  0
 10 26  1  0
 11 12  1  0
 13 14  1  0
 13 27  1  0
 13 28  1  0
 14 15  1  0
 14 29  1  0
 14 30  1  0
 15 16  1  0
 15 31  1  0
 15 32  1  0
 16 17  1  0
 16 33  1  0
 16 34  1  0
 17 18  1  0
 17 19  1  0
 17 20  1  0
 20 21  2  0
 20 22  1  0
 20 23  1  0
 22 35  1  0
 23 36  1  0
M  END

