36
rmsd124.gzmat
N          0.00000        0.00000        0.00000
C          1.42270        0.00000        0.00000
N          1.90760        0.00000        1.23930
C          0.81480       -0.03480        2.09480
C          0.75130       -0.11360        3.52500
O          1.60290       -0.13620        4.37450
N         -0.61630       -0.19050        4.00550
H         -0.73980       -0.29720        5.01080
C         -1.72430       -0.16300        3.16600
N         -2.98410       -0.09800        3.76640
N         -1.66050       -0.08090        1.82530
C         -0.38770       -0.03570        1.32670
C         -0.87430       -0.25840       -1.13190
C         -0.92350       -1.75940       -1.48820
C         -1.62010       -2.60790       -0.41160
C         -0.60360       -3.26470        0.52960
C         -1.23240       -4.23050        1.55100
F         -1.80370       -5.28740        0.96000
F         -0.29180       -4.76740        2.34350
P         -2.50700       -3.80340        2.83240
O         -2.39560       -2.66140        3.74170
O         -3.77180       -3.77950        1.86080
O         -2.55720       -5.22430        3.55530
H          1.99480        0.03090       -0.90900
H         -3.12160       -0.67800        4.58350
H         -3.75940       -0.17010        3.11700
H         -0.51960        0.33530       -2.00510
H         -1.90150        0.11100       -0.88330
H          0.09830       -2.13580       -1.68160
H         -1.46540       -1.86860       -2.44840
H         -2.24810       -3.38070       -0.89750
H         -2.33210       -1.96870        0.15670
H         -0.00730       -2.48330        1.05640
H          0.14490       -3.83500       -0.06860
H         -4.62850       -3.63170        2.38840
H         -2.78470       -5.09660        4.54470
