
     RDKit          3D

 36 37  0  0  0  0  0  0  0  0999 V2000
   -0.0429   -0.0233    0.0342 N   0  0  0  0  0  0  0  0  0  0  0  0
    1.3474   -0.0364    0.0470 C   0  0  0  0  0  0  0  0  0  0  0  0
    1.8478   -0.0669    1.2532 N   0  0  0  0  0  0  0  0  0  0  0  0
    0.7548   -0.0813    2.0922 C   0  0  0  0  0  0  0  0  0  0  0  0
    0.6692   -0.1142    3.5326 C   0  0  0  0  0  0  0  0  0  0  0  0
    1.5310   -0.1324    4.3867 O   0  0  0  0  0  0  0  0  0  0  0  0
   -0.7114   -0.1293    3.9293 N   0  0  0  0  0  0  0  0  0  0  0  0
   -0.8319   -0.1432    4.9379 H   0  0  0  0  0  0  0  0  0  0  0  0
   -1.8141   -0.1149    3.1092 C   0  0  0  0  0  0  0  0  0  0  0  0
   -3.0364   -0.1194    3.6970 N   0  0  0  0  0  0  0  0  0  0  0  0
   -1.7104   -0.0683    1.7971 N   0  0  0  0  0  0  0  0  0  0  0  0
   -0.4341   -0.0567    1.3515 C   0  0  0  0  0  0  0  0  0  0  0  0
   -0.9161   -0.0303   -1.1265 C   0  0  0  0  0  0  0  0  0  0  0  0
   -1.1739   -1.4326   -1.6933 C   0  0  0  0  0  0  0  0  0  0  0  0
   -1.8217   -2.4192   -0.7181 C   0  0  0  0  0  0  0  0  0  0  0  0
   -3.2164   -1.9865   -0.2601 C   0  0  0  0  0  0  0  0  0  0  0  0
   -3.8405   -2.9717    0.6966 C   0  0  0  0  0  0  0  0  0  0  0  0
   -4.0513   -4.1798    0.1019 F   0  0  0  0  0  0  0  0  0  0  0  0
   -3.0198   -3.1995    1.7745 F   0  0  0  0  0  0  0  0  0  0  0  0
   -5.4389   -2.3790    1.4456 P   0  0  0  0  0  0  0  0  0  0  0  0
   -5.3167   -1.1605    2.2964 O   0  0  0  0  0  0  0  0  0  0  0  0
   -6.3633   -2.2529    0.1347 O   0  0  0  0  0  0  0  0  0  0  0  0
   -6.0560   -3.6666    2.2036 O   0  0  0  0  0  0  0  0  0  0  0  0
    1.9164   -0.0116   -0.8832 H   0  0  0  0  0  0  0  0  0  0  0  0
   -3.1081   -0.3671    4.6747 H   0  0  0  0  0  0  0  0  0  0  0  0
   -3.8467   -0.3473    3.1128 H   0  0  0  0  0  0  0  0  0  0  0  0
   -0.4583    0.6035   -1.9013 H   0  0  0  0  0  0  0  0  0  0  0  0
   -1.8559    0.4543   -0.8252 H   0  0  0  0  0  0  0  0  0  0  0  0
   -0.2157   -1.8533   -2.0409 H   0  0  0  0  0  0  0  0  0  0  0  0
   -1.8080   -1.3197   -2.5906 H   0  0  0  0  0  0  0  0  0  0  0  0
   -1.1789   -2.5411    0.1672 H   0  0  0  0  0  0  0  0  0  0  0  0
   -1.8848   -3.4086   -1.1977 H   0  0  0  0  0  0  0  0  0  0  0  0
   -3.9042   -1.8787   -1.1140 H   0  0  0  0  0  0  0  0  0  0  0  0
   -3.1566   -1.0261    0.2732 H   0  0  0  0  0  0  0  0  0  0  0  0
   -7.1283   -1.6724    0.2719 H   0  0  0  0  0  0  0  0  0  0  0  0
   -5.8375   -3.6669    3.1476 H   0  0  0  0  0  0  0  0  0  0  0  0
  1  2  1  0
  1 12  1  0
  1 13  1  0
  2  3  2  0
  2 24  1  0
  3  4  1  0
  4  5  1  0
  4 12  2  0
  5  6  2  0
  5  7  1  0
  7  8  1  0
  7  9  1  0
  9 10  1  0
  9 11  2  0
 10 25  1  0
 10 26  1  0
 11 12  1  0
 13 14  1  0
 13 27  1  0
 13 28  1  0
 14 15  1  0
 14 29  1  0
 14 30  1  0
 15 16  1  0
 15 31  1  0
 15 32  1  0
 16 17  1  0
 16 33  1  0
 16 34  1  0
 17 18  1  0
 17 19  1  0
 17 20  1  0
 20 21  2  0
 20 22  1  0
 20 23  1  0
 22 35  1  0
 23 36  1  0
M  END

