
     RDKit          3D

 36 37  0  0  0  0  0  0  0  0999 V2000
   -0.0291    0.0296    0.0368 N   0  0  0  0  0  0  0  0  0  0  0  0
    1.3586    0.1030    0.0526 C   0  0  0  0  0  0  0  0  0  0  0  0
    1.8557    0.1090    1.2611 N   0  0  0  0  0  0  0  0  0  0  0  0
    0.7628    0.0310    2.0979 C   0  0  0  0  0  0  0  0  0  0  0  0
    0.6665    0.0119    3.5379 C   0  0  0  0  0  0  0  0  0  0  0  0
    1.5191    0.0487    4.4004 O   0  0  0  0  0  0  0  0  0  0  0  0
   -0.7170   -0.0689    3.9249 N   0  0  0  0  0  0  0  0  0  0  0  0
   -0.8418   -0.1095    4.9322 H   0  0  0  0  0  0  0  0  0  0  0  0
   -1.8126   -0.1307    3.0971 C   0  0  0  0  0  0  0  0  0  0  0  0
   -3.0336   -0.2550    3.6675 N   0  0  0  0  0  0  0  0  0  0  0  0
   -1.6985   -0.1027    1.7842 N   0  0  0  0  0  0  0  0  0  0  0  0
   -0.4204   -0.0237    1.3512 C   0  0  0  0  0  0  0  0  0  0  0  0
   -0.9283   -0.0220   -1.0996 C   0  0  0  0  0  0  0  0  0  0  0  0
   -1.3538   -1.4512   -1.5100 C   0  0  0  0  0  0  0  0  0  0  0  0
   -2.8616   -1.5588   -1.7666 C   0  0  0  0  0  0  0  0  0  0  0  0
   -3.6484   -1.5625   -0.4483 C   0  0  0  0  0  0  0  0  0  0  0  0
   -5.0896   -1.1624   -0.6086 C   0  0  0  0  0  0  0  0  0  0  0  0
   -5.1814    0.1269   -1.0797 F   0  0  0  0  0  0  0  0  0  0  0  0
   -5.7406   -1.9535   -1.5070 F   0  0  0  0  0  0  0  0  0  0  0  0
   -6.0439   -1.1582    0.9906 P   0  0  0  0  0  0  0  0  0  0  0  0
   -5.4265   -0.3667    2.0928 O   0  0  0  0  0  0  0  0  0  0  0  0
   -7.5343   -0.6852    0.5860 O   0  0  0  0  0  0  0  0  0  0  0  0
   -6.2220   -2.7377    1.2420 O   0  0  0  0  0  0  0  0  0  0  0  0
    1.9278    0.1579   -0.8763 H   0  0  0  0  0  0  0  0  0  0  0  0
   -3.1529   -0.0921    4.6571 H   0  0  0  0  0  0  0  0  0  0  0  0
   -3.8637   -0.2263    3.0666 H   0  0  0  0  0  0  0  0  0  0  0  0
   -0.4410    0.4969   -1.9380 H   0  0  0  0  0  0  0  0  0  0  0  0
   -1.8150    0.5710   -0.8291 H   0  0  0  0  0  0  0  0  0  0  0  0
   -1.0655   -2.1502   -0.7085 H   0  0  0  0  0  0  0  0  0  0  0  0
   -0.7944   -1.7630   -2.4060 H   0  0  0  0  0  0  0  0  0  0  0  0
   -3.0920   -2.4697   -2.3398 H   0  0  0  0  0  0  0  0  0  0  0  0
   -3.1878   -0.7107   -2.3914 H   0  0  0  0  0  0  0  0  0  0  0  0
   -3.1983   -0.8749    0.2871 H   0  0  0  0  0  0  0  0  0  0  0  0
   -3.6231   -2.5633    0.0119 H   0  0  0  0  0  0  0  0  0  0  0  0
   -7.6367    0.2766    0.6515 H   0  0  0  0  0  0  0  0  0  0  0  0
   -6.4204   -2.9470    2.1679 H   0  0  0  0  0  0  0  0  0  0  0  0
  1  2  1  0
  1 12  1  0
  1 13  1  0
  2  3  2  0
  2 24  1  0
  3  4  1  0
  4  5  1  0
  4 12  2  0
  5  6  2  0
  5  7  1  0
  7  8  1  0
  7  9  1  0
  9 10  1  0
  9 11  2  0
 10 25  1  0
 10 26  1  0
 11 12  1  0
 13 14  1  0
 13 27  1  0
 13 28  1  0
 14 15  1  0
 14 29  1  0
 14 30  1  0
 15 16  1  0
 15 31  1  0
 15 32  1  0
 16 17  1  0
 16 33  1  0
 16 34  1  0
 17 18  1  0
 17 19  1  0
 17 20  1  0
 20 21  2  0
 20 22  1  0
 20 23  1  0
 22 35  1  0
 23 36  1  0
M  END

