
     RDKit          3D

 36 37  0  0  0  0  0  0  0  0999 V2000
    0.0642   -0.1253    0.0707 N   0  0  0  0  0  0  0  0  0  0  0  0
    1.4520   -0.1588    0.1140 C   0  0  0  0  0  0  0  0  0  0  0  0
    1.9256   -0.0876    1.3310 N   0  0  0  0  0  0  0  0  0  0  0  0
    0.8151   -0.0118    2.1435 C   0  0  0  0  0  0  0  0  0  0  0  0
    0.6931    0.0504    3.5839 C   0  0  0  0  0  0  0  0  0  0  0  0
    1.5390    0.0751    4.4525 O   0  0  0  0  0  0  0  0  0  0  0  0
   -0.6931    0.0851    3.9404 N   0  0  0  0  0  0  0  0  0  0  0  0
   -0.8532    0.0927    4.9432 H   0  0  0  0  0  0  0  0  0  0  0  0
   -1.7642   -0.0109    3.0971 C   0  0  0  0  0  0  0  0  0  0  0  0
   -3.0106   -0.0363    3.6739 N   0  0  0  0  0  0  0  0  0  0  0  0
   -1.6418   -0.0457    1.7905 N   0  0  0  0  0  0  0  0  0  0  0  0
   -0.3540   -0.0340    1.3752 C   0  0  0  0  0  0  0  0  0  0  0  0
   -0.8044   -0.3019   -1.0782 C   0  0  0  0  0  0  0  0  0  0  0  0
   -1.0705   -1.7662   -1.4433 C   0  0  0  0  0  0  0  0  0  0  0  0
   -1.7175   -2.6217   -0.3405 C   0  0  0  0  0  0  0  0  0  0  0  0
   -0.7147   -3.2698    0.6235 C   0  0  0  0  0  0  0  0  0  0  0  0
   -1.3274   -4.3088    1.5344 C   0  0  0  0  0  0  0  0  0  0  0  0
   -2.0861   -5.1985    0.8048 F   0  0  0  0  0  0  0  0  0  0  0  0
   -0.3397   -5.0431    2.1371 F   0  0  0  0  0  0  0  0  0  0  0  0
   -2.4187   -3.7292    2.9361 P   0  0  0  0  0  0  0  0  0  0  0  0
   -1.8108   -2.7289    3.8415 O   0  0  0  0  0  0  0  0  0  0  0  0
   -3.7873   -3.2454    2.2319 O   0  0  0  0  0  0  0  0  0  0  0  0
   -2.8823   -5.1358    3.5932 O   0  0  0  0  0  0  0  0  0  0  0  0
    2.0420   -0.2258   -0.8009 H   0  0  0  0  0  0  0  0  0  0  0  0
   -3.0636   -0.6423    4.4892 H   0  0  0  0  0  0  0  0  0  0  0  0
   -3.7236   -0.2791    2.9919 H   0  0  0  0  0  0  0  0  0  0  0  0
   -0.3541    0.2227   -1.9351 H   0  0  0  0  0  0  0  0  0  0  0  0
   -1.7522    0.2016   -0.8382 H   0  0  0  0  0  0  0  0  0  0  0  0
   -0.1315   -2.2390   -1.7807 H   0  0  0  0  0  0  0  0  0  0  0  0
   -1.7376   -1.7537   -2.3212 H   0  0  0  0  0  0  0  0  0  0  0  0
   -2.2826   -3.4338   -0.8228 H   0  0  0  0  0  0  0  0  0  0  0  0
   -2.4398   -2.0135    0.2255 H   0  0  0  0  0  0  0  0  0  0  0  0
   -0.2026   -2.5329    1.2588 H   0  0  0  0  0  0  0  0  0  0  0  0
    0.0651   -3.8060    0.0566 H   0  0  0  0  0  0  0  0  0  0  0  0
   -4.1972   -3.9326    1.6825 H   0  0  0  0  0  0  0  0  0  0  0  0
   -2.1595   -5.5747    4.0680 H   0  0  0  0  0  0  0  0  0  0  0  0
  1  2  1  0
  1 12  1  0
  1 13  1  0
  2  3  2  0
  2 24  1  0
  3  4  1  0
  4  5  1  0
  4 12  2  0
  5  6  2  0
  5  7  1  0
  7  8  1  0
  7  9  1  0
  9 10  1  0
  9 11  2  0
 10 25  1  0
 10 26  1  0
 11 12  1  0
 13 14  1  0
 13 27  1  0
 13 28  1  0
 14 15  1  0
 14 29  1  0
 14 30  1  0
 15 16  1  0
 15 31  1  0
 15 32  1  0
 16 17  1  0
 16 33  1  0
 16 34  1  0
 17 18  1  0
 17 19  1  0
 17 20  1  0
 20 21  2  0
 20 22  1  0
 20 23  1  0
 22 35  1  0
 23 36  1  0
M  END

