rmsd124.gzmat
 OpenBabel08211713373D

 36 37  0  0  0  0  0  0  0  0999 V2000
    0.0000    0.0000    0.0000 N   0  0  0  0  0  0  0  0  0  0  0  0
    1.4227    0.0000    0.0000 C   0  0  0  0  0  0  0  0  0  0  0  0
    1.9076    0.0000    1.2393 N   0  0  0  0  0  0  0  0  0  0  0  0
    0.8148   -0.0348    2.0948 C   0  0  0  0  0  0  0  0  0  0  0  0
    0.7513   -0.1136    3.5250 C   0  0  0  0  0  0  0  0  0  0  0  0
    1.6029   -0.1362    4.3745 O   0  0  0  0  0  0  0  0  0  0  0  0
   -0.6163   -0.1905    4.0055 N   0  0  0  0  0  0  0  0  0  0  0  0
   -0.7398   -0.2972    5.0108 H   0  0  0  0  0  0  0  0  0  0  0  0
   -1.7243   -0.1630    3.1660 C   0  0  0  0  0  0  0  0  0  0  0  0
   -2.9841   -0.0980    3.7664 N   0  0  0  0  0  0  0  0  0  0  0  0
   -1.6605   -0.0809    1.8253 N   0  0  0  0  0  0  0  0  0  0  0  0
   -0.3877   -0.0357    1.3267 C   0  0  0  0  0  0  0  0  0  0  0  0
   -0.8743   -0.2584   -1.1319 C   0  0  0  0  0  0  0  0  0  0  0  0
   -0.9235   -1.7594   -1.4882 C   0  0  0  0  0  0  0  0  0  0  0  0
   -1.6201   -2.6079   -0.4116 C   0  0  0  0  0  0  0  0  0  0  0  0
   -0.6036   -3.2647    0.5296 C   0  0  0  0  0  0  0  0  0  0  0  0
   -1.2324   -4.2305    1.5510 C   0  0  0  0  0  0  0  0  0  0  0  0
   -1.8037   -5.2874    0.9600 F   0  0  0  0  0  0  0  0  0  0  0  0
   -0.2918   -4.7674    2.3435 F   0  0  0  0  0  0  0  0  0  0  0  0
   -2.5070   -3.8034    2.8324 P   0  0  0  0  0  0  0  0  0  0  0  0
   -2.3956   -2.6614    3.7417 O   0  0  0  0  0  0  0  0  0  0  0  0
   -3.7718   -3.7795    1.8608 O   0  0  0  0  0  0  0  0  0  0  0  0
   -2.5572   -5.2243    3.5553 O   0  0  0  0  0  0  0  0  0  0  0  0
    1.9948    0.0309   -0.9090 H   0  0  0  0  0  0  0  0  0  0  0  0
   -3.1216   -0.6780    4.5835 H   0  0  0  0  0  0  0  0  0  0  0  0
   -3.7594   -0.1701    3.1170 H   0  0  0  0  0  0  0  0  0  0  0  0
   -0.5196    0.3353   -2.0051 H   0  0  0  0  0  0  0  0  0  0  0  0
   -1.9015    0.1110   -0.8833 H   0  0  0  0  0  0  0  0  0  0  0  0
    0.0983   -2.1358   -1.6816 H   0  0  0  0  0  0  0  0  0  0  0  0
   -1.4654   -1.8686   -2.4484 H   0  0  0  0  0  0  0  0  0  0  0  0
   -2.2481   -3.3807   -0.8975 H   0  0  0  0  0  0  0  0  0  0  0  0
   -2.3321   -1.9687    0.1567 H   0  0  0  0  0  0  0  0  0  0  0  0
   -0.0073   -2.4833    1.0564 H   0  0  0  0  0  0  0  0  0  0  0  0
    0.1449   -3.8350   -0.0686 H   0  0  0  0  0  0  0  0  0  0  0  0
   -4.6285   -3.6317    2.3884 H   0  0  0  0  0  0  0  0  0  0  0  0
   -2.7847   -5.0966    4.5447 H   0  0  0  0  0  0  0  0  0  0  0  0
  1 12  1  0  0  0  0
  2  1  1  0  0  0  0
  2  3  2  0  0  0  0
  3  4  2  0  0  0  0
  4  5  1  0  0  0  0
  5  7  1  0  0  0  0
  5  6  2  0  0  0  0
  7  8  1  0  0  0  0
  9 10  1  0  0  0  0
  9  7  1  0  0  0  0
 10 25  1  0  0  0  0
 11  9  2  0  0  0  0
 12 11  2  0  0  0  0
 12  4  1  0  0  0  0
 13 28  1  0  0  0  0
 13  1  1  0  0  0  0
 14 13  1  0  0  0  0
 14 15  1  0  0  0  0
 15 32  1  0  0  0  0
 15 16  1  0  0  0  0
 16 33  1  0  0  0  0
 16 17  1  0  0  0  0
 17 19  1  0  0  0  0
 17 20  1  0  0  0  0
 18 17  1  0  0  0  0
 20 23  1  0  0  0  0
 20 21  2  0  0  0  0
 22 35  1  0  0  0  0
 22 20  1  0  0  0  0
 23 36  1  0  0  0  0
 24  2  1  0  0  0  0
 26 10  1  0  0  0  0
 27 13  1  0  0  0  0
 29 14  1  0  0  0  0
 30 14  1  0  0  0  0
 31 15  1  0  0  0  0
 34 16  1  0  0  0  0
M  END
$$$$
