36
rmsd85.gzmat
N          0.00000        0.00000        0.00000
C          1.42110        0.00000        0.00000
N          1.90490        0.00000        1.24030
C          0.81100       -0.01600        2.09400
C          0.74710       -0.02200        3.52550
O          1.59070        0.00840        4.38080
N         -0.62480       -0.08000        4.00910
H         -0.74550       -0.05610        5.01950
C         -1.73700       -0.09130        3.16430
N         -2.98620       -0.06840        3.75120
N         -1.66470       -0.06440        1.82230
C         -0.38970       -0.02550        1.32420
C         -0.88300       -0.06120       -1.15280
C         -1.07910       -1.50390       -1.65930
C         -1.79230       -2.41030       -0.64760
C         -3.21350       -1.91730       -0.35110
C         -3.96750       -2.91380        0.54480
F         -4.36780       -4.00180       -0.12370
F         -3.21560       -3.39830        1.54180
P         -5.49010       -2.42040        1.48740
O         -5.52690       -1.21080        2.31180
O         -6.56210       -2.46240        0.30730
O         -5.67000       -3.79250        2.27530
H          1.99500        0.01160       -0.90880
H         -3.09970       -0.41980        4.68260
H         -3.79190       -0.21700        3.14870
H         -0.45940        0.57450       -1.96460
H         -1.86910        0.38980       -0.87390
H         -0.09380       -1.94630       -1.90940
H         -1.64550       -1.47540       -2.61000
H         -1.19680       -2.44910        0.28940
H         -1.81060       -3.44770       -1.03510
H         -3.77070       -1.74980       -1.29800
H         -3.14580       -0.91280        0.14390
H         -7.40610       -1.96090        0.58390
H         -6.37690       -3.68920        3.00400
