rmsd105.gzmat
 OpenBabel08211713373D

 36 37  0  0  0  0  0  0  0  0999 V2000
    0.0000    0.0000    0.0000 N   0  0  0  0  0  0  0  0  0  0  0  0
    1.4212    0.0000    0.0000 C   0  0  0  0  0  0  0  0  0  0  0  0
    1.9060    0.0000    1.2403 N   0  0  0  0  0  0  0  0  0  0  0  0
    0.8125   -0.0046    2.0950 C   0  0  0  0  0  0  0  0  0  0  0  0
    0.7467    0.0051    3.5261 C   0  0  0  0  0  0  0  0  0  0  0  0
    1.5889    0.0227    4.3830 O   0  0  0  0  0  0  0  0  0  0  0  0
   -0.6284   -0.0093    4.0115 N   0  0  0  0  0  0  0  0  0  0  0  0
   -0.7460   -0.0362    5.0217 H   0  0  0  0  0  0  0  0  0  0  0  0
   -1.7380   -0.0571    3.1654 C   0  0  0  0  0  0  0  0  0  0  0  0
   -2.9808   -0.2084    3.7361 N   0  0  0  0  0  0  0  0  0  0  0  0
   -1.6617   -0.0272    1.8233 N   0  0  0  0  0  0  0  0  0  0  0  0
   -0.3872   -0.0140    1.3243 C   0  0  0  0  0  0  0  0  0  0  0  0
   -0.8931    0.0086   -1.1493 C   0  0  0  0  0  0  0  0  0  0  0  0
   -1.3277   -1.4187   -1.5481 C   0  0  0  0  0  0  0  0  0  0  0  0
   -2.8473   -1.5045   -1.7548 C   0  0  0  0  0  0  0  0  0  0  0  0
   -3.5652   -1.5231   -0.4007 C   0  0  0  0  0  0  0  0  0  0  0  0
   -5.0558   -1.1894   -0.5296 C   0  0  0  0  0  0  0  0  0  0  0  0
   -5.2727    0.0275   -1.0486 F   0  0  0  0  0  0  0  0  0  0  0  0
   -5.7072   -2.0175   -1.3538 F   0  0  0  0  0  0  0  0  0  0  0  0
   -6.1606   -1.1258    0.9637 P   0  0  0  0  0  0  0  0  0  0  0  0
   -5.8127   -0.3553    2.1586 O   0  0  0  0  0  0  0  0  0  0  0  0
   -7.5032   -0.6858    0.2276 O   0  0  0  0  0  0  0  0  0  0  0  0
   -6.2927   -2.6995    1.1828 O   0  0  0  0  0  0  0  0  0  0  0  0
    1.9947    0.0048   -0.9097 H   0  0  0  0  0  0  0  0  0  0  0  0
   -3.1458    0.0665    4.6812 H   0  0  0  0  0  0  0  0  0  0  0  0
   -3.7955   -0.2243    3.1292 H   0  0  0  0  0  0  0  0  0  0  0  0
   -0.3859    0.5163   -1.9999 H   0  0  0  0  0  0  0  0  0  0  0  0
   -1.7886    0.6338   -0.8950 H   0  0  0  0  0  0  0  0  0  0  0  0
   -1.0115   -2.1477   -0.7740 H   0  0  0  0  0  0  0  0  0  0  0  0
   -0.8021   -1.7298   -2.4693 H   0  0  0  0  0  0  0  0  0  0  0  0
   -3.0949   -2.4198   -2.3289 H   0  0  0  0  0  0  0  0  0  0  0  0
   -3.1888   -0.6629   -2.3873 H   0  0  0  0  0  0  0  0  0  0  0  0
   -3.0686   -0.7953    0.2968 H   0  0  0  0  0  0  0  0  0  0  0  0
   -3.4167   -2.5140    0.0862 H   0  0  0  0  0  0  0  0  0  0  0  0
   -8.1151   -0.1941    0.8826 H   0  0  0  0  0  0  0  0  0  0  0  0
   -6.8600   -2.9043    2.0020 H   0  0  0  0  0  0  0  0  0  0  0  0
  1  2  1  0  0  0  0
  1 12  1  0  0  0  0
  2  3  2  0  0  0  0
  3  4  2  0  0  0  0
  4  5  1  0  0  0  0
  5  7  1  0  0  0  0
  5  6  2  0  0  0  0
  7  8  1  0  0  0  0
  9 10  1  0  0  0  0
  9  7  1  0  0  0  0
 10 25  1  0  0  0  0
 11  9  2  0  0  0  0
 12 11  2  0  0  0  0
 12  4  1  0  0  0  0
 13 28  1  0  0  0  0
 13  1  1  0  0  0  0
 14 13  1  0  0  0  0
 14 29  1  0  0  0  0
 15 14  1  0  0  0  0
 15 16  1  0  0  0  0
 16 34  1  0  0  0  0
 16 33  1  0  0  0  0
 17 16  1  0  0  0  0
 17 20  1  0  0  0  0
 18 17  1  0  0  0  0
 19 17  1  0  0  0  0
 20 23  1  0  0  0  0
 20 21  2  0  0  0  0
 22 35  1  0  0  0  0
 22 20  1  0  0  0  0
 23 36  1  0  0  0  0
 24  2  1  0  0  0  0
 26 10  1  0  0  0  0
 27 13  1  0  0  0  0
 30 14  1  0  0  0  0
 31 15  1  0  0  0  0
 32 15  1  0  0  0  0
M  END
$$$$
