rmsd66.gzmat
 OpenBabel08211713373D

 36 37  0  0  0  0  0  0  0  0999 V2000
    0.0000    0.0000    0.0000 N   0  0  0  0  0  0  0  0  0  0  0  0
    1.4219    0.0000    0.0000 C   0  0  0  0  0  0  0  0  0  0  0  0
    1.9072    0.0000    1.2397 N   0  0  0  0  0  0  0  0  0  0  0  0
    0.8145   -0.0297    2.0947 C   0  0  0  0  0  0  0  0  0  0  0  0
    0.7504   -0.1253    3.5241 C   0  0  0  0  0  0  0  0  0  0  0  0
    1.6046   -0.1681    4.3716 O   0  0  0  0  0  0  0  0  0  0  0  0
   -0.6138   -0.2030    4.0054 N   0  0  0  0  0  0  0  0  0  0  0  0
   -0.7415   -0.3159    5.0116 H   0  0  0  0  0  0  0  0  0  0  0  0
   -1.7220   -0.1952    3.1652 C   0  0  0  0  0  0  0  0  0  0  0  0
   -2.9782   -0.2292    3.7722 N   0  0  0  0  0  0  0  0  0  0  0  0
   -1.6599   -0.0893    1.8273 N   0  0  0  0  0  0  0  0  0  0  0  0
   -0.3875   -0.0275    1.3264 C   0  0  0  0  0  0  0  0  0  0  0  0
   -0.8754   -0.2092   -1.1418 C   0  0  0  0  0  0  0  0  0  0  0  0
   -1.0349   -1.7078   -1.4812 C   0  0  0  0  0  0  0  0  0  0  0  0
   -1.9702   -2.4378   -0.5028 C   0  0  0  0  0  0  0  0  0  0  0  0
   -1.1810   -3.1662    0.5918 C   0  0  0  0  0  0  0  0  0  0  0  0
   -2.0963   -3.6983    1.7117 C   0  0  0  0  0  0  0  0  0  0  0  0
   -3.1894   -2.9537    1.9309 F   0  0  0  0  0  0  0  0  0  0  0  0
   -2.5957   -4.9033    1.4144 F   0  0  0  0  0  0  0  0  0  0  0  0
   -1.5245   -3.8357    3.4787 P   0  0  0  0  0  0  0  0  0  0  0  0
   -2.1055   -2.9287    4.4713 O   0  0  0  0  0  0  0  0  0  0  0  0
   -1.7605   -5.3853    3.7529 O   0  0  0  0  0  0  0  0  0  0  0  0
    0.0430   -3.6797    3.2404 O   0  0  0  0  0  0  0  0  0  0  0  0
    1.9948    0.0206   -0.9092 H   0  0  0  0  0  0  0  0  0  0  0  0
   -3.0788   -0.8914    4.5336 H   0  0  0  0  0  0  0  0  0  0  0  0
   -3.7610   -0.2631    3.1284 H   0  0  0  0  0  0  0  0  0  0  0  0
   -0.4636    0.3426   -2.0176 H   0  0  0  0  0  0  0  0  0  0  0  0
   -1.8744    0.2431   -0.9150 H   0  0  0  0  0  0  0  0  0  0  0  0
   -0.0433   -2.1968   -1.5153 H   0  0  0  0  0  0  0  0  0  0  0  0
   -1.4398   -1.7913   -2.5088 H   0  0  0  0  0  0  0  0  0  0  0  0
   -2.6047   -3.1594   -1.0512 H   0  0  0  0  0  0  0  0  0  0  0  0
   -2.6706   -1.6974   -0.0596 H   0  0  0  0  0  0  0  0  0  0  0  0
   -0.3970   -2.4834    0.9968 H   0  0  0  0  0  0  0  0  0  0  0  0
   -0.6024   -4.0096    0.1496 H   0  0  0  0  0  0  0  0  0  0  0  0
   -1.8803   -5.5338    4.7607 H   0  0  0  0  0  0  0  0  0  0  0  0
    0.5446   -3.5701    4.1221 H   0  0  0  0  0  0  0  0  0  0  0  0
  1  2  1  0  0  0  0
  1 12  1  0  0  0  0
  2  3  2  0  0  0  0
  3  4  2  0  0  0  0
  4  5  1  0  0  0  0
  5  7  1  0  0  0  0
  5  6  2  0  0  0  0
  7  8  1  0  0  0  0
  9 10  1  0  0  0  0
  9  7  1  0  0  0  0
 10 25  1  0  0  0  0
 11  9  2  0  0  0  0
 12 11  2  0  0  0  0
 12  4  1  0  0  0  0
 13 28  1  0  0  0  0
 13  1  1  0  0  0  0
 14 13  1  0  0  0  0
 14 15  1  0  0  0  0
 15 32  1  0  0  0  0
 15 16  1  0  0  0  0
 16 33  1  0  0  0  0
 16 17  1  0  0  0  0
 17 18  1  0  0  0  0
 17 20  1  0  0  0  0
 19 17  1  0  0  0  0
 20 22  1  0  0  0  0
 20 21  2  0  0  0  0
 22 35  1  0  0  0  0
 23 20  1  0  0  0  0
 23 36  1  0  0  0  0
 24  2  1  0  0  0  0
 26 10  1  0  0  0  0
 27 13  1  0  0  0  0
 29 14  1  0  0  0  0
 30 14  1  0  0  0  0
 31 15  1  0  0  0  0
 34 16  1  0  0  0  0
M  END
$$$$
