29
rmsd109.gzmat
Cl         0.00000        0.00000        0.00000
C          1.71670        0.00000        0.00000
C          2.40750        0.00000        1.24930
N          1.89550        0.00020        2.47450
C          0.59700       -0.33660        2.81780
C         -0.12090        0.55150        3.65590
C         -1.35540        0.16500        4.16800
C         -1.90150       -1.07780        3.85500
C         -1.20210       -1.95070        3.02040
C          0.03500       -1.59310        2.50720
C          0.43250        1.90580        3.96170
C          1.37990        1.85160        5.14180
O          2.50490        1.14390        4.99370
O          1.19060        2.43820        6.18250
C          3.83170        0.10020        1.10240
Cl         4.78990        0.12730        2.52470
C          4.47490        0.16890       -0.10880
C          3.73390        0.13940       -1.29740
C          2.34440        0.05810       -1.22690
H          2.57470        0.65070        4.09490
H         -1.90230        0.84190        4.82000
H         -2.86550       -1.36360        4.25450
H         -1.63030       -2.91770        2.77210
H          0.58600       -2.27100        1.86240
H         -0.37610        2.63430        4.17080
H          0.98080        2.30530        3.07470
H          5.55970        0.24560       -0.15960
H          4.23310        0.18680       -2.25230
H          1.76020        0.04980       -2.14640
