rmsd158.gzmat
 OpenBabel08211713363D

 29 30  0  0  0  0  0  0  0  0999 V2000
    0.0000    0.0000    0.0000 Cl  0  0  0  0  0  0  0  0  0  0  0  0
    1.7166    0.0000    0.0000 C   0  0  0  0  0  0  0  0  0  0  0  0
    2.4048    0.0000    1.2498 C   0  0  0  0  0  0  0  0  0  0  0  0
    1.8856   -0.0248    2.4741 N   0  0  0  0  0  0  0  0  0  0  0  0
    0.6205   -0.4675    2.8137 C   0  0  0  0  0  0  0  0  0  0  0  0
   -0.1305    0.3041    3.7353 C   0  0  0  0  0  0  0  0  0  0  0  0
   -1.3254   -0.1987    4.2399 C   0  0  0  0  0  0  0  0  0  0  0  0
   -1.8003   -1.4473    3.8446 C   0  0  0  0  0  0  0  0  0  0  0  0
   -1.0679   -2.2070    2.9312 C   0  0  0  0  0  0  0  0  0  0  0  0
    0.1280   -1.7304    2.4179 C   0  0  0  0  0  0  0  0  0  0  0  0
    0.3446    1.6611    4.1440 C   0  0  0  0  0  0  0  0  0  0  0  0
    1.3265    1.5664    5.2935 C   0  0  0  0  0  0  0  0  0  0  0  0
    2.4898    0.9494    5.0592 O   0  0  0  0  0  0  0  0  0  0  0  0
    1.1284    2.0446    6.3870 O   0  0  0  0  0  0  0  0  0  0  0  0
    3.8258    0.1325    1.1079 C   0  0  0  0  0  0  0  0  0  0  0  0
    4.7779    0.1900    2.5332 Cl  0  0  0  0  0  0  0  0  0  0  0  0
    4.4721    0.2029   -0.1023 C   0  0  0  0  0  0  0  0  0  0  0  0
    3.7350    0.1562   -1.2928 C   0  0  0  0  0  0  0  0  0  0  0  0
    2.3464    0.0643   -1.2260 C   0  0  0  0  0  0  0  0  0  0  0  0
    2.5638    0.5399    4.1190 H   0  0  0  0  0  0  0  0  0  0  0  0
   -1.8958    0.3908    4.9540 H   0  0  0  0  0  0  0  0  0  0  0  0
   -2.7325   -1.8253    4.2424 H   0  0  0  0  0  0  0  0  0  0  0  0
   -1.4356   -3.1814    2.6225 H   0  0  0  0  0  0  0  0  0  0  0  0
    0.7032   -2.3218    1.7117 H   0  0  0  0  0  0  0  0  0  0  0  0
   -0.5032    2.3131    4.4360 H   0  0  0  0  0  0  0  0  0  0  0  0
    0.8371    2.1703    3.2814 H   0  0  0  0  0  0  0  0  0  0  0  0
    5.5562    0.2906   -0.1511 H   0  0  0  0  0  0  0  0  0  0  0  0
    4.2372    0.1987   -2.2468 H   0  0  0  0  0  0  0  0  0  0  0  0
    1.7649    0.0509   -2.1469 H   0  0  0  0  0  0  0  0  0  0  0  0
  1  2  1  0  0  0  0
  2  3  2  0  0  0  0
  3  4  1  0  0  0  0
  4  5  1  0  0  0  0
  5  6  1  0  0  0  0
  6 11  1  0  0  0  0
  6  7  2  0  0  0  0
  7 21  1  0  0  0  0
  8  7  1  0  0  0  0
  8 22  1  0  0  0  0
  9  8  2  0  0  0  0
 10  5  2  0  0  0  0
 10  9  1  0  0  0  0
 11 25  1  0  0  0  0
 11 12  1  0  0  0  0
 12 14  2  0  0  0  0
 13 12  1  0  0  0  0
 15  3  1  0  0  0  0
 15 16  1  0  0  0  0
 17 15  2  0  0  0  0
 18 19  2  0  0  0  0
 18 17  1  0  0  0  0
 19  2  1  0  0  0  0
 20 13  1  0  0  0  0
 23  9  1  0  0  0  0
 24 10  1  0  0  0  0
 26 11  1  0  0  0  0
 27 17  1  0  0  0  0
 28 18  1  0  0  0  0
 29 19  1  0  0  0  0
M  RAD  1   4   2
M  END
$$$$
