29
rmsd107.gzmat
Cl         0.00000        0.00000        0.00000
C          1.71680        0.00000        0.00000
C          2.40550        0.00000        1.25020
N          1.88880       -0.00510        2.47390
C          0.59840       -0.37520        2.81210
C         -0.14130        0.48360        3.66180
C         -1.36640        0.06140        4.16800
C         -1.88230       -1.19010        3.83860
C         -1.16190       -2.03410        2.99220
C          0.06630       -1.64060        2.48390
C          0.38270        1.84360        3.99220
C          1.32720        1.78170        5.17430
O          2.47830        1.12060        5.00840
O          1.11140        2.32400        6.23370
C          3.82890        0.10870        1.10580
Cl         4.78290        0.14980        2.53040
C          4.47420        0.17640       -0.10440
C          3.73570        0.14150       -1.29430
C          2.34620        0.05910       -1.22600
H          2.56090        0.64690        4.10040
H         -1.93040        0.71590        4.82870
H         -2.83780       -1.50560        4.23580
H         -1.56750       -3.00750        2.73160
H          0.63390       -2.29700        1.83110
H         -0.44080        2.55080        4.21560
H          0.92240        2.27260        3.11430
H          5.55910        0.25710       -0.15220
H          4.23800        0.18440       -2.24800
H          1.76270        0.04950       -2.14600
