29
rmsd10.gzmat
Cl         0.00000        0.00000        0.00000
C          1.71660        0.00000        0.00000
C          2.40500        0.00000        1.24960
N          1.89040       -0.02670        2.47560
C          0.62430       -0.45730        2.82490
C         -0.10170        0.31700        3.76490
C         -1.29610       -0.17250        4.28260
C         -1.79980       -1.40620        3.87590
C         -1.09470       -2.16610        2.94190
C          0.10570       -1.70720        2.42220
C          0.40050        1.66230        4.17940
C          1.39470        1.54060        5.31570
O          1.21530        2.00890        6.41670
O          2.54550        0.90980        5.06040
C          3.82580        0.13660        1.10710
Cl         4.78000        0.19930        2.53060
C          4.47230        0.21050       -0.10230
C          3.73560        0.16050       -1.29260
C          2.34690        0.06510       -1.22580
H          2.59950        0.50650        4.11600
H         -1.84510        0.41560        5.01460
H         -2.73440       -1.77120        4.28050
H         -1.48990       -3.12580        2.62090
H          0.66170       -2.30230        1.70440
H         -0.43170        2.32560        4.48930
H          0.89070        2.17160        3.31570
H          5.55600        0.30510       -0.14970
H          4.23940        0.20450       -2.24540
H          1.76520        0.05100       -2.14650
