29
rmsd148.gzmat
Cl         0.00000        0.00000        0.00000
C          1.71680        0.00000        0.00000
C          2.40660        0.00000        1.24910
N          1.89300       -0.02510        2.47610
C          0.62820       -0.46050        2.82390
C         -0.09910        0.30410        3.77060
C         -1.29380       -0.19000        4.28390
C         -1.79770       -1.41960        3.86610
C         -1.09100       -2.17130        2.92620
C          0.10950       -1.70770        2.41130
C          0.40420        1.64360        4.20180
C          1.38230        1.49750        5.34800
O          2.55090        0.90320        5.08000
O          1.17980        1.91410        6.46530
C          3.82740        0.13510        1.10400
Cl         4.78420        0.18710        2.52590
C          4.47150        0.21370       -0.10650
C          3.73310        0.16640       -1.29570
C          2.34510        0.06560       -1.22670
H          2.61190        0.51780        4.13000
H         -1.84240        0.39080        5.02200
H         -2.73280       -1.78810        4.26610
H         -1.48540       -3.12880        2.59770
H          0.66670       -2.29730        1.68950
H         -0.42780        2.30830        4.50710
H          0.90900        2.15780        3.34960
H          5.55500        0.30900       -0.15620
H          4.23390        0.21680       -2.24970
H          1.76270        0.04750       -2.14700
