rmsd148.gzmat
 OpenBabel08211713363D

 29 30  0  0  0  0  0  0  0  0999 V2000
    0.0000    0.0000    0.0000 Cl  0  0  0  0  0  0  0  0  0  0  0  0
    1.7168    0.0000    0.0000 C   0  0  0  0  0  0  0  0  0  0  0  0
    2.4066    0.0000    1.2491 C   0  0  0  0  0  0  0  0  0  0  0  0
    1.8930   -0.0251    2.4761 N   0  0  0  0  0  0  0  0  0  0  0  0
    0.6282   -0.4605    2.8239 C   0  0  0  0  0  0  0  0  0  0  0  0
   -0.0991    0.3041    3.7706 C   0  0  0  0  0  0  0  0  0  0  0  0
   -1.2938   -0.1900    4.2839 C   0  0  0  0  0  0  0  0  0  0  0  0
   -1.7977   -1.4196    3.8661 C   0  0  0  0  0  0  0  0  0  0  0  0
   -1.0910   -2.1713    2.9262 C   0  0  0  0  0  0  0  0  0  0  0  0
    0.1095   -1.7077    2.4113 C   0  0  0  0  0  0  0  0  0  0  0  0
    0.4042    1.6436    4.2018 C   0  0  0  0  0  0  0  0  0  0  0  0
    1.3823    1.4975    5.3480 C   0  0  0  0  0  0  0  0  0  0  0  0
    2.5509    0.9032    5.0800 O   0  0  0  0  0  0  0  0  0  0  0  0
    1.1798    1.9141    6.4653 O   0  0  0  0  0  0  0  0  0  0  0  0
    3.8274    0.1351    1.1040 C   0  0  0  0  0  0  0  0  0  0  0  0
    4.7842    0.1871    2.5259 Cl  0  0  0  0  0  0  0  0  0  0  0  0
    4.4715    0.2137   -0.1065 C   0  0  0  0  0  0  0  0  0  0  0  0
    3.7331    0.1664   -1.2957 C   0  0  0  0  0  0  0  0  0  0  0  0
    2.3451    0.0656   -1.2267 C   0  0  0  0  0  0  0  0  0  0  0  0
    2.6119    0.5178    4.1300 H   0  0  0  0  0  0  0  0  0  0  0  0
   -1.8424    0.3908    5.0220 H   0  0  0  0  0  0  0  0  0  0  0  0
   -2.7328   -1.7881    4.2661 H   0  0  0  0  0  0  0  0  0  0  0  0
   -1.4854   -3.1288    2.5977 H   0  0  0  0  0  0  0  0  0  0  0  0
    0.6667   -2.2973    1.6895 H   0  0  0  0  0  0  0  0  0  0  0  0
   -0.4278    2.3083    4.5071 H   0  0  0  0  0  0  0  0  0  0  0  0
    0.9090    2.1578    3.3496 H   0  0  0  0  0  0  0  0  0  0  0  0
    5.5550    0.3090   -0.1562 H   0  0  0  0  0  0  0  0  0  0  0  0
    4.2339    0.2168   -2.2497 H   0  0  0  0  0  0  0  0  0  0  0  0
    1.7627    0.0475   -2.1470 H   0  0  0  0  0  0  0  0  0  0  0  0
  1  2  1  0  0  0  0
  2  3  2  0  0  0  0
  3  4  1  0  0  0  0
  4  5  1  0  0  0  0
  5  6  1  0  0  0  0
  6 11  1  0  0  0  0
  6  7  2  0  0  0  0
  7 21  1  0  0  0  0
  8 22  1  0  0  0  0
  8  7  1  0  0  0  0
  9  8  2  0  0  0  0
 10  5  2  0  0  0  0
 10  9  1  0  0  0  0
 11 25  1  0  0  0  0
 11 12  1  0  0  0  0
 12 14  2  0  0  0  0
 13 12  1  0  0  0  0
 15  3  1  0  0  0  0
 15 16  1  0  0  0  0
 17 15  2  0  0  0  0
 18 19  2  0  0  0  0
 18 17  1  0  0  0  0
 19  2  1  0  0  0  0
 20 13  1  0  0  0  0
 23  9  1  0  0  0  0
 24 10  1  0  0  0  0
 26 11  1  0  0  0  0
 27 17  1  0  0  0  0
 28 18  1  0  0  0  0
 29 19  1  0  0  0  0
M  RAD  1   4   2
M  END
$$$$
