rmsd107.gzmat
 OpenBabel08211713363D

 29 30  0  0  0  0  0  0  0  0999 V2000
    0.0000    0.0000    0.0000 Cl  0  0  0  0  0  0  0  0  0  0  0  0
    1.7168    0.0000    0.0000 C   0  0  0  0  0  0  0  0  0  0  0  0
    2.4055    0.0000    1.2502 C   0  0  0  0  0  0  0  0  0  0  0  0
    1.8888   -0.0051    2.4739 N   0  0  0  0  0  0  0  0  0  0  0  0
    0.5984   -0.3752    2.8121 C   0  0  0  0  0  0  0  0  0  0  0  0
   -0.1413    0.4836    3.6618 C   0  0  0  0  0  0  0  0  0  0  0  0
   -1.3664    0.0614    4.1680 C   0  0  0  0  0  0  0  0  0  0  0  0
   -1.8823   -1.1901    3.8386 C   0  0  0  0  0  0  0  0  0  0  0  0
   -1.1619   -2.0341    2.9922 C   0  0  0  0  0  0  0  0  0  0  0  0
    0.0663   -1.6406    2.4839 C   0  0  0  0  0  0  0  0  0  0  0  0
    0.3827    1.8436    3.9922 C   0  0  0  0  0  0  0  0  0  0  0  0
    1.3272    1.7817    5.1743 C   0  0  0  0  0  0  0  0  0  0  0  0
    2.4783    1.1206    5.0084 O   0  0  0  0  0  0  0  0  0  0  0  0
    1.1114    2.3240    6.2337 O   0  0  0  0  0  0  0  0  0  0  0  0
    3.8289    0.1087    1.1058 C   0  0  0  0  0  0  0  0  0  0  0  0
    4.7829    0.1498    2.5304 Cl  0  0  0  0  0  0  0  0  0  0  0  0
    4.4742    0.1764   -0.1044 C   0  0  0  0  0  0  0  0  0  0  0  0
    3.7357    0.1415   -1.2943 C   0  0  0  0  0  0  0  0  0  0  0  0
    2.3462    0.0591   -1.2260 C   0  0  0  0  0  0  0  0  0  0  0  0
    2.5609    0.6469    4.1004 H   0  0  0  0  0  0  0  0  0  0  0  0
   -1.9304    0.7159    4.8287 H   0  0  0  0  0  0  0  0  0  0  0  0
   -2.8378   -1.5056    4.2358 H   0  0  0  0  0  0  0  0  0  0  0  0
   -1.5675   -3.0075    2.7316 H   0  0  0  0  0  0  0  0  0  0  0  0
    0.6339   -2.2970    1.8311 H   0  0  0  0  0  0  0  0  0  0  0  0
   -0.4408    2.5508    4.2156 H   0  0  0  0  0  0  0  0  0  0  0  0
    0.9224    2.2726    3.1143 H   0  0  0  0  0  0  0  0  0  0  0  0
    5.5591    0.2571   -0.1522 H   0  0  0  0  0  0  0  0  0  0  0  0
    4.2380    0.1844   -2.2480 H   0  0  0  0  0  0  0  0  0  0  0  0
    1.7627    0.0495   -2.1460 H   0  0  0  0  0  0  0  0  0  0  0  0
  1  2  1  0  0  0  0
  2  3  2  0  0  0  0
  3  4  1  0  0  0  0
  4  5  1  0  0  0  0
  5  6  1  0  0  0  0
  6 11  1  0  0  0  0
  6  7  2  0  0  0  0
  7 21  1  0  0  0  0
  8  7  1  0  0  0  0
  8 22  1  0  0  0  0
  9  8  2  0  0  0  0
 10  5  2  0  0  0  0
 10  9  1  0  0  0  0
 11 25  1  0  0  0  0
 11 12  1  0  0  0  0
 12 14  2  0  0  0  0
 13 12  1  0  0  0  0
 15  3  1  0  0  0  0
 15 16  1  0  0  0  0
 17 15  2  0  0  0  0
 18 19  2  0  0  0  0
 18 17  1  0  0  0  0
 19  2  1  0  0  0  0
 20 13  1  0  0  0  0
 23  9  1  0  0  0  0
 24 10  1  0  0  0  0
 26 11  1  0  0  0  0
 27 17  1  0  0  0  0
 28 18  1  0  0  0  0
 29 19  1  0  0  0  0
M  RAD  1   4   2
M  END
$$$$
