rmsd109.gzmat
 OpenBabel08211713363D

 29 30  0  0  0  0  0  0  0  0999 V2000
    0.0000    0.0000    0.0000 Cl  0  0  0  0  0  0  0  0  0  0  0  0
    1.7167    0.0000    0.0000 C   0  0  0  0  0  0  0  0  0  0  0  0
    2.4075    0.0000    1.2493 C   0  0  0  0  0  0  0  0  0  0  0  0
    1.8955    0.0002    2.4745 N   0  0  0  0  0  0  0  0  0  0  0  0
    0.5970   -0.3366    2.8178 C   0  0  0  0  0  0  0  0  0  0  0  0
   -0.1209    0.5515    3.6559 C   0  0  0  0  0  0  0  0  0  0  0  0
   -1.3554    0.1650    4.1680 C   0  0  0  0  0  0  0  0  0  0  0  0
   -1.9015   -1.0778    3.8550 C   0  0  0  0  0  0  0  0  0  0  0  0
   -1.2021   -1.9507    3.0204 C   0  0  0  0  0  0  0  0  0  0  0  0
    0.0350   -1.5931    2.5072 C   0  0  0  0  0  0  0  0  0  0  0  0
    0.4325    1.9058    3.9617 C   0  0  0  0  0  0  0  0  0  0  0  0
    1.3799    1.8516    5.1418 C   0  0  0  0  0  0  0  0  0  0  0  0
    2.5049    1.1439    4.9937 O   0  0  0  0  0  0  0  0  0  0  0  0
    1.1906    2.4382    6.1825 O   0  0  0  0  0  0  0  0  0  0  0  0
    3.8317    0.1002    1.1024 C   0  0  0  0  0  0  0  0  0  0  0  0
    4.7899    0.1273    2.5247 Cl  0  0  0  0  0  0  0  0  0  0  0  0
    4.4749    0.1689   -0.1088 C   0  0  0  0  0  0  0  0  0  0  0  0
    3.7339    0.1394   -1.2974 C   0  0  0  0  0  0  0  0  0  0  0  0
    2.3444    0.0581   -1.2269 C   0  0  0  0  0  0  0  0  0  0  0  0
    2.5747    0.6507    4.0949 H   0  0  0  0  0  0  0  0  0  0  0  0
   -1.9023    0.8419    4.8200 H   0  0  0  0  0  0  0  0  0  0  0  0
   -2.8655   -1.3636    4.2545 H   0  0  0  0  0  0  0  0  0  0  0  0
   -1.6303   -2.9177    2.7721 H   0  0  0  0  0  0  0  0  0  0  0  0
    0.5860   -2.2710    1.8624 H   0  0  0  0  0  0  0  0  0  0  0  0
   -0.3761    2.6343    4.1708 H   0  0  0  0  0  0  0  0  0  0  0  0
    0.9808    2.3053    3.0747 H   0  0  0  0  0  0  0  0  0  0  0  0
    5.5597    0.2456   -0.1596 H   0  0  0  0  0  0  0  0  0  0  0  0
    4.2331    0.1868   -2.2523 H   0  0  0  0  0  0  0  0  0  0  0  0
    1.7602    0.0498   -2.1464 H   0  0  0  0  0  0  0  0  0  0  0  0
  1  2  1  0  0  0  0
  2  3  2  0  0  0  0
  3  4  1  0  0  0  0
  4  5  1  0  0  0  0
  5  6  1  0  0  0  0
  6 11  1  0  0  0  0
  6  7  2  0  0  0  0
  7 21  1  0  0  0  0
  8  7  1  0  0  0  0
  8 22  1  0  0  0  0
  9  8  2  0  0  0  0
 10  5  2  0  0  0  0
 10  9  1  0  0  0  0
 11 25  1  0  0  0  0
 11 12  1  0  0  0  0
 12 14  2  0  0  0  0
 13 12  1  0  0  0  0
 15  3  1  0  0  0  0
 15 16  1  0  0  0  0
 17 15  2  0  0  0  0
 18 19  2  0  0  0  0
 18 17  1  0  0  0  0
 19  2  1  0  0  0  0
 20 13  1  0  0  0  0
 23  9  1  0  0  0  0
 24 10  1  0  0  0  0
 26 11  1  0  0  0  0
 27 17  1  0  0  0  0
 28 18  1  0  0  0  0
 29 19  1  0  0  0  0
M  RAD  1   4   2
M  END
$$$$
