54

C         -0.12240        0.67930        0.34170
C          1.31740        0.27970        0.15480
C          2.10820       -0.13250        1.16280
C          1.72530       -0.30330        2.61300
C          2.95240       -0.49580        3.52380
C          3.81530        0.73880        3.69000
C          4.97400        0.85300        3.01420
C          5.99000        1.95840        3.06930
C          6.14020        2.74650        1.74810
C          4.96580        3.62830        1.39330
C          4.34480        3.49400        0.20520
C          3.17170        4.29250       -0.26130
O          1.91640        3.56310       -0.12110
N          1.72270        3.17240        1.18140
C          0.77330        3.71880        1.95920
O          0.52900        3.24510        3.07740
C          0.04520        4.93940        1.44340
P          0.12410        6.31400        2.64490
O         -0.61740        7.55230        2.31530
O         -0.29530        5.60940        4.02200
O          1.75180        6.52910        2.70610
C          4.58000        4.64140        2.43720
C          3.27440        1.76990        4.64650
C          1.82950        0.37350       -1.25800
H         -0.32350        1.64120       -0.15970
H         -0.41000        0.77240        1.39740
H         -0.79120       -0.06390       -0.12790
H          3.13640       -0.41430        0.90730
H          1.07190       -1.18900        2.71940
H          1.12360        0.55050        2.96900
H          3.56220       -1.31990        3.11910
H          2.60350       -0.82120        4.51860
H          5.24410        0.02520        2.34550
H          6.97490        1.51230        3.29510
H          5.77930        2.65340        3.89470
H          6.34200        2.04520        0.92240
H          7.03350        3.39230        1.83940
H          4.68180        2.70210       -0.47280
H          3.21330        4.48830       -1.34220
H          3.07260        5.25040        0.27150
H          2.13130        2.26530        1.42040
H         -1.02150        4.68170        1.34890
H          0.41010        5.27200        0.46560
H         -0.06580        4.64450        3.98480
H          1.95330        7.44760        2.94280
H          4.10910        4.14130        3.29760
H          3.86150        5.39100        2.08960
H          5.47500        5.15820        2.82240
H          3.02690        1.30150        5.61430
H          2.34060        2.21570        4.26410
H          3.98120        2.58650        4.84240
H          1.76740        1.41510       -1.61510
H          1.21710       -0.23960       -1.94260
H          2.87460        0.03950       -1.33870
