54

C         -0.56230       -0.15930        0.24240
C          0.83490        0.11770       -0.24970
C          1.94390        0.01030        0.50410
C          2.05910       -0.41110        1.94080
C          2.82660        0.60130        2.81580
C          2.17950        1.96310        2.94210
C          2.89070        3.07510        2.68900
C          2.43430        4.50860        2.78220
C          1.77130        5.06990        1.49680
C          2.57430        4.76300        0.24810
C          3.66310        5.49950       -0.05120
C          4.64670        5.20800       -1.13460
O          5.92430        4.74170       -0.57630
N          5.75100        3.61960        0.19170
C          5.84830        2.36920       -0.30020
O          5.52460        1.38930        0.37990
C          6.36120        2.20690       -1.71600
P          5.08810        1.30000       -2.66140
O          3.87290        2.11620       -2.95260
O          5.84120        0.77750       -3.99580
O          4.91620       -0.04640       -1.80740
C          2.08560        3.58520       -0.54180
C          0.73480        1.98310        3.36350
C          0.91550        0.53280       -1.69630
H         -1.19530        0.73930        0.13170
H         -0.60400       -0.47730        1.29230
H         -1.03870       -0.94740       -0.36730
H          2.89720        0.24720        0.02020
H          2.61070       -1.36840        1.98860
H          1.07060       -0.61530        2.37840
H          3.84620        0.72290        2.41780
H          2.92550        0.16640        3.82880
H          3.92160        2.91630        2.35440
H          3.30860        5.13930        3.01570
H          1.72800        4.64110        3.61830
H          1.64360        6.15820        1.61600
H          0.76440        4.63450        1.39670
H          3.91780        6.34760        0.59690
H          4.95370        6.11270       -1.67920
H          4.28500        4.45620       -1.85250
H          5.27800        3.75700        1.08390
H          7.26990        1.58650       -1.68560
H          6.58620        3.16630       -2.19500
H          5.35170        1.07010       -4.77950
H          5.06740        0.16730       -0.85010
H          1.07650        3.80440       -0.93260
H          1.97200        2.71380        0.12120
H          2.71980        3.29090       -1.38520
H          0.55760        1.29270        4.20580
H          0.08750        1.64500        2.53690
H          0.39340        2.98390        3.66200
H          0.29630        1.42850       -1.88180
H          0.51190       -0.26140       -2.35020
H          1.94020        0.76020       -2.01810
