
     RDKit          3D

 54 53  0  0  0  0  0  0  0  0999 V2000
   -0.0477   -1.0188   -0.4180 C   0  0  0  0  0  0  0  0  0  0  0  0
    1.0620   -0.0102   -0.5601 C   0  0  0  0  0  0  0  0  0  0  0  0
    1.7519    0.5238    0.4697 C   0  0  0  0  0  0  0  0  0  0  0  0
    1.6110    0.1983    1.9326 C   0  0  0  0  0  0  0  0  0  0  0  0
    1.6028    1.4431    2.8484 C   0  0  0  0  0  0  0  0  0  0  0  0
    0.5843    2.4635    2.4038 C   0  0  0  0  0  0  0  0  0  0  0  0
    0.9728    3.6895    2.0067 C   0  0  0  0  0  0  0  0  0  0  0  0
    0.1283    4.6989    1.2961 C   0  0  0  0  0  0  0  0  0  0  0  0
   -0.1225    6.0822    1.9336 C   0  0  0  0  0  0  0  0  0  0  0  0
   -1.0278    6.8190    0.9664 C   0  0  0  0  0  0  0  0  0  0  0  0
   -0.4815    7.4406   -0.0931 C   0  0  0  0  0  0  0  0  0  0  0  0
   -1.1746    7.8615   -1.3445 C   0  0  0  0  0  0  0  0  0  0  0  0
   -0.7287    7.0475   -2.4646 O   0  0  0  0  0  0  0  0  0  0  0  0
   -1.0107    5.7114   -2.3126 N   0  0  0  0  0  0  0  0  0  0  0  0
   -2.2236    5.2202   -2.6883 C   0  0  0  0  0  0  0  0  0  0  0  0
   -3.1970    5.9096   -2.9112 O   0  0  0  0  0  0  0  0  0  0  0  0
   -2.2586    3.6914   -2.8512 C   0  0  0  0  0  0  0  0  0  0  0  0
   -1.8538    2.6305   -1.4442 P   0  0  0  0  0  0  0  0  0  0  0  0
   -2.1831    1.1853   -1.5780 O   0  0  0  0  0  0  0  0  0  0  0  0
   -0.2873    2.9741   -1.2143 O   0  0  0  0  0  0  0  0  0  0  0  0
   -2.6401    3.3296   -0.1950 O   0  0  0  0  0  0  0  0  0  0  0  0
   -2.5036    6.6161    1.1743 C   0  0  0  0  0  0  0  0  0  0  0  0
   -0.8417    1.9717    2.3553 C   0  0  0  0  0  0  0  0  0  0  0  0
    1.3929    0.3380   -1.9910 C   0  0  0  0  0  0  0  0  0  0  0  0
    0.1998   -1.9353   -0.9815 H   0  0  0  0  0  0  0  0  0  0  0  0
   -0.9738   -0.6093   -0.8530 H   0  0  0  0  0  0  0  0  0  0  0  0
   -0.2438   -1.3085    0.6225 H   0  0  0  0  0  0  0  0  0  0  0  0
    2.5493    1.2392    0.2280 H   0  0  0  0  0  0  0  0  0  0  0  0
    2.4549   -0.4464    2.2416 H   0  0  0  0  0  0  0  0  0  0  0  0
    0.7035   -0.3962    2.1099 H   0  0  0  0  0  0  0  0  0  0  0  0
    2.6037    1.9041    2.8536 H   0  0  0  0  0  0  0  0  0  0  0  0
    1.3967    1.1107    3.8823 H   0  0  0  0  0  0  0  0  0  0  0  0
    2.0366    3.9395    2.1110 H   0  0  0  0  0  0  0  0  0  0  0  0
   -0.8437    4.2629    1.0448 H   0  0  0  0  0  0  0  0  0  0  0  0
    0.6083    4.8918    0.3228 H   0  0  0  0  0  0  0  0  0  0  0  0
    0.8293    6.6185    2.0792 H   0  0  0  0  0  0  0  0  0  0  0  0
   -0.5938    5.9678    2.9237 H   0  0  0  0  0  0  0  0  0  0  0  0
    0.6130    7.5131   -0.1391 H   0  0  0  0  0  0  0  0  0  0  0  0
   -0.8873    8.8727   -1.6698 H   0  0  0  0  0  0  0  0  0  0  0  0
   -2.2701    7.8092   -1.2830 H   0  0  0  0  0  0  0  0  0  0  0  0
   -0.2103    5.1139   -2.1249 H   0  0  0  0  0  0  0  0  0  0  0  0
   -1.5963    3.3846   -3.6769 H   0  0  0  0  0  0  0  0  0  0  0  0
   -3.2894    3.4345   -3.1304 H   0  0  0  0  0  0  0  0  0  0  0  0
    0.1714    2.3565   -0.6067 H   0  0  0  0  0  0  0  0  0  0  0  0
   -3.1796    2.6659    0.2612 H   0  0  0  0  0  0  0  0  0  0  0  0
   -2.7435    5.5408    1.2002 H   0  0  0  0  0  0  0  0  0  0  0  0
   -3.1199    7.0724    0.3896 H   0  0  0  0  0  0  0  0  0  0  0  0
   -2.8114    7.0418    2.1447 H   0  0  0  0  0  0  0  0  0  0  0  0
   -1.0861    1.4241    3.2810 H   0  0  0  0  0  0  0  0  0  0  0  0
   -0.9991    1.2613    1.5243 H   0  0  0  0  0  0  0  0  0  0  0  0
   -1.5643    2.7889    2.2429 H   0  0  0  0  0  0  0  0  0  0  0  0
    0.4833    0.6270   -2.5415 H   0  0  0  0  0  0  0  0  0  0  0  0
    1.8058   -0.5454   -2.5097 H   0  0  0  0  0  0  0  0  0  0  0  0
    2.1289    1.1524   -2.0656 H   0  0  0  0  0  0  0  0  0  0  0  0
  1  2  1  0
  1 25  1  0
  1 26  1  0
  1 27  1  0
  2  3  2  3
  2 24  1  0
  3  4  1  0
  3 28  1  0
  4  5  1  0
  4 29  1  0
  4 30  1  0
  5  6  1  0
  5 31  1  0
  5 32  1  0
  6  7  2  0
  6 23  1  0
  7  8  1  0
  7 33  1  0
  8  9  1  0
  8 34  1  0
  8 35  1  0
  9 10  1  0
  9 36  1  0
  9 37  1  0
 10 11  2  0
 10 22  1  0
 11 12  1  0
 11 38  1  0
 12 13  1  0
 12 39  1  0
 12 40  1  0
 13 14  1  0
 14 15  1  0
 14 41  1  0
 15 16  2  0
 15 17  1  0
 17 18  1  0
 17 42  1  0
 17 43  1  0
 18 19  2  0
 18 20  1  0
 18 21  1  0
 20 44  1  0
 21 45  1  0
 22 46  1  0
 22 47  1  0
 22 48  1  0
 23 49  1  0
 23 50  1  0
 23 51  1  0
 24 52  1  0
 24 53  1  0
 24 54  1  0
M  END

