54
rmsd110.gzmat
C          0.00000        0.00000        0.00000
C          1.49300        0.00000        0.00000
C          2.21850        0.00000        1.12710
C          1.61200       -0.01810        2.49070
C          2.67250        0.13880        3.59410
C          2.04170       -0.03100        4.94600
C          1.86440        1.01850        5.76030
C          1.25520        0.93860        7.12270
C          2.33660        1.04690        8.21770
C          3.17220       -0.20160        8.26030
C          2.72170       -1.30080        8.87680
C          3.45620       -2.59440        8.93750
O          2.46850       -3.50770        9.47190
N          2.87650       -4.82040        9.23280
C          2.04050       -5.52750        8.34480
O          2.09060       -6.73690        8.36680
C          1.29140       -4.74780        7.28130
P         -0.33210       -4.15540        7.85570
O         -0.76930       -4.15950        9.24780
O         -0.30590       -2.69810        7.17820
O         -1.26900       -5.00070        6.86680
C          4.48590       -0.11010        7.56240
C          1.63950       -1.42240        5.30140
C          2.13990        0.00450       -1.34600
H         -0.42530       -0.11330       -1.00490
H         -0.39340        0.94040        0.41420
H         -0.40250       -0.81810        0.61490
H          3.30460        0.00550        1.09710
H          1.05030       -0.96560        2.64020
H          0.85600        0.78930        2.59170
H          3.16400        1.12710        3.49620
H          3.48140       -0.60650        3.45660
H          2.17300        2.01950        5.46670
H          0.68220       -0.00280        7.25970
H          0.51720        1.75630        7.25220
H          1.85180        1.22180        9.19920
H          2.96330        1.94140        8.03610
H          1.74840       -1.31250        9.37500
H          4.31240       -2.56830        9.63620
H          3.81190       -2.93800        7.95000
H          3.12500       -5.24390       10.11760
H          1.13460       -5.42180        6.37640
H          1.90000       -3.85730        6.92560
H         -1.07620       -2.13730        7.52770
H         -2.22810       -4.99760        7.20320
H          5.13780        0.63690        8.03720
H          4.34220        0.20490        6.51430
H          5.03930       -1.05550        7.54120
H          2.05340       -2.17620        4.62300
H          0.54300       -1.53700        5.28070
H          1.96130       -1.68020        6.32410
H          1.83580        0.88550       -1.92920
H          1.85620       -0.88690       -1.92390
H          3.23610        0.01750       -1.29120
