54
rmsd12.gzmat
C          0.00000        0.00000        0.00000
C          1.48830        0.00000        0.00000
C          2.25910        0.00000        1.09600
C          1.76290        0.01760        2.50380
C          2.51920       -0.98160        3.39920
C          1.96160       -2.37650        3.33750
C          1.47080       -2.95500        4.44320
C          0.98710       -4.36600        4.51430
C          0.31720       -4.69510        5.86160
C         -1.08320       -4.15030        5.90860
C         -1.32290       -2.91050        6.35890
C         -2.67310       -2.28690        6.43670
O         -3.16610       -1.89440        5.14590
N         -2.59240       -0.68640        4.74530
C         -1.95510       -0.73210        3.49640
O         -1.72030        0.32790        2.95380
C         -1.43920       -2.06060        2.99140
P         -2.63090       -2.93840        1.95460
O         -4.08140       -2.87720        2.11960
O         -2.13180       -2.49920        0.49370
O         -2.02230       -4.41930        2.11810
C         -2.13260       -5.08500        5.41530
C          2.04480       -3.05790        2.01600
C          2.10440       -0.00880       -1.36570
H         -0.41140        0.69400       -0.74300
H         -0.43900        0.29170        0.96910
H         -0.39560       -1.00060       -0.23580
H          3.34400        0.00180        1.00890
H          0.67050       -0.17330        2.56340
H          1.88610        1.04360        2.91390
H          2.50580       -0.60460        4.44240
H          3.59140       -1.00610        3.11570
H          1.42450       -2.40780        5.38270
H          1.84540       -5.05380        4.35780
H          0.28200       -4.59000        3.68380
H          0.92800       -4.29860        6.69610
H          0.31020       -5.79280        6.01060
H         -0.50950       -2.26720        6.68960
H         -2.69970       -1.43470        7.13850
H         -3.46820       -3.00520        6.72760
H         -3.22280        0.07260        4.96150
H         -1.14670       -2.73620        3.86850
H         -0.47650       -1.89290        2.39860
H         -2.87610       -2.64170       -0.18430
H         -2.61070       -5.09010        1.63620
H         -2.26260       -5.93670        6.09560
H         -1.86720       -5.49360        4.42530
H         -3.11600       -4.60920        5.29160
H          3.08350       -3.32010        1.77260
H          1.68580       -2.40360        1.20210
H          1.45060       -3.97870        1.96200
H          1.97130        0.96420       -1.85950
H          1.63770       -0.76610       -2.00990
H          3.18080       -0.21810       -1.34600
