
     RDKit          3D

 54 53  0  0  0  0  0  0  0  0999 V2000
   -0.5623   -0.1593    0.2424 C   0  0  0  0  0  0  0  0  0  0  0  0
    0.8349    0.1177   -0.2497 C   0  0  0  0  0  0  0  0  0  0  0  0
    1.9439    0.0103    0.5041 C   0  0  0  0  0  0  0  0  0  0  0  0
    2.0591   -0.4111    1.9408 C   0  0  0  0  0  0  0  0  0  0  0  0
    2.8266    0.6013    2.8158 C   0  0  0  0  0  0  0  0  0  0  0  0
    2.1795    1.9631    2.9421 C   0  0  0  0  0  0  0  0  0  0  0  0
    2.8907    3.0751    2.6890 C   0  0  0  0  0  0  0  0  0  0  0  0
    2.4343    4.5086    2.7822 C   0  0  0  0  0  0  0  0  0  0  0  0
    1.7713    5.0699    1.4968 C   0  0  0  0  0  0  0  0  0  0  0  0
    2.5743    4.7630    0.2481 C   0  0  0  0  0  0  0  0  0  0  0  0
    3.6631    5.4995   -0.0512 C   0  0  0  0  0  0  0  0  0  0  0  0
    4.6467    5.2080   -1.1346 C   0  0  0  0  0  0  0  0  0  0  0  0
    5.9243    4.7417   -0.5763 O   0  0  0  0  0  0  0  0  0  0  0  0
    5.7510    3.6196    0.1917 N   0  0  0  0  0  0  0  0  0  0  0  0
    5.8483    2.3692   -0.3002 C   0  0  0  0  0  0  0  0  0  0  0  0
    5.5246    1.3893    0.3799 O   0  0  0  0  0  0  0  0  0  0  0  0
    6.3612    2.2069   -1.7160 C   0  0  0  0  0  0  0  0  0  0  0  0
    5.0881    1.3000   -2.6614 P   0  0  0  0  0  0  0  0  0  0  0  0
    3.8729    2.1162   -2.9526 O   0  0  0  0  0  0  0  0  0  0  0  0
    5.8412    0.7775   -3.9958 O   0  0  0  0  0  0  0  0  0  0  0  0
    4.9162   -0.0464   -1.8074 O   0  0  0  0  0  0  0  0  0  0  0  0
    2.0856    3.5852   -0.5418 C   0  0  0  0  0  0  0  0  0  0  0  0
    0.7348    1.9831    3.3635 C   0  0  0  0  0  0  0  0  0  0  0  0
    0.9155    0.5328   -1.6963 C   0  0  0  0  0  0  0  0  0  0  0  0
   -1.1953    0.7393    0.1317 H   0  0  0  0  0  0  0  0  0  0  0  0
   -0.6040   -0.4773    1.2923 H   0  0  0  0  0  0  0  0  0  0  0  0
   -1.0387   -0.9474   -0.3673 H   0  0  0  0  0  0  0  0  0  0  0  0
    2.8972    0.2472    0.0202 H   0  0  0  0  0  0  0  0  0  0  0  0
    2.6107   -1.3684    1.9886 H   0  0  0  0  0  0  0  0  0  0  0  0
    1.0706   -0.6153    2.3784 H   0  0  0  0  0  0  0  0  0  0  0  0
    3.8462    0.7229    2.4178 H   0  0  0  0  0  0  0  0  0  0  0  0
    2.9255    0.1664    3.8288 H   0  0  0  0  0  0  0  0  0  0  0  0
    3.9216    2.9163    2.3544 H   0  0  0  0  0  0  0  0  0  0  0  0
    3.3086    5.1393    3.0157 H   0  0  0  0  0  0  0  0  0  0  0  0
    1.7280    4.6411    3.6183 H   0  0  0  0  0  0  0  0  0  0  0  0
    1.6436    6.1582    1.6160 H   0  0  0  0  0  0  0  0  0  0  0  0
    0.7644    4.6345    1.3967 H   0  0  0  0  0  0  0  0  0  0  0  0
    3.9178    6.3476    0.5969 H   0  0  0  0  0  0  0  0  0  0  0  0
    4.9537    6.1127   -1.6792 H   0  0  0  0  0  0  0  0  0  0  0  0
    4.2850    4.4562   -1.8525 H   0  0  0  0  0  0  0  0  0  0  0  0
    5.2780    3.7570    1.0839 H   0  0  0  0  0  0  0  0  0  0  0  0
    7.2699    1.5865   -1.6856 H   0  0  0  0  0  0  0  0  0  0  0  0
    6.5862    3.1663   -2.1950 H   0  0  0  0  0  0  0  0  0  0  0  0
    5.3517    1.0701   -4.7795 H   0  0  0  0  0  0  0  0  0  0  0  0
    5.0674    0.1673   -0.8501 H   0  0  0  0  0  0  0  0  0  0  0  0
    1.0765    3.8044   -0.9326 H   0  0  0  0  0  0  0  0  0  0  0  0
    1.9720    2.7138    0.1212 H   0  0  0  0  0  0  0  0  0  0  0  0
    2.7198    3.2909   -1.3852 H   0  0  0  0  0  0  0  0  0  0  0  0
    0.5576    1.2927    4.2058 H   0  0  0  0  0  0  0  0  0  0  0  0
    0.0875    1.6450    2.5369 H   0  0  0  0  0  0  0  0  0  0  0  0
    0.3934    2.9839    3.6620 H   0  0  0  0  0  0  0  0  0  0  0  0
    0.2963    1.4285   -1.8818 H   0  0  0  0  0  0  0  0  0  0  0  0
    0.5119   -0.2614   -2.3502 H   0  0  0  0  0  0  0  0  0  0  0  0
    1.9402    0.7602   -2.0181 H   0  0  0  0  0  0  0  0  0  0  0  0
  1  2  1  0
  1 25  1  0
  1 26  1  0
  1 27  1  0
  2  3  2  3
  2 24  1  0
  3  4  1  0
  3 28  1  0
  4  5  1  0
  4 29  1  0
  4 30  1  0
  5  6  1  0
  5 31  1  0
  5 32  1  0
  6  7  2  0
  6 23  1  0
  7  8  1  0
  7 33  1  0
  8  9  1  0
  8 34  1  0
  8 35  1  0
  9 10  1  0
  9 36  1  0
  9 37  1  0
 10 11  2  0
 10 22  1  0
 11 12  1  0
 11 38  1  0
 12 13  1  0
 12 39  1  0
 12 40  1  0
 13 14  1  0
 14 15  1  0
 14 41  1  0
 15 16  2  0
 15 17  1  0
 17 18  1  0
 17 42  1  0
 17 43  1  0
 18 19  2  0
 18 20  1  0
 18 21  1  0
 20 44  1  0
 21 45  1  0
 22 46  1  0
 22 47  1  0
 22 48  1  0
 23 49  1  0
 23 50  1  0
 23 51  1  0
 24 52  1  0
 24 53  1  0
 24 54  1  0
M  END

