54
rmsd85.gzmat
C          0.00000        0.00000        0.00000
C          1.49410        0.00000        0.00000
C          2.24650        0.00000        1.10800
C          1.72500       -0.06520        2.50410
C          2.52300        0.83520        3.46580
C          2.04730        2.25820        3.42530
C          2.84640        3.24020        2.98660
C          2.47430        4.68700        2.93330
C          1.58770        5.00240        1.71220
C          2.25500        4.55560        0.44150
C          3.38250        5.14830        0.02300
C          4.16920        4.72490       -1.16530
O          5.40640        4.11800       -0.74920
N          5.25250        2.92280       -0.07240
C          5.49110        1.74670       -0.78660
O          5.20210        0.69320       -0.25850
C          6.30490        1.83650       -2.06740
P          5.27360        1.83720       -3.55750
O          3.90020        2.34190       -3.58080
O          6.27030        2.62180       -4.53930
O          5.41280        0.31050       -4.01890
C          1.57830        3.42910       -0.25300
C          0.65710        2.49660        3.91560
C          2.12720       -0.01840       -1.35260
H         -0.41210        0.42420       -0.92480
H         -0.41660        0.57930        0.83380
H         -0.38780       -1.02470        0.08800
H          3.33790        0.01320        1.03250
H          1.78940       -1.11980        2.85190
H          0.64930        0.19270        2.55470
H          3.60430        0.76560        3.22610
H          2.43170        0.44860        4.50160
H          3.85300        3.02320        2.63560
H          3.38790        5.31530        2.89870
H          1.94400        4.99230        3.85850
H          1.37770        6.09000        1.67330
H          0.60150        4.51430        1.84080
H          3.82140        5.97320        0.58050
H          4.56420        5.57910       -1.75060
H          3.60980        4.06730       -1.85660
H          4.54500        2.96150        0.65150
H          7.01250        0.94520       -2.10800
H          6.95660        2.76850       -2.07150
H          5.80110        2.82950       -5.41590
H          4.67000        0.07880       -4.67550
H          0.53690        3.67330       -0.50250
H          1.55530        2.52960        0.39250
H          2.06950        3.12390       -1.18900
H          0.26550        1.65630        4.50290
H         -0.03170        2.65220        3.07200
H          0.59710        3.38980        4.55300
H          2.00150        0.94310       -1.87140
H          1.69550       -0.79570       -1.99410
H          3.21130       -0.21270       -1.30010
