rmsd110.gzmat
 OpenBabel08211713413D

 54 53  0  0  0  0  0  0  0  0999 V2000
    0.0000    0.0000    0.0000 C   0  0  0  0  0  0  0  0  0  0  0  0
    1.4930    0.0000    0.0000 C   0  0  0  0  0  0  0  0  0  0  0  0
    2.2185    0.0000    1.1271 C   0  0  0  0  0  0  0  0  0  0  0  0
    1.6120   -0.0181    2.4907 C   0  0  0  0  0  0  0  0  0  0  0  0
    2.6725    0.1388    3.5941 C   0  0  0  0  0  0  0  0  0  0  0  0
    2.0417   -0.0310    4.9460 C   0  0  0  0  0  0  0  0  0  0  0  0
    1.8644    1.0185    5.7603 C   0  0  0  0  0  0  0  0  0  0  0  0
    1.2552    0.9386    7.1227 C   0  0  0  0  0  0  0  0  0  0  0  0
    2.3366    1.0469    8.2177 C   0  0  0  0  0  0  0  0  0  0  0  0
    3.1722   -0.2016    8.2603 C   0  0  0  0  0  0  0  0  0  0  0  0
    2.7217   -1.3008    8.8768 C   0  0  0  0  0  0  0  0  0  0  0  0
    3.4562   -2.5944    8.9375 C   0  0  0  0  0  0  0  0  0  0  0  0
    2.4685   -3.5077    9.4719 O   0  0  0  0  0  0  0  0  0  0  0  0
    2.8765   -4.8204    9.2328 N   0  0  0  0  0  0  0  0  0  0  0  0
    2.0405   -5.5275    8.3448 C   0  0  0  0  0  0  0  0  0  0  0  0
    2.0906   -6.7369    8.3668 O   0  0  0  0  0  0  0  0  0  0  0  0
    1.2914   -4.7478    7.2813 C   0  0  0  0  0  0  0  0  0  0  0  0
   -0.3321   -4.1554    7.8557 P   0  0  0  0  0  0  0  0  0  0  0  0
   -0.7693   -4.1595    9.2478 O   0  0  0  0  0  0  0  0  0  0  0  0
   -0.3059   -2.6981    7.1782 O   0  0  0  0  0  0  0  0  0  0  0  0
   -1.2690   -5.0007    6.8668 O   0  0  0  0  0  0  0  0  0  0  0  0
    4.4859   -0.1101    7.5624 C   0  0  0  0  0  0  0  0  0  0  0  0
    1.6395   -1.4224    5.3014 C   0  0  0  0  0  0  0  0  0  0  0  0
    2.1399    0.0045   -1.3460 C   0  0  0  0  0  0  0  0  0  0  0  0
   -0.4253   -0.1133   -1.0049 H   0  0  0  0  0  0  0  0  0  0  0  0
   -0.3934    0.9404    0.4142 H   0  0  0  0  0  0  0  0  0  0  0  0
   -0.4025   -0.8181    0.6149 H   0  0  0  0  0  0  0  0  0  0  0  0
    3.3046    0.0055    1.0971 H   0  0  0  0  0  0  0  0  0  0  0  0
    1.0503   -0.9656    2.6402 H   0  0  0  0  0  0  0  0  0  0  0  0
    0.8560    0.7893    2.5917 H   0  0  0  0  0  0  0  0  0  0  0  0
    3.1640    1.1271    3.4962 H   0  0  0  0  0  0  0  0  0  0  0  0
    3.4814   -0.6065    3.4566 H   0  0  0  0  0  0  0  0  0  0  0  0
    2.1730    2.0195    5.4667 H   0  0  0  0  0  0  0  0  0  0  0  0
    0.6822   -0.0028    7.2597 H   0  0  0  0  0  0  0  0  0  0  0  0
    0.5172    1.7563    7.2522 H   0  0  0  0  0  0  0  0  0  0  0  0
    1.8518    1.2218    9.1992 H   0  0  0  0  0  0  0  0  0  0  0  0
    2.9633    1.9414    8.0361 H   0  0  0  0  0  0  0  0  0  0  0  0
    1.7484   -1.3125    9.3750 H   0  0  0  0  0  0  0  0  0  0  0  0
    4.3124   -2.5683    9.6362 H   0  0  0  0  0  0  0  0  0  0  0  0
    3.8119   -2.9380    7.9500 H   0  0  0  0  0  0  0  0  0  0  0  0
    3.1250   -5.2439   10.1176 H   0  0  0  0  0  0  0  0  0  0  0  0
    1.1346   -5.4218    6.3764 H   0  0  0  0  0  0  0  0  0  0  0  0
    1.9000   -3.8573    6.9256 H   0  0  0  0  0  0  0  0  0  0  0  0
   -1.0762   -2.1373    7.5277 H   0  0  0  0  0  0  0  0  0  0  0  0
   -2.2281   -4.9976    7.2032 H   0  0  0  0  0  0  0  0  0  0  0  0
    5.1378    0.6369    8.0372 H   0  0  0  0  0  0  0  0  0  0  0  0
    4.3422    0.2049    6.5143 H   0  0  0  0  0  0  0  0  0  0  0  0
    5.0393   -1.0555    7.5412 H   0  0  0  0  0  0  0  0  0  0  0  0
    2.0534   -2.1762    4.6230 H   0  0  0  0  0  0  0  0  0  0  0  0
    0.5430   -1.5370    5.2807 H   0  0  0  0  0  0  0  0  0  0  0  0
    1.9613   -1.6802    6.3241 H   0  0  0  0  0  0  0  0  0  0  0  0
    1.8358    0.8855   -1.9292 H   0  0  0  0  0  0  0  0  0  0  0  0
    1.8562   -0.8869   -1.9239 H   0  0  0  0  0  0  0  0  0  0  0  0
    3.2361    0.0175   -1.2912 H   0  0  0  0  0  0  0  0  0  0  0  0
  1  2  1  0  0  0  0
  1 26  1  0  0  0  0
  1 27  1  0  0  0  0
  2  3  2  0  0  0  0
  3  4  1  0  0  0  0
  4 30  1  0  0  0  0
  4 29  1  0  0  0  0
  4  5  1  0  0  0  0
  5  6  1  0  0  0  0
  6 23  1  0  0  0  0
  6  7  2  0  0  0  0
  7  8  1  0  0  0  0
  8 35  1  0  0  0  0
  8 34  1  0  0  0  0
  8  9  1  0  0  0  0
  9 10  1  0  0  0  0
  9 36  1  0  0  0  0
 10 11  2  0  0  0  0
 11 12  1  0  0  0  0
 11 38  1  0  0  0  0
 12 13  1  0  0  0  0
 12 39  1  0  0  0  0
 14 13  1  0  0  0  0
 14 41  1  0  0  0  0
 15 16  2  0  0  0  0
 15 14  1  0  0  0  0
 17 18  1  0  0  0  0
 17 15  1  0  0  0  0
 18 19  2  0  0  0  0
 20 44  1  0  0  0  0
 20 18  1  0  0  0  0
 21 45  1  0  0  0  0
 21 18  1  0  0  0  0
 22 46  1  0  0  0  0
 22 10  1  0  0  0  0
 23 51  1  0  0  0  0
 24 54  1  0  0  0  0
 24  2  1  0  0  0  0
 25  1  1  0  0  0  0
 28  3  1  0  0  0  0
 31  5  1  0  0  0  0
 32  5  1  0  0  0  0
 33  7  1  0  0  0  0
 37  9  1  0  0  0  0
 40 12  1  0  0  0  0
 42 17  1  0  0  0  0
 43 17  1  0  0  0  0
 47 22  1  0  0  0  0
 48 22  1  0  0  0  0
 49 23  1  0  0  0  0
 50 23  1  0  0  0  0
 52 24  1  0  0  0  0
 53 24  1  0  0  0  0
M  END
$$$$
