
     RDKit          3D

 54 53  0  0  0  0  0  0  0  0999 V2000
    0.9855   -0.8536   -0.1981 C   0  0  0  0  0  0  0  0  0  0  0  0
    2.0736    0.1215    0.1650 C   0  0  0  0  0  0  0  0  0  0  0  0
    2.1673    0.7558    1.3476 C   0  0  0  0  0  0  0  0  0  0  0  0
    1.2824    0.6278    2.5554 C   0  0  0  0  0  0  0  0  0  0  0  0
    1.0435    1.9811    3.2610 C   0  0  0  0  0  0  0  0  0  0  0  0
    0.7281    1.8444    4.7331 C   0  0  0  0  0  0  0  0  0  0  0  0
    1.5707    2.3604    5.6467 C   0  0  0  0  0  0  0  0  0  0  0  0
    1.5012    2.2910    7.1438 C   0  0  0  0  0  0  0  0  0  0  0  0
    2.7502    1.6235    7.7612 C   0  0  0  0  0  0  0  0  0  0  0  0
    2.9592    0.1739    7.3845 C   0  0  0  0  0  0  0  0  0  0  0  0
    4.1551   -0.2766    6.9524 C   0  0  0  0  0  0  0  0  0  0  0  0
    4.4788   -1.7231    6.6583 C   0  0  0  0  0  0  0  0  0  0  0  0
    3.6127   -2.3345    5.6759 O   0  0  0  0  0  0  0  0  0  0  0  0
    3.7526   -1.7254    4.4513 N   0  0  0  0  0  0  0  0  0  0  0  0
    4.9028   -1.9343    3.7252 C   0  0  0  0  0  0  0  0  0  0  0  0
    5.6953   -2.8205    3.9471 O   0  0  0  0  0  0  0  0  0  0  0  0
    5.0974   -0.8834    2.6333 C   0  0  0  0  0  0  0  0  0  0  0  0
    5.5078    0.7095    3.4028 P   0  0  0  0  0  0  0  0  0  0  0  0
    6.5978    0.7181    4.4119 O   0  0  0  0  0  0  0  0  0  0  0  0
    5.6997    1.6432    2.0909 O   0  0  0  0  0  0  0  0  0  0  0  0
    4.0873    1.2542    4.0031 O   0  0  0  0  0  0  0  0  0  0  0  0
    1.7690   -0.7295    7.5669 C   0  0  0  0  0  0  0  0  0  0  0  0
   -0.5362    1.0935    5.0595 C   0  0  0  0  0  0  0  0  0  0  0  0
    3.1091    0.3478   -0.9076 C   0  0  0  0  0  0  0  0  0  0  0  0
    0.2096   -0.9446    0.5734 H   0  0  0  0  0  0  0  0  0  0  0  0
    1.4082   -1.8594   -0.3703 H   0  0  0  0  0  0  0  0  0  0  0  0
    0.4979   -0.5571   -1.1432 H   0  0  0  0  0  0  0  0  0  0  0  0
    3.0170    1.4347    1.4825 H   0  0  0  0  0  0  0  0  0  0  0  0
    1.7745   -0.0497    3.2764 H   0  0  0  0  0  0  0  0  0  0  0  0
    0.3262    0.1438    2.3058 H   0  0  0  0  0  0  0  0  0  0  0  0
    0.2237    2.5130    2.7439 H   0  0  0  0  0  0  0  0  0  0  0  0
    1.9452    2.5993    3.1490 H   0  0  0  0  0  0  0  0  0  0  0  0
    2.4472    2.8950    5.2597 H   0  0  0  0  0  0  0  0  0  0  0  0
    0.5940    1.7696    7.4814 H   0  0  0  0  0  0  0  0  0  0  0  0
    1.4358    3.3139    7.5563 H   0  0  0  0  0  0  0  0  0  0  0  0
    2.6552    1.6727    8.8623 H   0  0  0  0  0  0  0  0  0  0  0  0
    3.6497    2.2075    7.5040 H   0  0  0  0  0  0  0  0  0  0  0  0
    4.9884    0.4297    6.8515 H   0  0  0  0  0  0  0  0  0  0  0  0
    4.3328   -2.3569    7.5470 H   0  0  0  0  0  0  0  0  0  0  0  0
    5.5235   -1.8296    6.3309 H   0  0  0  0  0  0  0  0  0  0  0  0
    3.2558   -0.8399    4.3691 H   0  0  0  0  0  0  0  0  0  0  0  0
    4.2015   -0.7456    2.0072 H   0  0  0  0  0  0  0  0  0  0  0  0
    5.9440   -1.1961    2.0088 H   0  0  0  0  0  0  0  0  0  0  0  0
    6.1689    2.4649    2.3046 H   0  0  0  0  0  0  0  0  0  0  0  0
    4.0448    1.1537    4.9717 H   0  0  0  0  0  0  0  0  0  0  0  0
    1.0287   -0.5510    6.7704 H   0  0  0  0  0  0  0  0  0  0  0  0
    1.2629   -0.5133    8.5227 H   0  0  0  0  0  0  0  0  0  0  0  0
    2.0302   -1.7933    7.5281 H   0  0  0  0  0  0  0  0  0  0  0  0
   -0.4749    0.0463    4.7168 H   0  0  0  0  0  0  0  0  0  0  0  0
   -1.3942    1.5422    4.5295 H   0  0  0  0  0  0  0  0  0  0  0  0
   -0.7712    1.0835    6.1317 H   0  0  0  0  0  0  0  0  0  0  0  0
    2.6526    0.7800   -1.8160 H   0  0  0  0  0  0  0  0  0  0  0  0
    3.5696   -0.6074   -1.2174 H   0  0  0  0  0  0  0  0  0  0  0  0
    3.9103    1.0196   -0.5665 H   0  0  0  0  0  0  0  0  0  0  0  0
  1  2  1  0
  1 25  1  0
  1 26  1  0
  1 27  1  0
  2  3  2  3
  2 24  1  0
  3  4  1  0
  3 28  1  0
  4  5  1  0
  4 29  1  0
  4 30  1  0
  5  6  1  0
  5 31  1  0
  5 32  1  0
  6  7  2  0
  6 23  1  0
  7  8  1  0
  7 33  1  0
  8  9  1  0
  8 34  1  0
  8 35  1  0
  9 10  1  0
  9 36  1  0
  9 37  1  0
 10 11  2  0
 10 22  1  0
 11 12  1  0
 11 38  1  0
 12 13  1  0
 12 39  1  0
 12 40  1  0
 13 14  1  0
 14 15  1  0
 14 41  1  0
 15 16  2  0
 15 17  1  0
 17 18  1  0
 17 42  1  0
 17 43  1  0
 18 19  2  0
 18 20  1  0
 18 21  1  0
 20 44  1  0
 21 45  1  0
 22 46  1  0
 22 47  1  0
 22 48  1  0
 23 49  1  0
 23 50  1  0
 23 51  1  0
 24 52  1  0
 24 53  1  0
 24 54  1  0
M  END

