54
rmsd103.gzmat
C          0.00000        0.00000        0.00000
C          1.49310        0.00000        0.00000
C          2.23730        0.00000        1.11410
C          1.69310        0.00560        2.50560
C          1.82030        1.40740        3.13910
C          0.84470        2.35250        2.50010
C          1.22290        3.14120        1.48530
C          0.30380        4.03630        0.72550
C          0.03700        5.35290        1.47870
C         -1.01820        6.12010        0.73360
C         -0.67320        7.08960       -0.12450
C         -1.63150        7.86170       -0.95740
O         -1.36210        7.68750       -2.35880
N         -1.47690        6.39170       -2.82210
C         -2.76680        5.84600       -2.84830
O         -3.75690        6.49380       -2.59910
C         -2.87080        4.44760       -3.46240
P         -2.32870        3.07230       -2.42140
O         -2.52580        1.68330       -2.82370
O         -0.79060        3.48990       -2.22430
O         -2.97350        3.43330       -0.99770
C         -2.42230        5.70350        1.00910
C         -0.53590        2.32920        3.06720
C          2.12770       -0.00140       -1.35350
H         -0.42710        0.08620       -1.00790
H         -0.39530        0.83560        0.59740
H         -0.39850       -0.92830        0.43290
H          3.32400        0.00730        1.06330
H          2.24420       -0.72970        3.12670
H          0.63540       -0.32190        2.53240
H          2.86100        1.77100        3.02970
H          1.64510        1.34170        4.23030
H          2.25290        3.14140        1.13380
H         -0.66270        3.52270        0.53640
H          0.72020        4.26730       -0.27670
H          0.97720        5.92870        1.57470
H         -0.28350        5.14130        2.51730
H          0.36990        7.35690       -0.28410
H         -1.48890        8.95760       -0.86590
H         -2.69590        7.63760       -0.75750
H         -0.67990        5.83320       -2.53630
H         -2.28350        4.41470       -4.43550
H         -3.96420        4.27380       -3.73590
H         -0.28000        2.76360       -1.72980
H         -3.13760        2.57700       -0.47220
H         -2.49520        4.64390        1.29150
H         -3.08080        5.82310        0.13230
H         -2.85640        6.29560        1.82630
H         -0.62550        3.05660        3.88820
H         -0.80070        1.34500        3.47560
H         -1.30080        2.59020        2.32290
H          1.86260        0.90510       -1.91610
H          1.79010       -0.86370       -1.94650
H          3.22290       -0.04850       -1.31050
