rmsd85.gzmat
 OpenBabel08211713413D

 54 53  0  0  0  0  0  0  0  0999 V2000
    0.0000    0.0000    0.0000 C   0  0  0  0  0  0  0  0  0  0  0  0
    1.4941    0.0000    0.0000 C   0  0  0  0  0  0  0  0  0  0  0  0
    2.2465    0.0000    1.1080 C   0  0  0  0  0  0  0  0  0  0  0  0
    1.7250   -0.0652    2.5041 C   0  0  0  0  0  0  0  0  0  0  0  0
    2.5230    0.8352    3.4658 C   0  0  0  0  0  0  0  0  0  0  0  0
    2.0473    2.2582    3.4253 C   0  0  0  0  0  0  0  0  0  0  0  0
    2.8464    3.2402    2.9866 C   0  0  0  0  0  0  0  0  0  0  0  0
    2.4743    4.6870    2.9333 C   0  0  0  0  0  0  0  0  0  0  0  0
    1.5877    5.0024    1.7122 C   0  0  0  0  0  0  0  0  0  0  0  0
    2.2550    4.5556    0.4415 C   0  0  0  0  0  0  0  0  0  0  0  0
    3.3825    5.1483    0.0230 C   0  0  0  0  0  0  0  0  0  0  0  0
    4.1692    4.7249   -1.1653 C   0  0  0  0  0  0  0  0  0  0  0  0
    5.4064    4.1180   -0.7492 O   0  0  0  0  0  0  0  0  0  0  0  0
    5.2525    2.9228   -0.0724 N   0  0  0  0  0  0  0  0  0  0  0  0
    5.4911    1.7467   -0.7866 C   0  0  0  0  0  0  0  0  0  0  0  0
    5.2021    0.6932   -0.2585 O   0  0  0  0  0  0  0  0  0  0  0  0
    6.3049    1.8365   -2.0674 C   0  0  0  0  0  0  0  0  0  0  0  0
    5.2736    1.8372   -3.5575 P   0  0  0  0  0  0  0  0  0  0  0  0
    3.9002    2.3419   -3.5808 O   0  0  0  0  0  0  0  0  0  0  0  0
    6.2703    2.6218   -4.5393 O   0  0  0  0  0  0  0  0  0  0  0  0
    5.4128    0.3105   -4.0189 O   0  0  0  0  0  0  0  0  0  0  0  0
    1.5783    3.4291   -0.2530 C   0  0  0  0  0  0  0  0  0  0  0  0
    0.6571    2.4966    3.9156 C   0  0  0  0  0  0  0  0  0  0  0  0
    2.1272   -0.0184   -1.3526 C   0  0  0  0  0  0  0  0  0  0  0  0
   -0.4121    0.4242   -0.9248 H   0  0  0  0  0  0  0  0  0  0  0  0
   -0.4166    0.5793    0.8338 H   0  0  0  0  0  0  0  0  0  0  0  0
   -0.3878   -1.0247    0.0880 H   0  0  0  0  0  0  0  0  0  0  0  0
    3.3379    0.0132    1.0325 H   0  0  0  0  0  0  0  0  0  0  0  0
    1.7894   -1.1198    2.8519 H   0  0  0  0  0  0  0  0  0  0  0  0
    0.6493    0.1927    2.5547 H   0  0  0  0  0  0  0  0  0  0  0  0
    3.6043    0.7656    3.2261 H   0  0  0  0  0  0  0  0  0  0  0  0
    2.4317    0.4486    4.5016 H   0  0  0  0  0  0  0  0  0  0  0  0
    3.8530    3.0232    2.6356 H   0  0  0  0  0  0  0  0  0  0  0  0
    3.3879    5.3153    2.8987 H   0  0  0  0  0  0  0  0  0  0  0  0
    1.9440    4.9923    3.8585 H   0  0  0  0  0  0  0  0  0  0  0  0
    1.3777    6.0900    1.6733 H   0  0  0  0  0  0  0  0  0  0  0  0
    0.6015    4.5143    1.8408 H   0  0  0  0  0  0  0  0  0  0  0  0
    3.8214    5.9732    0.5805 H   0  0  0  0  0  0  0  0  0  0  0  0
    4.5642    5.5791   -1.7506 H   0  0  0  0  0  0  0  0  0  0  0  0
    3.6098    4.0673   -1.8566 H   0  0  0  0  0  0  0  0  0  0  0  0
    4.5450    2.9615    0.6515 H   0  0  0  0  0  0  0  0  0  0  0  0
    7.0125    0.9452   -2.1080 H   0  0  0  0  0  0  0  0  0  0  0  0
    6.9566    2.7685   -2.0715 H   0  0  0  0  0  0  0  0  0  0  0  0
    5.8011    2.8295   -5.4159 H   0  0  0  0  0  0  0  0  0  0  0  0
    4.6700    0.0788   -4.6755 H   0  0  0  0  0  0  0  0  0  0  0  0
    0.5369    3.6733   -0.5025 H   0  0  0  0  0  0  0  0  0  0  0  0
    1.5553    2.5296    0.3925 H   0  0  0  0  0  0  0  0  0  0  0  0
    2.0695    3.1239   -1.1890 H   0  0  0  0  0  0  0  0  0  0  0  0
    0.2655    1.6563    4.5029 H   0  0  0  0  0  0  0  0  0  0  0  0
   -0.0317    2.6522    3.0720 H   0  0  0  0  0  0  0  0  0  0  0  0
    0.5971    3.3898    4.5530 H   0  0  0  0  0  0  0  0  0  0  0  0
    2.0015    0.9431   -1.8714 H   0  0  0  0  0  0  0  0  0  0  0  0
    1.6955   -0.7957   -1.9941 H   0  0  0  0  0  0  0  0  0  0  0  0
    3.2113   -0.2127   -1.3001 H   0  0  0  0  0  0  0  0  0  0  0  0
  1  2  1  0  0  0  0
  1 27  1  0  0  0  0
  1 26  1  0  0  0  0
  2  3  2  0  0  0  0
  3  4  1  0  0  0  0
  4 30  1  0  0  0  0
  4 29  1  0  0  0  0
  4  5  1  0  0  0  0
  5 32  1  0  0  0  0
  6  5  1  0  0  0  0
  6 23  1  0  0  0  0
  7  6  2  0  0  0  0
  8  7  1  0  0  0  0
  8 35  1  0  0  0  0
  9 37  1  0  0  0  0
  9  8  1  0  0  0  0
 10  9  1  0  0  0  0
 11 10  2  0  0  0  0
 11 38  1  0  0  0  0
 12 13  1  0  0  0  0
 12 11  1  0  0  0  0
 13 14  1  0  0  0  0
 14 41  1  0  0  0  0
 15 16  2  0  0  0  0
 15 14  1  0  0  0  0
 17 15  1  0  0  0  0
 18 17  1  0  0  0  0
 19 18  2  0  0  0  0
 20 18  1  0  0  0  0
 21 18  1  0  0  0  0
 22 47  1  0  0  0  0
 22 10  1  0  0  0  0
 23 49  1  0  0  0  0
 23 51  1  0  0  0  0
 24 54  1  0  0  0  0
 24  2  1  0  0  0  0
 25  1  1  0  0  0  0
 28  3  1  0  0  0  0
 31  5  1  0  0  0  0
 33  7  1  0  0  0  0
 34  8  1  0  0  0  0
 36  9  1  0  0  0  0
 39 12  1  0  0  0  0
 40 12  1  0  0  0  0
 42 17  1  0  0  0  0
 43 17  1  0  0  0  0
 44 20  1  0  0  0  0
 45 21  1  0  0  0  0
 46 22  1  0  0  0  0
 48 22  1  0  0  0  0
 50 23  1  0  0  0  0
 52 24  1  0  0  0  0
 53 24  1  0  0  0  0
M  END
$$$$
