54

C          1.47080        1.68260        0.08190
C          1.61100        0.18760       -0.04250
C          1.18820       -0.69620        0.87850
C          0.52990       -0.41760        2.19860
C          1.45170       -0.74150        3.39360
C          0.82410       -0.50250        4.74630
C          1.36310        0.39440        5.59090
C          0.89660        0.76210        6.97130
C          2.03640        0.99200        7.99180
C          2.76220       -0.26330        8.41460
C          2.57780       -0.75470        9.65730
C          3.13600       -2.04050       10.16910
O          2.17590       -3.08680        9.83280
N          2.63880       -4.36360       10.12220
C          2.82230       -5.27080        9.08530
O          2.88190       -6.45440        9.32560
C          3.00430       -4.68140        7.69740
P          1.44560       -4.26210        6.81910
O          0.47210       -5.37530        6.72010
O          0.95360       -2.87880        7.47230
O          1.99040       -3.73850        5.37170
C          3.63340       -0.91100        7.37450
C         -0.41300       -1.30790        5.04460
C          2.27850       -0.27360       -1.31310
H          0.87950        2.08950       -0.75760
H          2.46090        2.16870        0.02630
H          0.99250        1.99850        1.01800
H          1.36680       -1.75940        0.66950
H         -0.38650       -1.02860        2.27580
H          0.20710        0.63190        2.27480
H          2.37570       -0.14910        3.29720
H          1.75430       -1.80360        3.33300
H          2.24720        0.94320        5.24080
H          0.20490        0.00410        7.36790
H          0.32290        1.70690        6.91900
H          1.61400        1.47930        8.88390
H          2.76300        1.70080        7.55410
H          1.90570       -0.21800       10.33450
H          3.25560       -2.03390       11.26430
H          4.10240       -2.30700        9.71540
H          2.23770       -4.74960       10.97720
H          3.48330       -5.46290        7.09250
H          3.64490       -3.78950        7.70680
H          1.23100       -2.81300        8.41530
H          1.65030       -4.32150        4.67650
H          4.24590       -0.15430        6.86010
H          3.00840       -1.38700        6.60330
H          4.31050       -1.66830        7.79280
H         -0.29750       -2.34120        4.68190
H         -1.29210       -0.88250        4.52970
H         -0.63680       -1.36200        6.11600
H          3.29360        0.15310       -1.40450
H          1.71800        0.06870       -2.20160
H          2.36130       -1.36930       -1.36160
