
     RDKit          3D

 54 53  0  0  0  0  0  0  0  0999 V2000
    0.4086    0.2822   -0.2826 C   0  0  0  0  0  0  0  0  0  0  0  0
    1.8805    0.5124   -0.0634 C   0  0  0  0  0  0  0  0  0  0  0  0
    2.5128    0.3137    1.1063 C   0  0  0  0  0  0  0  0  0  0  0  0
    1.9103   -0.1120    2.4146 C   0  0  0  0  0  0  0  0  0  0  0  0
    1.5725    1.0936    3.3336 C   0  0  0  0  0  0  0  0  0  0  0  0
    0.4181    1.9181    2.8110 C   0  0  0  0  0  0  0  0  0  0  0  0
    0.6512    3.0058    2.0568 C   0  0  0  0  0  0  0  0  0  0  0  0
   -0.3454    3.9009    1.3825 C   0  0  0  0  0  0  0  0  0  0  0  0
   -0.2982    5.3426    1.9309 C   0  0  0  0  0  0  0  0  0  0  0  0
   -1.2698    6.2821    1.2541 C   0  0  0  0  0  0  0  0  0  0  0  0
   -2.2670    6.8618    1.9595 C   0  0  0  0  0  0  0  0  0  0  0  0
   -3.3234    7.7710    1.4131 C   0  0  0  0  0  0  0  0  0  0  0  0
   -3.3612    9.0759    2.0523 O   0  0  0  0  0  0  0  0  0  0  0  0
   -2.1388    9.6999    2.0899 N   0  0  0  0  0  0  0  0  0  0  0  0
   -1.4311    9.9763    0.9556 C   0  0  0  0  0  0  0  0  0  0  0  0
   -1.8626    9.8484   -0.1729 O   0  0  0  0  0  0  0  0  0  0  0  0
   -0.0071   10.4498    1.2598 C   0  0  0  0  0  0  0  0  0  0  0  0
    1.0847    9.1065    1.8268 P   0  0  0  0  0  0  0  0  0  0  0  0
    1.5097    8.0941    0.8245 O   0  0  0  0  0  0  0  0  0  0  0  0
    2.2737    9.9540    2.5240 O   0  0  0  0  0  0  0  0  0  0  0  0
    0.3148    8.4830    3.1227 O   0  0  0  0  0  0  0  0  0  0  0  0
   -1.0474    6.4870   -0.2217 C   0  0  0  0  0  0  0  0  0  0  0  0
   -0.9500    1.3803    3.1396 C   0  0  0  0  0  0  0  0  0  0  0  0
    2.6231    1.0162   -1.2738 C   0  0  0  0  0  0  0  0  0  0  0  0
   -0.0973    1.2366   -0.5108 H   0  0  0  0  0  0  0  0  0  0  0  0
   -0.0956   -0.1582    0.5863 H   0  0  0  0  0  0  0  0  0  0  0  0
    0.2415   -0.3792   -1.1508 H   0  0  0  0  0  0  0  0  0  0  0  0
    3.5848    0.5462    1.1415 H   0  0  0  0  0  0  0  0  0  0  0  0
    2.6225   -0.7630    2.9491 H   0  0  0  0  0  0  0  0  0  0  0  0
    1.0018   -0.7147    2.2586 H   0  0  0  0  0  0  0  0  0  0  0  0
    2.4715    1.7231    3.4328 H   0  0  0  0  0  0  0  0  0  0  0  0
    1.3347    0.7126    4.3422 H   0  0  0  0  0  0  0  0  0  0  0  0
    1.6990    3.2900    1.8994 H   0  0  0  0  0  0  0  0  0  0  0  0
   -1.3703    3.5124    1.4798 H   0  0  0  0  0  0  0  0  0  0  0  0
   -0.1213    3.9256    0.3015 H   0  0  0  0  0  0  0  0  0  0  0  0
    0.7208    5.7431    1.7855 H   0  0  0  0  0  0  0  0  0  0  0  0
   -0.4887    5.3103    3.0166 H   0  0  0  0  0  0  0  0  0  0  0  0
   -2.3561    6.6258    3.0286 H   0  0  0  0  0  0  0  0  0  0  0  0
   -4.3278    7.3788    1.6353 H   0  0  0  0  0  0  0  0  0  0  0  0
   -3.2317    7.9111    0.3292 H   0  0  0  0  0  0  0  0  0  0  0  0
   -1.6579    9.6116    2.9817 H   0  0  0  0  0  0  0  0  0  0  0  0
   -0.0005   11.2231    2.0434 H   0  0  0  0  0  0  0  0  0  0  0  0
    0.4130   10.8668    0.3354 H   0  0  0  0  0  0  0  0  0  0  0  0
    3.0946    9.4382    2.5523 H   0  0  0  0  0  0  0  0  0  0  0  0
   -0.2733    7.7578    2.8326 H   0  0  0  0  0  0  0  0  0  0  0  0
   -1.5337    7.3911   -0.6067 H   0  0  0  0  0  0  0  0  0  0  0  0
   -1.4258    5.6203   -0.7900 H   0  0  0  0  0  0  0  0  0  0  0  0
    0.0299    6.5810   -0.4189 H   0  0  0  0  0  0  0  0  0  0  0  0
   -1.1210    1.4042    4.2301 H   0  0  0  0  0  0  0  0  0  0  0  0
   -1.0410    0.3227    2.8373 H   0  0  0  0  0  0  0  0  0  0  0  0
   -1.7646    1.9360    2.6575 H   0  0  0  0  0  0  0  0  0  0  0  0
    2.1931    1.9703   -1.6281 H   0  0  0  0  0  0  0  0  0  0  0  0
    2.5397    0.3068   -2.1165 H   0  0  0  0  0  0  0  0  0  0  0  0
    3.6906    1.1789   -1.0652 H   0  0  0  0  0  0  0  0  0  0  0  0
  1  2  1  0
  1 25  1  0
  1 26  1  0
  1 27  1  0
  2  3  2  3
  2 24  1  0
  3  4  1  0
  3 28  1  0
  4  5  1  0
  4 29  1  0
  4 30  1  0
  5  6  1  0
  5 31  1  0
  5 32  1  0
  6  7  2  0
  6 23  1  0
  7  8  1  0
  7 33  1  0
  8  9  1  0
  8 34  1  0
  8 35  1  0
  9 10  1  0
  9 36  1  0
  9 37  1  0
 10 11  2  0
 10 22  1  0
 11 12  1  0
 11 38  1  0
 12 13  1  0
 12 39  1  0
 12 40  1  0
 13 14  1  0
 14 15  1  0
 14 41  1  0
 15 16  2  0
 15 17  1  0
 17 18  1  0
 17 42  1  0
 17 43  1  0
 18 19  2  0
 18 20  1  0
 18 21  1  0
 20 44  1  0
 21 45  1  0
 22 46  1  0
 22 47  1  0
 22 48  1  0
 23 49  1  0
 23 50  1  0
 23 51  1  0
 24 52  1  0
 24 53  1  0
 24 54  1  0
M  END

