54
rmsd142.gzmat
C          0.00000        0.00000        0.00000
C          1.49470        0.00000        0.00000
C          2.23440        0.00000        1.11630
C          1.68920        0.00450        2.50690
C          2.28360       -1.14930        3.33830
C          1.80850       -2.47580        2.82590
C          2.63630       -3.30920        2.18150
C          2.20180       -4.62180        1.61700
C          3.26410       -5.24820        0.69800
C          3.74350       -4.29670       -0.36230
C          5.05760       -4.13960       -0.58090
C          5.63550       -3.21220       -1.59060
O          5.07030       -1.89300       -1.51590
N          5.28940       -1.25150       -0.31170
C          6.59130       -0.76120       -0.11430
O          7.40630       -0.70550       -1.00330
C          6.82790       -0.07920        1.23500
P          7.07240       -1.20960        2.63000
O          7.57420       -0.75130        3.92040
O          5.59360       -1.83780        2.68780
O          7.93790       -2.37400        1.95540
C          2.68720       -3.56280       -1.11160
C          0.36980       -2.80000        3.06320
C          2.12930        0.01440       -1.35160
H         -0.42180        0.01170       -1.01270
H         -0.39850        0.87950        0.52510
H         -0.39790       -0.89170        0.50490
H          3.32290       -0.00290        1.06670
H          0.58450       -0.06120        2.51850
H          1.93340        0.97270        2.99250
H          2.00140       -1.02870        4.40270
H          3.39170       -1.08280        3.31830
H          3.68260       -3.05650        2.01770
H          1.25110       -4.49890        1.05590
H          1.96760       -5.32690        2.44240
H          2.84740       -6.15480        0.21120
H          4.11180       -5.60950        1.31570
H          5.79570       -4.69170       -0.00250
H          5.36700       -3.48570       -2.63090
H          6.73790       -3.13970       -1.52380
H          4.78200       -1.71180        0.44070
H          5.96330        0.61630        1.47850
H          7.75580        0.57360        1.13820
H          5.47550       -2.43310        3.49790
H          8.40530       -2.91970        2.67670
H          2.36090       -2.67550       -0.53560
H          1.79570       -4.17570       -1.29060
H          3.03460       -3.18880       -2.08480
H         -0.18520       -2.84000        2.11390
H         -0.13230       -2.06160        3.70060
H          0.25310       -3.77840        3.55050
H          1.91750        0.95590       -1.87650
H          1.75760       -0.80500       -1.98130
H          3.22610       -0.09050       -1.30980
