43
rmsd58.gzmat
C          0.00000        0.00000        0.00000
O          1.20710        0.00000        0.00000
C         -0.88630        0.00000       -1.26020
C         -2.34600       -0.01630       -0.71070
C         -2.21650       -0.00150        0.78410
C         -3.23360        0.00560        1.71780
C         -2.89750        0.02120        3.08290
C         -1.56020        0.02470        3.48050
C         -0.52150        0.01610        2.53470
C         -0.86760        0.00520        1.17580
N          0.84200        0.02270        2.85010
C          1.38820       -0.00640        4.13810
O          0.70170       -0.03570        5.13180
C          2.89030        0.01630        4.17290
C         -3.96340        0.03750        4.16640
C         -3.78590       -1.21260        5.04670
C         -3.77940        1.31170        5.01030
C         -5.39270        0.03180        3.60170
C         -0.57550       -1.24790       -2.07770
C         -0.59490        1.27040       -2.05180
H         -2.92410        0.85190       -1.07410
H         -2.89840       -0.90880       -1.05620
H         -4.26830        0.00010        1.39380
H         -1.31690        0.03490        4.54620
H          1.47490        0.03260        2.03700
H          3.36080       -0.52990        3.34540
H          3.25140       -0.43230        5.11310
H          3.26250        1.05210        4.14950
H         -3.84290       -2.12880        4.44890
H         -4.55940       -1.26640        5.81930
H         -2.81520       -1.21670        5.55780
H         -3.82810        2.21040        4.38610
H         -2.81000        1.32370        5.52340
H         -4.55430        1.39340        5.77880
H         -5.58010        0.90430        2.96660
H         -6.13200        0.05710        4.41050
H         -5.59040       -0.87080        3.01330
H         -0.77470       -2.16630       -1.51240
H          0.48500       -1.27240       -2.36820
H         -1.16940       -1.28540       -2.99740
H         -0.80800        2.17320       -1.46620
H         -1.18940        1.31860       -2.97020
H          0.46510        1.31760       -2.34160
