43
rmsd52.gzmat
C          0.00000        0.00000        0.00000
O          1.20730        0.00000        0.00000
C         -0.88660        0.00000       -1.25970
C         -2.34630        0.01980       -0.71050
C         -2.21710        0.00770        0.78400
C         -3.22810        0.00210        1.71930
C         -2.89020       -0.00760        3.08990
C         -1.55820       -0.02420        3.48540
C         -0.52050       -0.02940        2.53260
C         -0.86640       -0.00460        1.17590
N          0.84280       -0.05950        2.84570
C          1.39230       -0.16470        4.12890
O          0.71010       -0.21900        5.12390
C          2.89390       -0.21500        4.14900
C         -4.01790       -0.03380        4.10880
C         -3.53200        0.18850        5.54950
C         -5.03500        1.07300        3.77570
C         -4.68640       -1.41800        4.02110
C         -0.59600       -1.27200       -2.04870
C         -0.57600        1.24660       -2.07950
H         -2.89740        0.91230       -1.05740
H         -2.92570       -0.84880       -1.07070
H         -4.26790        0.00240        1.41070
H         -1.29950       -0.03760        4.54690
H          1.47500       -0.03840        2.03150
H          3.25420       -1.23420        3.94000
H          3.26780        0.06010        5.14910
H          3.36400        0.46270        3.42390
H         -2.85050       -0.60580        5.87870
H         -4.37210        0.19980        6.25230
H         -3.00430        1.14390        5.65440
H         -5.53800        0.89810        2.82000
H         -4.54460        2.05150        3.71850
H         -5.81360        1.13660        4.54260
H         -5.09110       -1.61040        3.02260
H         -5.50990       -1.50500        4.73690
H         -3.96840       -2.21650        4.24290
H         -0.83150       -2.17330       -1.46960
H          0.46880       -1.33160       -2.31780
H         -1.17260       -1.31070       -2.97900
H         -0.73430        2.16450       -1.50020
H         -1.20270        1.30400       -2.97570
H          0.47360        1.25060       -2.40730
