43

C         -0.00170        0.05790        0.04140
O          1.22310        0.07530        0.06410
C         -0.85320        0.03540       -1.24620
C         -2.32370        0.02360       -0.73350
C         -2.23440        0.03280        0.77660
C         -3.25520        0.02450        1.71730
C         -2.93580        0.03710        3.09280
C         -1.59130        0.05810        3.50230
C         -0.54990        0.06650        2.55960
C         -0.89710        0.05340        1.19220
N          0.80700        0.08720        2.86440
C          1.40560        0.10080        4.10780
O          0.79000        0.10450        5.15740
C          2.92280        0.09390        4.04370
C         -4.07690        0.02760        4.12250
C         -3.56070        0.04310        5.56960
C         -4.95960        1.27590        3.90840
C         -4.92530       -1.24650        3.92310
C         -0.50010       -1.23130       -2.04000
C         -0.52850        1.29150       -2.06790
H         -2.88690        0.89900       -1.09660
H         -2.87050       -0.86550       -1.08790
H         -4.29680        0.00850        1.39170
H         -1.32100        0.06870        4.55150
H          1.40550        0.08810        2.03380
H          3.28140       -0.87600        3.66210
H          3.31930        0.25160        5.05350
H          3.29920        0.87750        3.36750
H         -2.93950       -0.83710        5.79230
H         -4.41360        0.03560        6.26550
H         -2.96350        0.94230        5.78190
H         -5.40390        1.29800        2.90230
H         -4.37150        2.19770        4.03810
H         -5.78350        1.28950        4.63990
H         -5.36880       -1.29230        2.91740
H         -5.74870       -1.27400        4.65480
H         -4.31250       -2.15050        4.06340
H         -0.73490       -2.14010       -1.46310
H          0.57480       -1.24450       -2.27410
H         -1.06700       -1.26780       -2.98390
H         -0.78330        2.20750       -1.51110
H         -1.09610        1.29470       -3.01210
H          0.54590        1.32350       -2.30280
