rmsd53.gzmat
 OpenBabel08211713373D

 43 44  0  0  0  0  0  0  0  0999 V2000
    0.0000    0.0000    0.0000 C   0  0  0  0  0  0  0  0  0  0  0  0
    1.2069    0.0000    0.0000 O   0  0  0  0  0  0  0  0  0  0  0  0
   -0.8879    0.0000   -1.2600 C   0  0  0  0  0  0  0  0  0  0  0  0
   -2.3465   -0.0324   -0.7104 C   0  0  0  0  0  0  0  0  0  0  0  0
   -2.2157   -0.0120    0.7838 C   0  0  0  0  0  0  0  0  0  0  0  0
   -3.2345   -0.0060    1.7152 C   0  0  0  0  0  0  0  0  0  0  0  0
   -2.9019    0.0167    3.0810 C   0  0  0  0  0  0  0  0  0  0  0  0
   -1.5655    0.0297    3.4802 C   0  0  0  0  0  0  0  0  0  0  0  0
   -0.5248    0.0255    2.5360 C   0  0  0  0  0  0  0  0  0  0  0  0
   -0.8675    0.0042    1.1762 C   0  0  0  0  0  0  0  0  0  0  0  0
    0.8372    0.0418    2.8577 N   0  0  0  0  0  0  0  0  0  0  0  0
    1.3767    0.0977    4.1484 C   0  0  0  0  0  0  0  0  0  0  0  0
    0.6860    0.1253    5.1389 O   0  0  0  0  0  0  0  0  0  0  0  0
    2.8787    0.1263    4.1836 C   0  0  0  0  0  0  0  0  0  0  0  0
   -3.9719    0.0229    4.1605 C   0  0  0  0  0  0  0  0  0  0  0  0
   -3.8054   -1.2467    5.0147 C   0  0  0  0  0  0  0  0  0  0  0  0
   -3.7879    1.2793    5.0306 C   0  0  0  0  0  0  0  0  0  0  0  0
   -5.3991    0.0405    3.5896 C   0  0  0  0  0  0  0  0  0  0  0  0
   -0.5694   -1.2379   -2.0898 C   0  0  0  0  0  0  0  0  0  0  0  0
   -0.6133    1.2792   -2.0432 C   0  0  0  0  0  0  0  0  0  0  0  0
   -2.9361    0.8282   -1.0739 H   0  0  0  0  0  0  0  0  0  0  0  0
   -2.8875   -0.9328   -1.0534 H   0  0  0  0  0  0  0  0  0  0  0  0
   -4.2682   -0.0185    1.3888 H   0  0  0  0  0  0  0  0  0  0  0  0
   -1.3237    0.0428    4.5462 H   0  0  0  0  0  0  0  0  0  0  0  0
    1.4740    0.0285    2.0484 H   0  0  0  0  0  0  0  0  0  0  0  0
    3.3327   -0.6761    3.5861 H   0  0  0  0  0  0  0  0  0  0  0  0
    3.2358    0.0082    5.2202 H   0  0  0  0  0  0  0  0  0  0  0  0
    3.2718    1.0848    3.8148 H   0  0  0  0  0  0  0  0  0  0  0  0
   -3.8717   -2.1495    4.3977 H   0  0  0  0  0  0  0  0  0  0  0  0
   -4.5784   -1.3096    5.7871 H   0  0  0  0  0  0  0  0  0  0  0  0
   -2.8345   -1.2700    5.5241 H   0  0  0  0  0  0  0  0  0  0  0  0
   -3.8343    2.1905    4.4242 H   0  0  0  0  0  0  0  0  0  0  0  0
   -2.8210    1.2804    5.5477 H   0  0  0  0  0  0  0  0  0  0  0  0
   -4.5659    1.3473    5.7977 H   0  0  0  0  0  0  0  0  0  0  0  0
   -5.5763    0.9322    2.9788 H   0  0  0  0  0  0  0  0  0  0  0  0
   -6.1417    0.0477    4.3956 H   0  0  0  0  0  0  0  0  0  0  0  0
   -5.6004   -0.8430    2.9747 H   0  0  0  0  0  0  0  0  0  0  0  0
   -0.7707   -2.1633   -1.5365 H   0  0  0  0  0  0  0  0  0  0  0  0
    0.4929   -1.2574   -2.3734 H   0  0  0  0  0  0  0  0  0  0  0  0
   -1.1571   -1.2652   -3.0139 H   0  0  0  0  0  0  0  0  0  0  0  0
   -0.8397    2.1751   -1.4521 H   0  0  0  0  0  0  0  0  0  0  0  0
   -1.2100    1.3243   -2.9608 H   0  0  0  0  0  0  0  0  0  0  0  0
    0.4450    1.3427   -2.3337 H   0  0  0  0  0  0  0  0  0  0  0  0
  1 10  1  0  0  0  0
  2  1  2  0  0  0  0
  3  4  1  0  0  0  0
  3  1  1  0  0  0  0
  4  5  1  0  0  0  0
  5 10  2  0  0  0  0
  5  6  1  0  0  0  0
  6  7  2  0  0  0  0
  7  8  1  0  0  0  0
  7 15  1  0  0  0  0
  8 24  1  0  0  0  0
  9 11  1  0  0  0  0
  9  8  2  0  0  0  0
 10  9  1  0  0  0  0
 11 12  1  0  0  0  0
 12 14  1  0  0  0  0
 12 13  2  0  0  0  0
 14 27  1  0  0  0  0
 15 16  1  0  0  0  0
 15 17  1  0  0  0  0
 16 31  1  0  0  0  0
 16 30  1  0  0  0  0
 17 33  1  0  0  0  0
 17 34  1  0  0  0  0
 18 15  1  0  0  0  0
 18 36  1  0  0  0  0
 19 38  1  0  0  0  0
 19  3  1  0  0  0  0
 20 41  1  0  0  0  0
 20  3  1  0  0  0  0
 21  4  1  0  0  0  0
 22  4  1  0  0  0  0
 23  6  1  0  0  0  0
 25 11  1  0  0  0  0
 26 14  1  0  0  0  0
 28 14  1  0  0  0  0
 29 16  1  0  0  0  0
 32 17  1  0  0  0  0
 35 18  1  0  0  0  0
 37 18  1  0  0  0  0
 39 19  1  0  0  0  0
 40 19  1  0  0  0  0
 42 20  1  0  0  0  0
 43 20  1  0  0  0  0
M  END
$$$$
