43
rmsd46.gzmat
C          0.00000        0.00000        0.00000
O          1.20690        0.00000        0.00000
C         -0.88800        0.00000       -1.25970
C         -2.34540       -0.06830       -0.70820
C         -2.21500       -0.02970        0.78580
C         -3.23310       -0.02220        1.71850
C         -2.89860        0.02050        3.08330
C         -1.56170        0.04430        3.48100
C         -0.52180        0.03950        2.53630
C         -0.86640        0.00300        1.17730
N          0.84090        0.06160        2.85580
C          1.38110        0.18740        4.14130
O          0.68940        0.28560        5.12670
C          2.88320        0.17640        4.18170
C         -3.96600        0.02940        4.16550
C         -3.84080       -1.27730        4.96920
C         -3.73840        1.24390        5.08320
C         -5.39300        0.11920        3.60090
C         -0.54390       -1.21670       -2.11010
C         -0.64180        1.29840       -2.02130
H         -2.96060        0.76940       -1.08190
H         -2.86010       -0.98800       -1.04040
H         -4.26690       -0.04940        1.39340
H         -1.31940        0.06740        4.54680
H          1.47630        0.01370        2.04650
H          3.27160       -0.84910        4.08920
H          3.23900        0.56990        5.14820
H          3.34400        0.78300        3.39090
H         -3.95130       -2.15280        4.32000
H         -4.60750       -1.33730        5.74830
H         -2.86490       -1.35830        5.46260
H         -3.74980        2.17870        4.51190
H         -2.77300        1.19200        5.60140
H         -4.51390        1.31060        5.85260
H         -5.53120        1.02390        2.99930
H         -6.13080        0.15340        4.41080
H         -5.63930       -0.74850        2.98010
H         -0.72280       -2.15510       -1.57140
H          0.51820       -1.20790       -2.39720
H         -1.13450       -1.24380       -3.03200
H         -0.86910        2.17900       -1.40780
H         -1.25490        1.35480       -2.92720
H          0.41040        1.38210       -2.32860
