rmsd48.gzmat
 OpenBabel08211713373D

 43 44  0  0  0  0  0  0  0  0999 V2000
    0.0000    0.0000    0.0000 C   0  0  0  0  0  0  0  0  0  0  0  0
    1.2069    0.0000    0.0000 O   0  0  0  0  0  0  0  0  0  0  0  0
   -0.8881    0.0000   -1.2599 C   0  0  0  0  0  0  0  0  0  0  0  0
   -2.3461    0.0585   -0.7095 C   0  0  0  0  0  0  0  0  0  0  0  0
   -2.2153    0.0188    0.7840 C   0  0  0  0  0  0  0  0  0  0  0  0
   -3.2336    0.0044    1.7156 C   0  0  0  0  0  0  0  0  0  0  0  0
   -2.9002   -0.0362    3.0808 C   0  0  0  0  0  0  0  0  0  0  0  0
   -1.5636   -0.0493    3.4805 C   0  0  0  0  0  0  0  0  0  0  0  0
   -0.5234   -0.0367    2.5356 C   0  0  0  0  0  0  0  0  0  0  0  0
   -0.8673   -0.0061    1.1762 C   0  0  0  0  0  0  0  0  0  0  0  0
    0.8395   -0.0527    2.8520 N   0  0  0  0  0  0  0  0  0  0  0  0
    1.3874   -0.1137    4.1390 C   0  0  0  0  0  0  0  0  0  0  0  0
    0.7037   -0.1514    5.1337 O   0  0  0  0  0  0  0  0  0  0  0  0
    2.8901   -0.1290    4.1604 C   0  0  0  0  0  0  0  0  0  0  0  0
   -3.9733   -0.0635    4.1569 C   0  0  0  0  0  0  0  0  0  0  0  0
   -3.7522   -1.3017    5.0441 C   0  0  0  0  0  0  0  0  0  0  0  0
   -3.8510    1.2212    4.9953 C   0  0  0  0  0  0  0  0  0  0  0  0
   -5.3967   -0.1340    3.5801 C   0  0  0  0  0  0  0  0  0  0  0  0
   -0.6313   -1.2941   -2.0249 C   0  0  0  0  0  0  0  0  0  0  0  0
   -0.5517    1.2229   -2.1038 C   0  0  0  0  0  0  0  0  0  0  0  0
   -2.8668    0.9762   -1.0386 H   0  0  0  0  0  0  0  0  0  0  0  0
   -2.9563   -0.7820   -1.0849 H   0  0  0  0  0  0  0  0  0  0  0  0
   -4.2673    0.0233    1.3889 H   0  0  0  0  0  0  0  0  0  0  0  0
   -1.3216   -0.0715    4.5462 H   0  0  0  0  0  0  0  0  0  0  0  0
    1.4730   -0.0344    2.0394 H   0  0  0  0  0  0  0  0  0  0  0  0
    3.2947   -1.0493    3.7144 H   0  0  0  0  0  0  0  0  0  0  0  0
    3.2554   -0.0836    5.1996 H   0  0  0  0  0  0  0  0  0  0  0  0
    3.3253    0.7253    3.6237 H   0  0  0  0  0  0  0  0  0  0  0  0
   -3.7238   -2.2180    4.4444 H   0  0  0  0  0  0  0  0  0  0  0  0
   -4.5533   -1.4082    5.7820 H   0  0  0  0  0  0  0  0  0  0  0  0
   -2.8068   -1.2449    5.5972 H   0  0  0  0  0  0  0  0  0  0  0  0
   -3.9617    2.1139    4.3701 H   0  0  0  0  0  0  0  0  0  0  0  0
   -2.8761    1.2900    5.4931 H   0  0  0  0  0  0  0  0  0  0  0  0
   -4.6195    1.2597    5.7740 H   0  0  0  0  0  0  0  0  0  0  0  0
   -5.6303    0.7454    2.9707 H   0  0  0  0  0  0  0  0  0  0  0  0
   -6.1422   -0.1754    4.3823 H   0  0  0  0  0  0  0  0  0  0  0  0
   -5.5365   -1.0277    2.9623 H   0  0  0  0  0  0  0  0  0  0  0  0
   -0.8929   -2.1771   -1.4287 H   0  0  0  0  0  0  0  0  0  0  0  0
    0.4307   -1.3883   -2.2937 H   0  0  0  0  0  0  0  0  0  0  0  0
   -1.2102   -1.3344   -2.9537 H   0  0  0  0  0  0  0  0  0  0  0  0
   -0.7211    2.1566   -1.5535 H   0  0  0  0  0  0  0  0  0  0  0  0
   -1.1527    1.2591   -3.0189 H   0  0  0  0  0  0  0  0  0  0  0  0
    0.5063    1.2144   -2.4040 H   0  0  0  0  0  0  0  0  0  0  0  0
  1 10  1  0  0  0  0
  2  1  2  0  0  0  0
  3  4  1  0  0  0  0
  3  1  1  0  0  0  0
  4  5  1  0  0  0  0
  5 10  2  0  0  0  0
  5  6  1  0  0  0  0
  6  7  2  0  0  0  0
  7  8  1  0  0  0  0
  7 15  1  0  0  0  0
  8 24  1  0  0  0  0
  9 11  1  0  0  0  0
  9  8  2  0  0  0  0
 10  9  1  0  0  0  0
 11 12  1  0  0  0  0
 12 14  1  0  0  0  0
 12 13  2  0  0  0  0
 14 27  1  0  0  0  0
 15 17  1  0  0  0  0
 15 16  1  0  0  0  0
 16 31  1  0  0  0  0
 16 30  1  0  0  0  0
 17 33  1  0  0  0  0
 17 34  1  0  0  0  0
 18 15  1  0  0  0  0
 18 36  1  0  0  0  0
 19 38  1  0  0  0  0
 19  3  1  0  0  0  0
 20 41  1  0  0  0  0
 20  3  1  0  0  0  0
 21  4  1  0  0  0  0
 22  4  1  0  0  0  0
 23  6  1  0  0  0  0
 25 11  1  0  0  0  0
 26 14  1  0  0  0  0
 28 14  1  0  0  0  0
 29 16  1  0  0  0  0
 32 17  1  0  0  0  0
 35 18  1  0  0  0  0
 37 18  1  0  0  0  0
 39 19  1  0  0  0  0
 40 19  1  0  0  0  0
 42 20  1  0  0  0  0
 43 20  1  0  0  0  0
M  END
$$$$
