
     RDKit          3D

 43 44  0  0  0  0  0  0  0  0999 V2000
   -0.0028   -0.0330    0.0430 C   0  0  0  0  0  0  0  0  0  0  0  0
    1.2216   -0.0629    0.0640 O   0  0  0  0  0  0  0  0  0  0  0  0
   -0.8563   -0.0044   -1.2430 C   0  0  0  0  0  0  0  0  0  0  0  0
   -2.3251    0.0220   -0.7267 C   0  0  0  0  0  0  0  0  0  0  0  0
   -2.2311    0.0166    0.7827 C   0  0  0  0  0  0  0  0  0  0  0  0
   -3.2574    0.0381    1.7245 C   0  0  0  0  0  0  0  0  0  0  0  0
   -2.9364    0.0261    3.0945 C   0  0  0  0  0  0  0  0  0  0  0  0
   -1.5866   -0.0077    3.5027 C   0  0  0  0  0  0  0  0  0  0  0  0
   -0.5472   -0.0292    2.5656 C   0  0  0  0  0  0  0  0  0  0  0  0
   -0.8966   -0.0163    1.1956 C   0  0  0  0  0  0  0  0  0  0  0  0
    0.8108   -0.0633    2.8679 N   0  0  0  0  0  0  0  0  0  0  0  0
    1.4078   -0.0779    4.1110 C   0  0  0  0  0  0  0  0  0  0  0  0
    0.7903   -0.0751    5.1600 O   0  0  0  0  0  0  0  0  0  0  0  0
    2.9251   -0.0707    4.0521 C   0  0  0  0  0  0  0  0  0  0  0  0
   -4.0182    0.0487    4.1858 C   0  0  0  0  0  0  0  0  0  0  0  0
   -3.8823   -1.2184    5.0573 C   0  0  0  0  0  0  0  0  0  0  0  0
   -3.8220    1.3026    5.0647 C   0  0  0  0  0  0  0  0  0  0  0  0
   -5.4383    0.0843    3.6011 C   0  0  0  0  0  0  0  0  0  0  0  0
   -0.5452   -1.2645   -2.0638 C   0  0  0  0  0  0  0  0  0  0  0  0
   -0.4931    1.2580   -2.0389 C   0  0  0  0  0  0  0  0  0  0  0  0
   -2.8656    0.9146   -1.0823 H   0  0  0  0  0  0  0  0  0  0  0  0
   -2.8973   -0.8495   -1.0852 H   0  0  0  0  0  0  0  0  0  0  0  0
   -4.2942    0.0636    1.3922 H   0  0  0  0  0  0  0  0  0  0  0  0
   -1.3222   -0.0183    4.5557 H   0  0  0  0  0  0  0  0  0  0  0  0
    1.4085   -0.0713    2.0372 H   0  0  0  0  0  0  0  0  0  0  0  0
    3.3090   -0.7706    3.2940 H   0  0  0  0  0  0  0  0  0  0  0  0
    3.3176   -0.3367    5.0408 H   0  0  0  0  0  0  0  0  0  0  0  0
    3.2823    0.9386    3.7885 H   0  0  0  0  0  0  0  0  0  0  0  0
   -4.0112   -2.1278    4.4496 H   0  0  0  0  0  0  0  0  0  0  0  0
   -4.6515   -1.2214    5.8463 H   0  0  0  0  0  0  0  0  0  0  0  0
   -2.8984   -1.2748    5.5449 H   0  0  0  0  0  0  0  0  0  0  0  0
   -3.9073    2.2207    4.4624 H   0  0  0  0  0  0  0  0  0  0  0  0
   -2.8366    1.3090    5.5524 H   0  0  0  0  0  0  0  0  0  0  0  0
   -4.5902    1.3378    5.8539 H   0  0  0  0  0  0  0  0  0  0  0  0
   -5.6061    0.9824    2.9869 H   0  0  0  0  0  0  0  0  0  0  0  0
   -6.1748    0.0995    4.4190 H   0  0  0  0  0  0  0  0  0  0  0  0
   -5.6487   -0.8012    2.9818 H   0  0  0  0  0  0  0  0  0  0  0  0
   -0.8075   -2.1773   -1.5054 H   0  0  0  0  0  0  0  0  0  0  0  0
    0.5284   -1.3069   -2.3007 H   0  0  0  0  0  0  0  0  0  0  0  0
   -1.1145   -1.2635   -3.0069 H   0  0  0  0  0  0  0  0  0  0  0  0
   -0.7186    2.1696   -1.4628 H   0  0  0  0  0  0  0  0  0  0  0  0
   -1.0612    1.2986   -2.9819 H   0  0  0  0  0  0  0  0  0  0  0  0
    0.5815    1.2612   -2.2749 H   0  0  0  0  0  0  0  0  0  0  0  0
  1  2  2  0
  1  3  1  0
  1 10  1  0
  3  4  1  0
  3 19  1  0
  3 20  1  0
  4  5  1  0
  4 21  1  0
  4 22  1  0
  5  6  2  0
  5 10  1  0
  6  7  1  0
  6 23  1  0
  7  8  2  0
  7 15  1  0
  8  9  1  0
  8 24  1  0
  9 10  2  0
  9 11  1  0
 11 12  1  0
 11 25  1  0
 12 13  2  0
 12 14  1  0
 14 26  1  0
 14 27  1  0
 14 28  1  0
 15 16  1  0
 15 17  1  0
 15 18  1  0
 16 29  1  0
 16 30  1  0
 16 31  1  0
 17 32  1  0
 17 33  1  0
 17 34  1  0
 18 35  1  0
 18 36  1  0
 18 37  1  0
 19 38  1  0
 19 39  1  0
 19 40  1  0
 20 41  1  0
 20 42  1  0
 20 43  1  0
M  END

