
     RDKit          3D

 43 44  0  0  0  0  0  0  0  0999 V2000
   -0.0017    0.0579    0.0414 C   0  0  0  0  0  0  0  0  0  0  0  0
    1.2231    0.0753    0.0641 O   0  0  0  0  0  0  0  0  0  0  0  0
   -0.8532    0.0354   -1.2462 C   0  0  0  0  0  0  0  0  0  0  0  0
   -2.3237    0.0236   -0.7335 C   0  0  0  0  0  0  0  0  0  0  0  0
   -2.2344    0.0328    0.7766 C   0  0  0  0  0  0  0  0  0  0  0  0
   -3.2552    0.0245    1.7173 C   0  0  0  0  0  0  0  0  0  0  0  0
   -2.9358    0.0371    3.0928 C   0  0  0  0  0  0  0  0  0  0  0  0
   -1.5913    0.0581    3.5023 C   0  0  0  0  0  0  0  0  0  0  0  0
   -0.5499    0.0665    2.5596 C   0  0  0  0  0  0  0  0  0  0  0  0
   -0.8971    0.0534    1.1922 C   0  0  0  0  0  0  0  0  0  0  0  0
    0.8070    0.0872    2.8644 N   0  0  0  0  0  0  0  0  0  0  0  0
    1.4056    0.1008    4.1078 C   0  0  0  0  0  0  0  0  0  0  0  0
    0.7900    0.1045    5.1574 O   0  0  0  0  0  0  0  0  0  0  0  0
    2.9228    0.0939    4.0437 C   0  0  0  0  0  0  0  0  0  0  0  0
   -4.0769    0.0276    4.1225 C   0  0  0  0  0  0  0  0  0  0  0  0
   -3.5607    0.0431    5.5696 C   0  0  0  0  0  0  0  0  0  0  0  0
   -4.9596    1.2759    3.9084 C   0  0  0  0  0  0  0  0  0  0  0  0
   -4.9253   -1.2465    3.9231 C   0  0  0  0  0  0  0  0  0  0  0  0
   -0.5001   -1.2313   -2.0400 C   0  0  0  0  0  0  0  0  0  0  0  0
   -0.5285    1.2915   -2.0679 C   0  0  0  0  0  0  0  0  0  0  0  0
   -2.8869    0.8990   -1.0966 H   0  0  0  0  0  0  0  0  0  0  0  0
   -2.8705   -0.8655   -1.0879 H   0  0  0  0  0  0  0  0  0  0  0  0
   -4.2968    0.0085    1.3917 H   0  0  0  0  0  0  0  0  0  0  0  0
   -1.3210    0.0687    4.5515 H   0  0  0  0  0  0  0  0  0  0  0  0
    1.4055    0.0881    2.0338 H   0  0  0  0  0  0  0  0  0  0  0  0
    3.2814   -0.8760    3.6621 H   0  0  0  0  0  0  0  0  0  0  0  0
    3.3193    0.2516    5.0535 H   0  0  0  0  0  0  0  0  0  0  0  0
    3.2992    0.8775    3.3675 H   0  0  0  0  0  0  0  0  0  0  0  0
   -2.9395   -0.8371    5.7923 H   0  0  0  0  0  0  0  0  0  0  0  0
   -4.4136    0.0356    6.2655 H   0  0  0  0  0  0  0  0  0  0  0  0
   -2.9635    0.9423    5.7819 H   0  0  0  0  0  0  0  0  0  0  0  0
   -5.4039    1.2980    2.9023 H   0  0  0  0  0  0  0  0  0  0  0  0
   -4.3715    2.1977    4.0381 H   0  0  0  0  0  0  0  0  0  0  0  0
   -5.7835    1.2895    4.6399 H   0  0  0  0  0  0  0  0  0  0  0  0
   -5.3688   -1.2923    2.9174 H   0  0  0  0  0  0  0  0  0  0  0  0
   -5.7487   -1.2740    4.6548 H   0  0  0  0  0  0  0  0  0  0  0  0
   -4.3125   -2.1505    4.0634 H   0  0  0  0  0  0  0  0  0  0  0  0
   -0.7349   -2.1401   -1.4631 H   0  0  0  0  0  0  0  0  0  0  0  0
    0.5748   -1.2445   -2.2741 H   0  0  0  0  0  0  0  0  0  0  0  0
   -1.0670   -1.2678   -2.9839 H   0  0  0  0  0  0  0  0  0  0  0  0
   -0.7833    2.2075   -1.5111 H   0  0  0  0  0  0  0  0  0  0  0  0
   -1.0961    1.2947   -3.0121 H   0  0  0  0  0  0  0  0  0  0  0  0
    0.5459    1.3235   -2.3028 H   0  0  0  0  0  0  0  0  0  0  0  0
  1  2  2  0
  1  3  1  0
  1 10  1  0
  3  4  1  0
  3 19  1  0
  3 20  1  0
  4  5  1  0
  4 21  1  0
  4 22  1  0
  5  6  2  0
  5 10  1  0
  6  7  1  0
  6 23  1  0
  7  8  2  0
  7 15  1  0
  8  9  1  0
  8 24  1  0
  9 10  2  0
  9 11  1  0
 11 12  1  0
 11 25  1  0
 12 13  2  0
 12 14  1  0
 14 26  1  0
 14 27  1  0
 14 28  1  0
 15 16  1  0
 15 17  1  0
 15 18  1  0
 16 29  1  0
 16 30  1  0
 16 31  1  0
 17 32  1  0
 17 33  1  0
 17 34  1  0
 18 35  1  0
 18 36  1  0
 18 37  1  0
 19 38  1  0
 19 39  1  0
 19 40  1  0
 20 41  1  0
 20 42  1  0
 20 43  1  0
M  END

