rmsd57.gzmat
 OpenBabel08211713373D

 43 44  0  0  0  0  0  0  0  0999 V2000
    0.0000    0.0000    0.0000 C   0  0  0  0  0  0  0  0  0  0  0  0
    1.2069    0.0000    0.0000 O   0  0  0  0  0  0  0  0  0  0  0  0
   -0.8872    0.0000   -1.2606 C   0  0  0  0  0  0  0  0  0  0  0  0
   -2.3462    0.0082   -0.7098 C   0  0  0  0  0  0  0  0  0  0  0  0
   -2.2150    0.0115    0.7842 C   0  0  0  0  0  0  0  0  0  0  0  0
   -3.2340    0.0238    1.7153 C   0  0  0  0  0  0  0  0  0  0  0  0
   -2.9006    0.0283    3.0808 C   0  0  0  0  0  0  0  0  0  0  0  0
   -1.5645    0.0137    3.4815 C   0  0  0  0  0  0  0  0  0  0  0  0
   -0.5240   -0.0047    2.5374 C   0  0  0  0  0  0  0  0  0  0  0  0
   -0.8665    0.0015    1.1771 C   0  0  0  0  0  0  0  0  0  0  0  0
    0.8386   -0.0251    2.8578 N   0  0  0  0  0  0  0  0  0  0  0  0
    1.3767   -0.1081    4.1466 C   0  0  0  0  0  0  0  0  0  0  0  0
    0.6828   -0.1527    5.1351 O   0  0  0  0  0  0  0  0  0  0  0  0
    2.8780   -0.1277    4.1985 C   0  0  0  0  0  0  0  0  0  0  0  0
   -3.9709    0.0582    4.1591 C   0  0  0  0  0  0  0  0  0  0  0  0
   -3.7974   -1.1752    5.0627 C   0  0  0  0  0  0  0  0  0  0  0  0
   -3.7942    1.3493    4.9788 C   0  0  0  0  0  0  0  0  0  0  0  0
   -5.3990    0.0394    3.5898 C   0  0  0  0  0  0  0  0  0  0  0  0
   -0.5937   -1.2626   -2.0631 C   0  0  0  0  0  0  0  0  0  0  0  0
   -0.5875    1.2542   -2.0739 C   0  0  0  0  0  0  0  0  0  0  0  0
   -2.9082    0.8911   -1.0636 H   0  0  0  0  0  0  0  0  0  0  0  0
   -2.9171   -0.8705   -1.0601 H   0  0  0  0  0  0  0  0  0  0  0  0
   -4.2677    0.0308    1.3882 H   0  0  0  0  0  0  0  0  0  0  0  0
   -1.3233    0.0174    4.5481 H   0  0  0  0  0  0  0  0  0  0  0  0
    1.4741   -0.0029    2.0474 H   0  0  0  0  0  0  0  0  0  0  0  0
    3.3629   -0.3953    3.2517 H   0  0  0  0  0  0  0  0  0  0  0  0
    3.2170   -0.8483    4.9607 H   0  0  0  0  0  0  0  0  0  0  0  0
    3.2593    0.8595    4.5050 H   0  0  0  0  0  0  0  0  0  0  0  0
   -3.8542   -2.1022    4.4816 H   0  0  0  0  0  0  0  0  0  0  0  0
   -4.5748   -1.2136    5.8321 H   0  0  0  0  0  0  0  0  0  0  0  0
   -2.8291   -1.1724    5.5784 H   0  0  0  0  0  0  0  0  0  0  0  0
   -3.8520    2.2350    4.3368 H   0  0  0  0  0  0  0  0  0  0  0  0
   -2.8244    1.3780    5.4899 H   0  0  0  0  0  0  0  0  0  0  0  0
   -4.5695    1.4392    5.7460 H   0  0  0  0  0  0  0  0  0  0  0  0
   -5.5933    0.9104    2.9550 H   0  0  0  0  0  0  0  0  0  0  0  0
   -6.1396    0.0578    4.3975 H   0  0  0  0  0  0  0  0  0  0  0  0
   -5.5871   -0.8644    3.0004 H   0  0  0  0  0  0  0  0  0  0  0  0
   -0.8064   -2.1715   -1.4873 H   0  0  0  0  0  0  0  0  0  0  0  0
    0.4656   -1.3054   -2.3545 H   0  0  0  0  0  0  0  0  0  0  0  0
   -1.1894   -1.3028   -2.9817 H   0  0  0  0  0  0  0  0  0  0  0  0
   -0.8049    2.1687   -1.5091 H   0  0  0  0  0  0  0  0  0  0  0  0
   -1.1763    1.2845   -2.9970 H   0  0  0  0  0  0  0  0  0  0  0  0
    0.4744    1.2944   -2.3576 H   0  0  0  0  0  0  0  0  0  0  0  0
  1 10  1  0  0  0  0
  2  1  2  0  0  0  0
  3  4  1  0  0  0  0
  3  1  1  0  0  0  0
  4  5  1  0  0  0  0
  5 10  2  0  0  0  0
  5  6  1  0  0  0  0
  6  7  2  0  0  0  0
  7  8  1  0  0  0  0
  7 15  1  0  0  0  0
  8 24  1  0  0  0  0
  9 11  1  0  0  0  0
  9  8  2  0  0  0  0
 10  9  1  0  0  0  0
 11 12  1  0  0  0  0
 12 14  1  0  0  0  0
 12 13  2  0  0  0  0
 14 28  1  0  0  0  0
 14 27  1  0  0  0  0
 15 17  1  0  0  0  0
 15 16  1  0  0  0  0
 16 31  1  0  0  0  0
 16 30  1  0  0  0  0
 17 33  1  0  0  0  0
 17 34  1  0  0  0  0
 18 15  1  0  0  0  0
 18 36  1  0  0  0  0
 19 38  1  0  0  0  0
 19  3  1  0  0  0  0
 20 41  1  0  0  0  0
 20  3  1  0  0  0  0
 21  4  1  0  0  0  0
 22  4  1  0  0  0  0
 23  6  1  0  0  0  0
 25 11  1  0  0  0  0
 26 14  1  0  0  0  0
 29 16  1  0  0  0  0
 32 17  1  0  0  0  0
 35 18  1  0  0  0  0
 37 18  1  0  0  0  0
 39 19  1  0  0  0  0
 40 19  1  0  0  0  0
 42 20  1  0  0  0  0
 43 20  1  0  0  0  0
M  END
$$$$
