rmsd108.gzmat
 OpenBabel08211713393D

 36 37  0  0  0  0  0  0  0  0999 V2000
    0.0000    0.0000    0.0000 C   0  0  0  0  0  0  0  0  0  0  0  0
    1.3923    0.0000    0.0000 C   0  0  0  0  0  0  0  0  0  0  0  0
    2.0542    0.0000    1.2385 C   0  0  0  0  0  0  0  0  0  0  0  0
    1.3610    0.0006    2.4528 C   0  0  0  0  0  0  0  0  0  0  0  0
   -0.0383    0.0178    2.4150 C   0  0  0  0  0  0  0  0  0  0  0  0
   -0.7130    0.0096    1.2002 C   0  0  0  0  0  0  0  0  0  0  0  0
    1.9837    0.0321    3.8022 C   0  0  0  0  0  0  0  0  0  0  0  0
    1.4050    0.5267    4.7474 O   0  0  0  0  0  0  0  0  0  0  0  0
    3.2224   -0.5877    3.9367 N   0  0  0  0  0  0  0  0  0  0  0  0
    3.9697   -0.6676    5.1300 C   0  0  0  0  0  0  0  0  0  0  0  0
    5.2011   -1.3445    5.0588 C   0  0  0  0  0  0  0  0  0  0  0  0
    5.9858   -1.4632    6.2028 C   0  0  0  0  0  0  0  0  0  0  0  0
    5.5731   -0.9159    7.4170 C   0  0  0  0  0  0  0  0  0  0  0  0
    4.3513   -0.2493    7.4798 C   0  0  0  0  0  0  0  0  0  0  0  0
    3.5473   -0.1231    6.3516 C   0  0  0  0  0  0  0  0  0  0  0  0
    7.2680   -2.1839    6.0775 C   0  0  0  0  0  0  0  0  0  0  0  0
    7.7546   -2.6330    5.0696 O   0  0  0  0  0  0  0  0  0  0  0  0
    7.8821   -2.2995    7.2858 O   0  0  0  0  0  0  0  0  0  0  0  0
    9.1388   -2.9686    7.2792 C   0  0  0  0  0  0  0  0  0  0  0  0
    3.4091   -0.0022    1.3250 O   0  0  0  0  0  0  0  0  0  0  0  0
    2.1639    0.0036   -1.2725 C   0  0  0  0  0  0  0  0  0  0  0  0
   -0.5417   -0.0036   -0.9466 H   0  0  0  0  0  0  0  0  0  0  0  0
   -0.5957    0.0470    3.3582 H   0  0  0  0  0  0  0  0  0  0  0  0
   -1.8011    0.0151    1.1827 H   0  0  0  0  0  0  0  0  0  0  0  0
    3.6806   -0.9286    3.0920 H   0  0  0  0  0  0  0  0  0  0  0  0
    5.5499   -1.7779    4.1195 H   0  0  0  0  0  0  0  0  0  0  0  0
    6.1969   -1.0068    8.3059 H   0  0  0  0  0  0  0  0  0  0  0  0
    4.0187    0.1805    8.4248 H   0  0  0  0  0  0  0  0  0  0  0  0
    2.5921    0.4039    6.4305 H   0  0  0  0  0  0  0  0  0  0  0  0
    9.4163   -2.9806    8.3396 H   0  0  0  0  0  0  0  0  0  0  0  0
    9.8611   -2.4027    6.6814 H   0  0  0  0  0  0  0  0  0  0  0  0
    9.0288   -3.9838    6.8830 H   0  0  0  0  0  0  0  0  0  0  0  0
    3.8568    0.0511    0.4446 H   0  0  0  0  0  0  0  0  0  0  0  0
    1.5162   -0.1364   -2.1518 H   0  0  0  0  0  0  0  0  0  0  0  0
    2.9056   -0.8080   -1.3135 H   0  0  0  0  0  0  0  0  0  0  0  0
    2.6867    0.9608   -1.4269 H   0  0  0  0  0  0  0  0  0  0  0  0
  1  2  2  0  0  0  0
  1  6  1  0  0  0  0
  2  3  1  0  0  0  0
  3 20  1  0  0  0  0
  3  4  2  0  0  0  0
  4  7  1  0  0  0  0
  5  4  1  0  0  0  0
  5 23  1  0  0  0  0
  6  5  2  0  0  0  0
  7  9  1  0  0  0  0
  7  8  2  0  0  0  0
  9 10  1  0  0  0  0
 10 15  1  0  0  0  0
 11 10  2  0  0  0  0
 11 12  1  0  0  0  0
 12 13  2  0  0  0  0
 13 14  1  0  0  0  0
 13 27  1  0  0  0  0
 14 28  1  0  0  0  0
 15 29  1  0  0  0  0
 15 14  2  0  0  0  0
 16 12  1  0  0  0  0
 16 18  1  0  0  0  0
 17 16  2  0  0  0  0
 19 18  1  0  0  0  0
 19 30  1  0  0  0  0
 21  2  1  0  0  0  0
 22  1  1  0  0  0  0
 24  6  1  0  0  0  0
 25  9  1  0  0  0  0
 26 11  1  0  0  0  0
 31 19  1  0  0  0  0
 32 19  1  0  0  0  0
 33 20  1  0  0  0  0
 34 21  1  0  0  0  0
 35 21  1  0  0  0  0
 36 21  1  0  0  0  0
M  END
$$$$
