36
rmsd102.gzmat
C          0.00000        0.00000        0.00000
C          1.39190        0.00000        0.00000
C          2.05470        0.00000        1.23820
C          1.36260       -0.02130        2.45270
C         -0.03730       -0.03000        2.41420
C         -0.71280       -0.01000        1.20010
C          1.98010       -0.09340        3.80260
O          1.37540       -0.56970        4.74180
N          3.25110        0.45100        3.95140
C          3.99110        0.46180        5.15280
C          5.14520        1.26480        5.17870
C          5.92120        1.31040        6.33390
C          5.57690        0.56640        7.46150
C          4.43340       -0.22890        7.42640
C          3.63890       -0.28680        6.28600
C          7.11800        2.17430        6.31690
O          7.63940        2.67680        5.35270
O          7.59170        2.37120        7.57640
C          8.74220        3.20370        7.68240
O          3.40970        0.01740        1.32090
C          2.16110       -0.00690       -1.27410
H         -0.54140        0.00480       -0.94650
H         -0.59450       -0.06250        3.35790
H         -1.80110       -0.01150        1.18280
H          3.72160        0.81540        3.12450
H          5.43930        1.85270        4.30730
H          6.19350        0.60610        8.35920
H          4.15670       -0.81480        8.30310
H          2.74660       -0.91930        6.28250
H          8.88290        3.29080        8.76560
H          8.55310        4.18070        7.22450
H          9.59890        2.71950        7.20210
H          3.85520        0.02160        0.43770
H          1.50370       -0.04460       -2.15650
H          2.81970       -0.88570       -1.35200
H          2.77400        0.89950       -1.39000
