36
rmsd225.gzmat
C          0.00000        0.00000        0.00000
C          1.39200        0.00000        0.00000
C          2.05460        0.00000        1.23790
C          1.36240        0.00040        2.45260
C         -0.03650        0.01010        2.41550
C         -0.71210        0.00210        1.20080
C          1.99290        0.03460        3.79860
O          1.43740        0.55260        4.74470
N          3.21740       -0.61500        3.92360
C          3.98700       -0.69860        5.10190
C          5.19730       -1.40990        5.00840
C          6.00600       -1.53840        6.13400
C          5.63460       -0.97380        7.35350
C          4.43430       -0.27070        7.43730
C          3.60930       -0.12740        6.32600
C          7.26690       -2.28900        5.97800
O          7.73460       -2.71670        4.95180
O          7.88200       -2.46530        7.17770
C          9.11220       -3.18120        7.14060
O          3.40960       -0.00400        1.32360
C          2.16420        0.00180       -1.27210
H         -0.54130       -0.00120       -0.94670
H         -0.59350        0.03160        3.35860
H         -1.80010       -0.00040        1.18410
H          3.65450       -0.97630        3.07570
H          5.51080       -1.86230        4.06510
H          6.27480       -1.07990        8.22930
H          4.13590        0.17550        8.38630
H          2.67420        0.43320        6.41720
H          9.38740       -3.25150        8.19870
H          9.85610       -2.61620        6.56970
H          8.96310       -4.17230        6.69880
H          3.85580        0.05120        0.44300
H          1.52440       -0.18280       -2.14850
H          2.93430       -0.78400       -1.29440
H          2.65250        0.97350       -1.44760
