36
rmsd220.gzmat
C          0.00000        0.00000        0.00000
C          1.39240        0.00000        0.00000
C          2.05420        0.00000        1.23840
C          1.36030       -0.01710        2.45210
C         -0.03890       -0.03130        2.41420
C         -0.71360       -0.01350        1.19920
C          1.98310       -0.06760        3.80100
O          1.41340       -0.59160        4.73540
N          3.21220        0.56910        3.94730
C          3.95970        0.63670        5.14110
C          5.23790        1.21800        5.05320
C          6.02030        1.33070        6.19930
C          5.55690        0.87690        7.43320
C          4.28890        0.30400        7.51220
C          3.48830        0.18060        6.38130
C          7.35070        1.95450        6.05590
O          7.76160        2.58180        5.11160
O          8.11430        1.72930        7.15810
C          9.42040        2.29650        7.13330
O          3.40890        0.02010        1.32560
C          2.16010        0.00600       -1.27510
H         -0.54060        0.00930       -0.94700
H         -0.59640       -0.06420        3.35720
H         -1.80150       -0.01720        1.18110
H          3.66960        0.92150        3.10670
H          5.62290        1.58490        4.09990
H          6.17750        0.96760        8.32430
H          3.91710       -0.05330        8.47280
H          2.49720       -0.27370        6.47110
H          9.85700        1.94670        8.07550
H          9.35390        3.38890        7.10270
H          9.98290        1.92470        6.27010
H          3.85660       -0.00030        0.44360
H          1.50910       -0.13730       -2.15180
H          2.90420       -0.80350       -1.31860
H          2.67870        0.96430       -1.43230
