
     RDKit          3D

 36 37  0  0  0  0  0  0  0  0999 V2000
    0.2001   -0.4856   -0.0758 C   0  0  0  0  0  0  0  0  0  0  0  0
    1.4259    0.1768    0.0254 C   0  0  0  0  0  0  0  0  0  0  0  0
    1.9931    0.3538    1.3039 C   0  0  0  0  0  0  0  0  0  0  0  0
    1.3499   -0.1215    2.4660 C   0  0  0  0  0  0  0  0  0  0  0  0
    0.1188   -0.7808    2.3116 C   0  0  0  0  0  0  0  0  0  0  0  0
   -0.4567   -0.9654    1.0603 C   0  0  0  0  0  0  0  0  0  0  0  0
    1.8421   -0.0015    3.8913 C   0  0  0  0  0  0  0  0  0  0  0  0
    1.1783   -0.4595    4.8106 O   0  0  0  0  0  0  0  0  0  0  0  0
    3.0434    0.6342    4.0720 N   0  0  0  0  0  0  0  0  0  0  0  0
    3.7268    0.8795    5.2701 C   0  0  0  0  0  0  0  0  0  0  0  0
    4.9538    1.5541    5.1767 C   0  0  0  0  0  0  0  0  0  0  0  0
    5.7041    1.8410    6.3200 C   0  0  0  0  0  0  0  0  0  0  0  0
    5.2350    1.4548    7.5846 C   0  0  0  0  0  0  0  0  0  0  0  0
    4.0154    0.7846    7.6756 C   0  0  0  0  0  0  0  0  0  0  0  0
    3.2565    0.4921    6.5400 C   0  0  0  0  0  0  0  0  0  0  0  0
    6.9955    2.5601    6.1286 C   0  0  0  0  0  0  0  0  0  0  0  0
    7.4356    2.9109    5.0566 O   0  0  0  0  0  0  0  0  0  0  0  0
    7.6378    2.7864    7.2907 O   0  0  0  0  0  0  0  0  0  0  0  0
    8.8832    3.4708    7.1935 C   0  0  0  0  0  0  0  0  0  0  0  0
    3.1936    1.0008    1.4192 O   0  0  0  0  0  0  0  0  0  0  0  0
    2.1491    0.7017   -1.1895 C   0  0  0  0  0  0  0  0  0  0  0  0
   -0.2430   -0.6250   -1.0653 H   0  0  0  0  0  0  0  0  0  0  0  0
   -0.3619   -1.1401    3.2222 H   0  0  0  0  0  0  0  0  0  0  0  0
   -1.4142   -1.4810    0.9648 H   0  0  0  0  0  0  0  0  0  0  0  0
    3.4988    0.9711    3.2292 H   0  0  0  0  0  0  0  0  0  0  0  0
    5.3478    1.8686    4.2077 H   0  0  0  0  0  0  0  0  0  0  0  0
    5.8239    1.6809    8.4728 H   0  0  0  0  0  0  0  0  0  0  0  0
    3.6382    0.4781    8.6542 H   0  0  0  0  0  0  0  0  0  0  0  0
    2.3066   -0.0303    6.6132 H   0  0  0  0  0  0  0  0  0  0  0  0
    9.2608    3.5679    8.2187 H   0  0  0  0  0  0  0  0  0  0  0  0
    8.7496    4.4644    6.7391 H   0  0  0  0  0  0  0  0  0  0  0  0
    9.5951    2.9025    6.5757 H   0  0  0  0  0  0  0  0  0  0  0  0
    3.5168    1.2685    0.5496 H   0  0  0  0  0  0  0  0  0  0  0  0
    1.5843    0.4865   -2.1067 H   0  0  0  0  0  0  0  0  0  0  0  0
    3.1465    0.2405   -1.3103 H   0  0  0  0  0  0  0  0  0  0  0  0
    2.2894    1.7974   -1.1478 H   0  0  0  0  0  0  0  0  0  0  0  0
  1  2  2  0
  1  6  1  0
  1 22  1  0
  2  3  1  0
  2 21  1  0
  3  4  2  0
  3 20  1  0
  4  5  1  0
  4  7  1  0
  5  6  2  0
  5 23  1  0
  6 24  1  0
  7  8  2  0
  7  9  1  0
  9 10  1  0
  9 25  1  0
 10 11  2  0
 10 15  1  0
 11 12  1  0
 11 26  1  0
 12 13  2  0
 12 16  1  0
 13 14  1  0
 13 27  1  0
 14 15  2  0
 14 28  1  0
 15 29  1  0
 16 17  2  0
 16 18  1  0
 18 19  1  0
 19 30  1  0
 19 31  1  0
 19 32  1  0
 20 33  1  0
 21 34  1  0
 21 35  1  0
 21 36  1  0
M  END

