rmsd215.gzmat
 OpenBabel08211713393D

 36 37  0  0  0  0  0  0  0  0999 V2000
    0.0000    0.0000    0.0000 C   0  0  0  0  0  0  0  0  0  0  0  0
    1.3922    0.0000    0.0000 C   0  0  0  0  0  0  0  0  0  0  0  0
    2.0543    0.0000    1.2385 C   0  0  0  0  0  0  0  0  0  0  0  0
    1.3608   -0.0076    2.4524 C   0  0  0  0  0  0  0  0  0  0  0  0
   -0.0387   -0.0198    2.4146 C   0  0  0  0  0  0  0  0  0  0  0  0
   -0.7134   -0.0093    1.1998 C   0  0  0  0  0  0  0  0  0  0  0  0
    1.9823   -0.0492    3.8021 C   0  0  0  0  0  0  0  0  0  0  0  0
    1.4079   -0.5603    4.7410 O   0  0  0  0  0  0  0  0  0  0  0  0
    3.2146    0.5818    3.9437 N   0  0  0  0  0  0  0  0  0  0  0  0
    3.9609    0.6568    5.1380 C   0  0  0  0  0  0  0  0  0  0  0  0
    5.2287    1.2608    5.0525 C   0  0  0  0  0  0  0  0  0  0  0  0
    6.0116    1.3757    6.1978 C   0  0  0  0  0  0  0  0  0  0  0  0
    5.5592    0.9023    7.4287 C   0  0  0  0  0  0  0  0  0  0  0  0
    4.3001    0.3105    7.5061 C   0  0  0  0  0  0  0  0  0  0  0  0
    3.4989    0.1848    6.3758 C   0  0  0  0  0  0  0  0  0  0  0  0
    7.3295    2.0266    6.0599 C   0  0  0  0  0  0  0  0  0  0  0  0
    7.7324    2.6602    5.1164 O   0  0  0  0  0  0  0  0  0  0  0  0
    8.0909    1.8213    7.1680 O   0  0  0  0  0  0  0  0  0  0  0  0
    9.3805    2.4250    7.1542 C   0  0  0  0  0  0  0  0  0  0  0  0
    3.4095    0.0119    1.3245 O   0  0  0  0  0  0  0  0  0  0  0  0
    2.1623    0.0024   -1.2736 C   0  0  0  0  0  0  0  0  0  0  0  0
   -0.5417    0.0053   -0.9466 H   0  0  0  0  0  0  0  0  0  0  0  0
   -0.5964   -0.0463    3.3577 H   0  0  0  0  0  0  0  0  0  0  0  0
   -1.8014   -0.0143    1.1825 H   0  0  0  0  0  0  0  0  0  0  0  0
    3.6733    0.9278    3.1012 H   0  0  0  0  0  0  0  0  0  0  0  0
    5.6038    1.6458    4.1025 H   0  0  0  0  0  0  0  0  0  0  0  0
    6.1811    0.9939    8.3188 H   0  0  0  0  0  0  0  0  0  0  0  0
    3.9361   -0.0609    8.4644 H   0  0  0  0  0  0  0  0  0  0  0  0
    2.5149   -0.2847    6.4647 H   0  0  0  0  0  0  0  0  0  0  0  0
    9.8394    2.0455    8.0742 H   0  0  0  0  0  0  0  0  0  0  0  0
    9.2792    3.5152    7.1757 H   0  0  0  0  0  0  0  0  0  0  0  0
    9.9444    2.1115    6.2687 H   0  0  0  0  0  0  0  0  0  0  0  0
    3.8558   -0.0324    0.4429 H   0  0  0  0  0  0  0  0  0  0  0  0
    1.5046   -0.0089   -2.1567 H   0  0  0  0  0  0  0  0  0  0  0  0
    2.8084   -0.8843   -1.3666 H   0  0  0  0  0  0  0  0  0  0  0  0
    2.7888    0.9023   -1.3733 H   0  0  0  0  0  0  0  0  0  0  0  0
  1  2  2  0  0  0  0
  1  6  1  0  0  0  0
  2  3  1  0  0  0  0
  3 20  1  0  0  0  0
  3  4  2  0  0  0  0
  4  7  1  0  0  0  0
  5  4  1  0  0  0  0
  5 23  1  0  0  0  0
  6  5  2  0  0  0  0
  7  9  1  0  0  0  0
  7  8  2  0  0  0  0
  9 10  1  0  0  0  0
 10 15  1  0  0  0  0
 11 10  2  0  0  0  0
 11 12  1  0  0  0  0
 12 13  2  0  0  0  0
 13 14  1  0  0  0  0
 13 27  1  0  0  0  0
 14 28  1  0  0  0  0
 15 29  1  0  0  0  0
 15 14  2  0  0  0  0
 16 12  1  0  0  0  0
 16 18  1  0  0  0  0
 17 16  2  0  0  0  0
 19 18  1  0  0  0  0
 19 31  1  0  0  0  0
 19 30  1  0  0  0  0
 21  2  1  0  0  0  0
 22  1  1  0  0  0  0
 24  6  1  0  0  0  0
 25  9  1  0  0  0  0
 26 11  1  0  0  0  0
 32 19  1  0  0  0  0
 33 20  1  0  0  0  0
 34 21  1  0  0  0  0
 35 21  1  0  0  0  0
 36 21  1  0  0  0  0
M  END
$$$$
