44
rmsd155.gzmat
C          0.00000        0.00000        0.00000
C          1.39920        0.00000        0.00000
C          2.09670        0.00000        1.19700
C          1.37150        0.00470        2.40210
C         -0.02480        0.01810        2.41820
C         -0.70390        0.01810        1.20250
O          2.17210       -0.00390        3.49360
C          1.54880       -0.00060        4.77150
S         -0.86590       -0.05400       -1.51520
O         -2.24530        0.31390       -1.27930
O         -0.10160        0.60040       -2.55470
N         -0.81380       -1.76400       -1.90180
C         -0.94560       -2.15920       -3.32210
C         -0.28910       -3.53520       -3.52960
C         -2.40250       -2.19520       -3.81250
C         -1.43720       -2.62540       -0.94550
C         -2.80110       -2.53730       -0.61760
C         -3.33720       -3.37240        0.34820
C         -2.50060       -4.30380        0.98470
C         -1.14610       -4.40530        0.67240
C         -0.61820       -3.55830       -0.29910
O         -3.15920       -5.05270        1.91000
C         -2.41450       -6.05880        2.58140
H          1.95820        0.00230       -0.94440
H          3.18250       -0.00360        1.22320
H         -0.58080        0.02620        3.34800
H         -1.80260        0.03400        1.20960
H          2.41470       -0.01450        5.44930
H          0.93750       -0.89790        4.91120
H          0.96290        0.91290        4.91850
H         -0.37060       -1.39850       -3.92710
H         -0.81230       -4.32190       -2.97480
H          0.75180       -3.52680       -3.18640
H         -0.29370       -3.81290       -4.58730
H         -2.97040       -3.00030       -3.33430
H         -2.44530       -2.35670       -4.89370
H         -2.92720       -1.25440       -3.60290
H         -3.43770       -1.79590       -1.11290
H         -4.38830       -3.31860        0.62150
H         -0.50190       -5.12190        1.16820
H          0.43950       -3.61560       -0.55860
H         -3.17250       -6.50770        3.23790
H         -1.60720       -5.61850        3.17460
H         -2.03370       -6.80260        1.87400
