rmsd222.gzmat
 OpenBabel08211713403D

 44 45  0  0  0  0  0  0  0  0999 V2000
    0.0000    0.0000    0.0000 C   0  0  0  0  0  0  0  0  0  0  0  0
    1.3994    0.0000    0.0000 C   0  0  0  0  0  0  0  0  0  0  0  0
    2.0976    0.0000    1.1967 C   0  0  0  0  0  0  0  0  0  0  0  0
    1.3724    0.0054    2.4022 C   0  0  0  0  0  0  0  0  0  0  0  0
   -0.0243    0.0094    2.4185 C   0  0  0  0  0  0  0  0  0  0  0  0
   -0.7039    0.0093    1.2030 C   0  0  0  0  0  0  0  0  0  0  0  0
    2.1729    0.0067    3.4943 O   0  0  0  0  0  0  0  0  0  0  0  0
    1.5483    0.0536    4.7706 C   0  0  0  0  0  0  0  0  0  0  0  0
   -0.8645   -0.0421   -1.5169 S   0  0  0  0  0  0  0  0  0  0  0  0
   -2.2632    0.2280   -1.2643 O   0  0  0  0  0  0  0  0  0  0  0  0
   -0.1477    0.7048   -2.5271 O   0  0  0  0  0  0  0  0  0  0  0  0
   -0.6986   -1.7267   -1.9754 N   0  0  0  0  0  0  0  0  0  0  0  0
   -0.8131   -2.0754   -3.4088 C   0  0  0  0  0  0  0  0  0  0  0  0
   -0.0911   -3.4090   -3.6693 C   0  0  0  0  0  0  0  0  0  0  0  0
   -2.2668   -2.1657   -3.9019 C   0  0  0  0  0  0  0  0  0  0  0  0
   -1.2452   -2.6677   -1.0479 C   0  0  0  0  0  0  0  0  0  0  0  0
   -2.6094   -2.7016   -0.7127 C   0  0  0  0  0  0  0  0  0  0  0  0
   -3.0695   -3.6084    0.2273 C   0  0  0  0  0  0  0  0  0  0  0  0
   -2.1556   -4.4868    0.8319 C   0  0  0  0  0  0  0  0  0  0  0  0
   -0.7998   -4.4695    0.5093 C   0  0  0  0  0  0  0  0  0  0  0  0
   -0.3488   -3.5520   -0.4363 C   0  0  0  0  0  0  0  0  0  0  0  0
   -2.7448   -5.3153    1.7358 O   0  0  0  0  0  0  0  0  0  0  0  0
   -1.9064   -6.2449    2.4072 C   0  0  0  0  0  0  0  0  0  0  0  0
    1.9578    0.0030   -0.9446 H   0  0  0  0  0  0  0  0  0  0  0  0
    3.1835   -0.0018    1.2219 H   0  0  0  0  0  0  0  0  0  0  0  0
   -0.5803    0.0104    3.3487 H   0  0  0  0  0  0  0  0  0  0  0  0
   -1.8030    0.0184    1.2105 H   0  0  0  0  0  0  0  0  0  0  0  0
    2.4133    0.0656    5.4496 H   0  0  0  0  0  0  0  0  0  0  0  0
    0.9394   -0.8404    4.9399 H   0  0  0  0  0  0  0  0  0  0  0  0
    0.9601    0.9700    4.8849 H   0  0  0  0  0  0  0  0  0  0  0  0
   -0.2772   -1.2643   -3.9833 H   0  0  0  0  0  0  0  0  0  0  0  0
   -0.5994   -4.2471   -3.1798 H   0  0  0  0  0  0  0  0  0  0  0  0
    0.9358   -3.3787   -3.2870 H   0  0  0  0  0  0  0  0  0  0  0  0
   -0.0467   -3.6235   -4.7408 H   0  0  0  0  0  0  0  0  0  0  0  0
   -2.8093   -2.9835   -3.4149 H   0  0  0  0  0  0  0  0  0  0  0  0
   -2.3001   -2.3431   -4.9813 H   0  0  0  0  0  0  0  0  0  0  0  0
   -2.8233   -1.2401   -3.7058 H   0  0  0  0  0  0  0  0  0  0  0  0
   -3.3069   -1.9987   -1.1810 H   0  0  0  0  0  0  0  0  0  0  0  0
   -4.1198   -3.6500    0.5058 H   0  0  0  0  0  0  0  0  0  0  0  0
   -0.0966   -5.1486    0.9770 H   0  0  0  0  0  0  0  0  0  0  0  0
    0.7082   -3.5150   -0.7022 H   0  0  0  0  0  0  0  0  0  0  0  0
   -2.6147   -6.7587    3.0716 H   0  0  0  0  0  0  0  0  0  0  0  0
   -1.1383   -5.7300    2.9921 H   0  0  0  0  0  0  0  0  0  0  0  0
   -1.4646   -6.9527    1.6988 H   0  0  0  0  0  0  0  0  0  0  0  0
  1  2  2  0  0  0  0
  1  6  1  0  0  0  0
  2  3  1  0  0  0  0
  3 25  1  0  0  0  0
  3  4  2  0  0  0  0
  4  5  1  0  0  0  0
  4  7  1  0  0  0  0
  5 26  1  0  0  0  0
  6 27  1  0  0  0  0
  6  5  2  0  0  0  0
  7  8  1  0  0  0  0
  8 30  1  0  0  0  0
  8 29  1  0  0  0  0
  8 28  1  0  0  0  0
  9 10  2  0  0  0  0
  9  1  1  0  0  0  0
 11  9  2  0  0  0  0
 12  9  1  0  0  0  0
 12 16  1  0  0  0  0
 13 12  1  0  0  0  0
 14 13  1  0  0  0  0
 14 33  1  0  0  0  0
 14 32  1  0  0  0  0
 15 37  1  0  0  0  0
 15 35  1  0  0  0  0
 15 13  1  0  0  0  0
 16 17  2  0  0  0  0
 16 21  1  0  0  0  0
 17 18  1  0  0  0  0
 18 39  1  0  0  0  0
 18 19  2  0  0  0  0
 19 22  1  0  0  0  0
 20 19  1  0  0  0  0
 20 40  1  0  0  0  0
 21 20  2  0  0  0  0
 22 23  1  0  0  0  0
 23 43  1  0  0  0  0
 23 42  1  0  0  0  0
 24  2  1  0  0  0  0
 31 13  1  0  0  0  0
 34 14  1  0  0  0  0
 36 15  1  0  0  0  0
 38 17  1  0  0  0  0
 41 21  1  0  0  0  0
 44 23  1  0  0  0  0
M  END
$$$$
