44
rmsd148.gzmat
C          0.00000        0.00000        0.00000
C          1.39940        0.00000        0.00000
C          2.09700        0.00000        1.19710
C          1.37150        0.00300        2.40210
C         -0.02510        0.01590        2.41820
C         -0.70480        0.01660        1.20270
O          2.17090       -0.00540        3.49480
C          1.54440       -0.00090        4.77080
S         -0.86210       -0.04290       -1.51750
O         -2.21040        0.43510       -1.30800
O         -0.03550        0.51890       -2.56490
N         -0.93430       -1.76280       -1.84810
C         -0.84130       -2.20540       -3.25820
C         -0.32650       -3.65440       -3.30800
C         -2.17350       -2.10010       -4.01930
C         -1.80340       -2.52740       -1.00820
C         -3.19110       -2.31120       -0.94890
C         -3.97860       -3.08880       -0.11650
C         -3.37030       -4.08750        0.66150
C         -1.99440       -4.30440        0.62870
C         -1.21240       -3.51430       -0.21090
O         -4.26520       -4.77520        1.42090
C         -3.76600       -5.84450        2.21060
H          1.95900        0.00540       -0.94470
H          3.18300       -0.00030        1.22270
H         -0.58080        0.02470        3.34830
H         -1.80320        0.03210        1.20970
H          2.40740       -0.02300        5.45160
H          0.92610       -0.89340        4.90610
H          0.96530        0.91640        4.91710
H         -0.07780       -1.54160       -3.76010
H         -1.05550       -4.35830       -2.89110
H          0.59970       -3.76240       -2.73220
H         -0.11870       -3.95640       -4.33880
H         -2.92980       -2.77670       -3.60680
H         -2.03830       -2.35880       -5.07390
H         -2.58420       -1.08370       -3.98480
H         -3.64910       -1.51570       -1.54640
H         -5.05380       -2.93980       -0.05490
H         -1.52640       -5.06920        1.23710
H         -0.13260       -3.66140       -0.25050
H         -4.68320       -6.23970        2.66930
H         -3.08180       -5.47490        2.98000
H         -3.29310       -6.60900        1.58650
