44
rmsd109.gzmat
C          0.00000        0.00000        0.00000
C          1.39920        0.00000        0.00000
C          2.09640        0.00000        1.19700
C          1.37100        0.00800        2.40250
C         -0.02530        0.02180        2.41850
C         -0.70440        0.01880        1.20250
O          2.17210        0.00120        3.49390
C          1.54960        0.04310        4.77140
S         -0.86330       -0.06760       -1.51690
O         -2.25440        0.24920       -1.27830
O         -0.12180        0.62120       -2.55090
N         -0.74270       -1.77140       -1.90930
C         -0.78750       -2.17720       -3.33110
C         -0.04460       -3.51460       -3.49840
C         -2.21630       -2.30030       -3.88570
C         -1.36590       -2.65880       -0.97750
C         -2.74520       -2.63150       -0.70860
C         -3.28390       -3.48990        0.23480
C         -2.43390       -4.38180        0.90890
C         -1.06450       -4.42310        0.65440
C         -0.53400       -3.55320       -0.29490
O         -3.09700       -5.16120        1.80530
C         -2.32820       -6.10140        2.54160
H          1.95830        0.00230       -0.94430
H          3.18240       -0.00520        1.22300
H         -0.58150        0.03180        3.34860
H         -1.80330        0.03200        1.20960
H          2.41540        0.03990        5.44930
H          0.93160       -0.84540        4.93410
H          0.97100        0.96440        4.89450
H         -0.23120       -1.38750       -3.91510
H         -0.56120       -4.33170       -2.98320
H          0.96780       -3.45260       -3.08330
H          0.03880       -3.78490       -4.55470
H         -2.77490       -3.10190       -3.39020
H         -2.20020       -2.52240       -4.95680
H         -2.78540       -1.37180       -3.75340
H         -3.39150       -1.91720       -1.23020
H         -4.34690       -3.48290        0.46340
H         -0.41140       -5.11200        1.17720
H          0.53530       -3.56220       -0.50860
H         -3.08820       -6.57250        3.18010
H         -1.57350       -5.59810        3.15350
H         -1.87570       -6.84260        1.87540
