
     RDKit          3D

 44 45  0  0  0  0  0  0  0  0999 V2000
   -0.0895    0.0001   -0.0637 C   0  0  0  0  0  0  0  0  0  0  0  0
    1.2865   -0.2161   -0.0144 C   0  0  0  0  0  0  0  0  0  0  0  0
    1.9421   -0.2239    1.2167 C   0  0  0  0  0  0  0  0  0  0  0  0
    1.2072   -0.0154    2.3980 C   0  0  0  0  0  0  0  0  0  0  0  0
   -0.1804    0.2088    2.3305 C   0  0  0  0  0  0  0  0  0  0  0  0
   -0.8292    0.2194    1.1033 C   0  0  0  0  0  0  0  0  0  0  0  0
    1.7481   -0.0105    3.6355 O   0  0  0  0  0  0  0  0  0  0  0  0
    3.1348   -0.2250    3.7850 C   0  0  0  0  0  0  0  0  0  0  0  0
   -0.9151   -0.0587   -1.6378 S   0  0  0  0  0  0  0  0  0  0  0  0
   -2.2304    0.5791   -1.4771 O   0  0  0  0  0  0  0  0  0  0  0  0
   -0.0065    0.4077   -2.6908 O   0  0  0  0  0  0  0  0  0  0  0  0
   -1.0642   -1.7358   -1.8560 N   0  0  0  0  0  0  0  0  0  0  0  0
   -1.0840   -2.2153   -3.2606 C   0  0  0  0  0  0  0  0  0  0  0  0
   -0.6319   -3.6720   -3.3108 C   0  0  0  0  0  0  0  0  0  0  0  0
   -2.4357   -1.9986   -3.9454 C   0  0  0  0  0  0  0  0  0  0  0  0
   -1.8067   -2.4224   -0.8428 C   0  0  0  0  0  0  0  0  0  0  0  0
   -3.1794   -2.2270   -0.6536 C   0  0  0  0  0  0  0  0  0  0  0  0
   -3.8643   -2.8943    0.3661 C   0  0  0  0  0  0  0  0  0  0  0  0
   -3.1730   -3.7741    1.2130 C   0  0  0  0  0  0  0  0  0  0  0  0
   -1.7920   -3.9677    1.0317 C   0  0  0  0  0  0  0  0  0  0  0  0
   -1.1216   -3.2936    0.0203 C   0  0  0  0  0  0  0  0  0  0  0  0
   -3.7444   -4.4671    2.2271 O   0  0  0  0  0  0  0  0  0  0  0  0
   -5.1239   -4.3116    2.4704 C   0  0  0  0  0  0  0  0  0  0  0  0
    1.8400   -0.3724   -0.9418 H   0  0  0  0  0  0  0  0  0  0  0  0
    3.0185   -0.3876    1.2462 H   0  0  0  0  0  0  0  0  0  0  0  0
   -0.7237    0.3718    3.2625 H   0  0  0  0  0  0  0  0  0  0  0  0
   -1.9033    0.3927    1.0321 H   0  0  0  0  0  0  0  0  0  0  0  0
    3.3429   -0.1796    4.8618 H   0  0  0  0  0  0  0  0  0  0  0  0
    3.7260    0.5535    3.2712 H   0  0  0  0  0  0  0  0  0  0  0  0
    3.4382   -1.2152    3.4013 H   0  0  0  0  0  0  0  0  0  0  0  0
   -0.3319   -1.5988   -3.7728 H   0  0  0  0  0  0  0  0  0  0  0  0
   -1.3459   -4.3330   -2.7953 H   0  0  0  0  0  0  0  0  0  0  0  0
    0.3541   -3.7939   -2.8382 H   0  0  0  0  0  0  0  0  0  0  0  0
   -0.5591   -4.0031   -4.3582 H   0  0  0  0  0  0  0  0  0  0  0  0
   -3.2222   -2.6111   -3.4771 H   0  0  0  0  0  0  0  0  0  0  0  0
   -2.3755   -2.2807   -5.0085 H   0  0  0  0  0  0  0  0  0  0  0  0
   -2.7358   -0.9420   -3.8852 H   0  0  0  0  0  0  0  0  0  0  0  0
   -3.7079   -1.5168   -1.2881 H   0  0  0  0  0  0  0  0  0  0  0  0
   -4.9316   -2.7155    0.4922 H   0  0  0  0  0  0  0  0  0  0  0  0
   -1.2703   -4.6465    1.7085 H   0  0  0  0  0  0  0  0  0  0  0  0
   -0.0462   -3.4209   -0.1133 H   0  0  0  0  0  0  0  0  0  0  0  0
   -5.3664   -4.9576    3.3244 H   0  0  0  0  0  0  0  0  0  0  0  0
   -5.7310   -4.6224    1.6013 H   0  0  0  0  0  0  0  0  0  0  0  0
   -5.3799   -3.2676    2.7257 H   0  0  0  0  0  0  0  0  0  0  0  0
  1  2  2  0
  1  6  1  0
  1  9  1  0
  2  3  1  0
  2 24  1  0
  3  4  2  0
  3 25  1  0
  4  5  1  0
  4  7  1  0
  5  6  2  0
  5 26  1  0
  6 27  1  0
  7  8  1  0
  8 28  1  0
  8 29  1  0
  8 30  1  0
  9 10  2  0
  9 11  2  0
  9 12  1  0
 12 13  1  0
 12 16  1  0
 13 14  1  0
 13 15  1  0
 13 31  1  0
 14 32  1  0
 14 33  1  0
 14 34  1  0
 15 35  1  0
 15 36  1  0
 15 37  1  0
 16 17  2  0
 16 21  1  0
 17 18  1  0
 17 38  1  0
 18 19  2  0
 18 39  1  0
 19 20  1  0
 19 22  1  0
 20 21  2  0
 20 40  1  0
 21 41  1  0
 22 23  1  0
 23 42  1  0
 23 43  1  0
 23 44  1  0
M  END

