rmsd148.gzmat
 OpenBabel08211713403D

 44 45  0  0  0  0  0  0  0  0999 V2000
    0.0000    0.0000    0.0000 C   0  0  0  0  0  0  0  0  0  0  0  0
    1.3994    0.0000    0.0000 C   0  0  0  0  0  0  0  0  0  0  0  0
    2.0970    0.0000    1.1971 C   0  0  0  0  0  0  0  0  0  0  0  0
    1.3715    0.0030    2.4021 C   0  0  0  0  0  0  0  0  0  0  0  0
   -0.0251    0.0159    2.4182 C   0  0  0  0  0  0  0  0  0  0  0  0
   -0.7048    0.0166    1.2027 C   0  0  0  0  0  0  0  0  0  0  0  0
    2.1709   -0.0054    3.4948 O   0  0  0  0  0  0  0  0  0  0  0  0
    1.5444   -0.0009    4.7708 C   0  0  0  0  0  0  0  0  0  0  0  0
   -0.8621   -0.0429   -1.5175 S   0  0  0  0  0  0  0  0  0  0  0  0
   -2.2104    0.4351   -1.3080 O   0  0  0  0  0  0  0  0  0  0  0  0
   -0.0355    0.5189   -2.5649 O   0  0  0  0  0  0  0  0  0  0  0  0
   -0.9343   -1.7628   -1.8481 N   0  0  0  0  0  0  0  0  0  0  0  0
   -0.8413   -2.2054   -3.2582 C   0  0  0  0  0  0  0  0  0  0  0  0
   -0.3265   -3.6544   -3.3080 C   0  0  0  0  0  0  0  0  0  0  0  0
   -2.1735   -2.1001   -4.0193 C   0  0  0  0  0  0  0  0  0  0  0  0
   -1.8034   -2.5274   -1.0082 C   0  0  0  0  0  0  0  0  0  0  0  0
   -3.1911   -2.3112   -0.9489 C   0  0  0  0  0  0  0  0  0  0  0  0
   -3.9786   -3.0888   -0.1165 C   0  0  0  0  0  0  0  0  0  0  0  0
   -3.3703   -4.0875    0.6615 C   0  0  0  0  0  0  0  0  0  0  0  0
   -1.9944   -4.3044    0.6287 C   0  0  0  0  0  0  0  0  0  0  0  0
   -1.2124   -3.5143   -0.2109 C   0  0  0  0  0  0  0  0  0  0  0  0
   -4.2652   -4.7752    1.4209 O   0  0  0  0  0  0  0  0  0  0  0  0
   -3.7660   -5.8445    2.2106 C   0  0  0  0  0  0  0  0  0  0  0  0
    1.9590    0.0054   -0.9447 H   0  0  0  0  0  0  0  0  0  0  0  0
    3.1830   -0.0003    1.2227 H   0  0  0  0  0  0  0  0  0  0  0  0
   -0.5808    0.0247    3.3483 H   0  0  0  0  0  0  0  0  0  0  0  0
   -1.8032    0.0321    1.2097 H   0  0  0  0  0  0  0  0  0  0  0  0
    2.4074   -0.0230    5.4516 H   0  0  0  0  0  0  0  0  0  0  0  0
    0.9261   -0.8934    4.9061 H   0  0  0  0  0  0  0  0  0  0  0  0
    0.9653    0.9164    4.9171 H   0  0  0  0  0  0  0  0  0  0  0  0
   -0.0778   -1.5416   -3.7601 H   0  0  0  0  0  0  0  0  0  0  0  0
   -1.0555   -4.3583   -2.8911 H   0  0  0  0  0  0  0  0  0  0  0  0
    0.5997   -3.7624   -2.7322 H   0  0  0  0  0  0  0  0  0  0  0  0
   -0.1187   -3.9564   -4.3388 H   0  0  0  0  0  0  0  0  0  0  0  0
   -2.9298   -2.7767   -3.6068 H   0  0  0  0  0  0  0  0  0  0  0  0
   -2.0383   -2.3588   -5.0739 H   0  0  0  0  0  0  0  0  0  0  0  0
   -2.5842   -1.0837   -3.9848 H   0  0  0  0  0  0  0  0  0  0  0  0
   -3.6491   -1.5157   -1.5464 H   0  0  0  0  0  0  0  0  0  0  0  0
   -5.0538   -2.9398   -0.0549 H   0  0  0  0  0  0  0  0  0  0  0  0
   -1.5264   -5.0692    1.2371 H   0  0  0  0  0  0  0  0  0  0  0  0
   -0.1326   -3.6614   -0.2505 H   0  0  0  0  0  0  0  0  0  0  0  0
   -4.6832   -6.2397    2.6693 H   0  0  0  0  0  0  0  0  0  0  0  0
   -3.0818   -5.4749    2.9800 H   0  0  0  0  0  0  0  0  0  0  0  0
   -3.2931   -6.6090    1.5865 H   0  0  0  0  0  0  0  0  0  0  0  0
  1  2  2  0  0  0  0
  1  6  1  0  0  0  0
  2  3  1  0  0  0  0
  3 25  1  0  0  0  0
  3  4  2  0  0  0  0
  4  5  1  0  0  0  0
  4  7  1  0  0  0  0
  5 26  1  0  0  0  0
  6 27  1  0  0  0  0
  6  5  2  0  0  0  0
  7  8  1  0  0  0  0
  8 29  1  0  0  0  0
  8 30  1  0  0  0  0
  8 28  1  0  0  0  0
  9 10  2  0  0  0  0
  9  1  1  0  0  0  0
 11  9  2  0  0  0  0
 12  9  1  0  0  0  0
 12 16  1  0  0  0  0
 13 12  1  0  0  0  0
 14 13  1  0  0  0  0
 14 32  1  0  0  0  0
 14 33  1  0  0  0  0
 15 37  1  0  0  0  0
 15 35  1  0  0  0  0
 15 13  1  0  0  0  0
 16 17  2  0  0  0  0
 16 21  1  0  0  0  0
 17 18  1  0  0  0  0
 18 39  1  0  0  0  0
 18 19  2  0  0  0  0
 19 22  1  0  0  0  0
 20 19  1  0  0  0  0
 20 40  1  0  0  0  0
 21 20  2  0  0  0  0
 22 23  1  0  0  0  0
 23 42  1  0  0  0  0
 23 43  1  0  0  0  0
 24  2  1  0  0  0  0
 31 13  1  0  0  0  0
 34 14  1  0  0  0  0
 36 15  1  0  0  0  0
 38 17  1  0  0  0  0
 41 21  1  0  0  0  0
 44 23  1  0  0  0  0
M  END
$$$$
