45
rmsd117.gzmat
S          0.00000        0.00000        0.00000
S          2.05180        0.00000        0.00000
C          2.23270        0.00000        1.79320
N          3.48460       -0.03420        2.24290
C          4.61350       -0.06590        1.35910
C          5.08890        1.12570        0.80350
C          6.21270        1.08270       -0.01760
C          6.85040       -0.13070       -0.27290
C          6.37100       -1.31080        0.29480
C          5.24870       -1.28780        1.11820
C          1.05520        0.05140        2.55730
C         -0.19070        0.14590        1.82390
N         -1.35120        0.31720        2.32730
C         -2.57020        0.38500        1.62740
C         -3.30050       -0.78800        1.39300
C         -4.54960       -0.69780        0.78700
C         -5.06810        0.54370        0.42100
C         -4.33860        1.70650        0.66610
C         -3.08700        1.63780        1.26960
C          1.07530       -0.01740        4.00410
S          2.45740       -0.51110        4.88950
N         -0.02140        0.30730        4.71290
C         -0.06720        0.22230        6.14650
C          0.51110        1.23300        6.91950
C          0.40430        1.16160        8.30590
C         -0.27050        0.09920        8.90580
C         -0.84500       -0.90060        8.12270
C         -0.74790       -0.84770        6.73460
H          3.68500       -0.11930        3.29330
H          4.59180        2.07280        1.01210
H          6.59400        2.00150       -0.46160
H          7.72770       -0.15670       -0.91770
H          6.87550       -2.25510        0.09340
H          4.86870       -2.20620        1.56790
H         -2.89330       -1.75310        1.68720
H         -5.12380       -1.60350        0.59670
H         -6.04350        0.60530       -0.05610
H         -4.74860        2.67490        0.38230
H         -2.51330        2.54110        1.46570
H         -0.91390        0.52590        4.24720
H          1.04710        2.05300        6.44380
H          0.85600        1.93640        8.92270
H         -0.34550        0.04810        9.99030
H         -1.36690       -1.73020        8.59660
H         -1.18170       -1.63170        6.11640
