rmsd48.gzmat
 OpenBabel08211713393D

 45 48  0  0  0  0  0  0  0  0999 V2000
    0.0000    0.0000    0.0000 S   0  0  0  0  0  0  0  0  0  0  0  0
    2.0499    0.0000    0.0000 S   0  0  0  0  0  0  0  0  0  0  0  0
    2.2315    0.0000    1.7936 C   0  0  0  0  0  0  0  0  0  0  0  0
    3.4797   -0.0774    2.2415 N   0  0  0  0  0  0  0  0  0  0  0  0
    4.6080   -0.1534    1.3609 C   0  0  0  0  0  0  0  0  0  0  0  0
    5.3589    1.0031    1.1305 C   0  0  0  0  0  0  0  0  0  0  0  0
    6.4805    0.9241    0.3096 C   0  0  0  0  0  0  0  0  0  0  0  0
    6.8452   -0.2927   -0.2657 C   0  0  0  0  0  0  0  0  0  0  0  0
    6.0926   -1.4409   -0.0208 C   0  0  0  0  0  0  0  0  0  0  0  0
    4.9684   -1.3816    0.7985 C   0  0  0  0  0  0  0  0  0  0  0  0
    1.0547    0.0938    2.5603 C   0  0  0  0  0  0  0  0  0  0  0  0
   -0.1932    0.1453    1.8245 C   0  0  0  0  0  0  0  0  0  0  0  0
   -1.3585    0.2583    2.3334 N   0  0  0  0  0  0  0  0  0  0  0  0
   -2.5886    0.3345    1.6580 C   0  0  0  0  0  0  0  0  0  0  0  0
   -3.5084   -0.7074    1.8460 C   0  0  0  0  0  0  0  0  0  0  0  0
   -4.7759   -0.6026    1.2836 C   0  0  0  0  0  0  0  0  0  0  0  0
   -5.1272    0.5245    0.5409 C   0  0  0  0  0  0  0  0  0  0  0  0
   -4.2073    1.5557    0.3575 C   0  0  0  0  0  0  0  0  0  0  0  0
   -2.9350    1.4717    0.9150 C   0  0  0  0  0  0  0  0  0  0  0  0
    1.0830    0.1391    4.0056 C   0  0  0  0  0  0  0  0  0  0  0  0
    2.5353    0.0794    4.9247 S   0  0  0  0  0  0  0  0  0  0  0  0
   -0.0552    0.2309    4.7161 N   0  0  0  0  0  0  0  0  0  0  0  0
   -0.0554    0.2670    6.1538 C   0  0  0  0  0  0  0  0  0  0  0  0
    0.0161    1.5004    6.8075 C   0  0  0  0  0  0  0  0  0  0  0  0
   -0.0375    1.5256    8.1986 C   0  0  0  0  0  0  0  0  0  0  0  0
   -0.1651    0.3389    8.9196 C   0  0  0  0  0  0  0  0  0  0  0  0
   -0.2330   -0.8844    8.2544 C   0  0  0  0  0  0  0  0  0  0  0  0
   -0.1779   -0.9303    6.8636 C   0  0  0  0  0  0  0  0  0  0  0  0
    3.6821   -0.0573    3.3079 H   0  0  0  0  0  0  0  0  0  0  0  0
    5.0691    1.9498    1.5876 H   0  0  0  0  0  0  0  0  0  0  0  0
    7.0740    1.8167    0.1161 H   0  0  0  0  0  0  0  0  0  0  0  0
    7.7238   -0.3479   -0.9066 H   0  0  0  0  0  0  0  0  0  0  0  0
    6.3847   -2.3884   -0.4720 H   0  0  0  0  0  0  0  0  0  0  0  0
    4.3815   -2.2780    1.0007 H   0  0  0  0  0  0  0  0  0  0  0  0
   -3.2264   -1.5820    2.4291 H   0  0  0  0  0  0  0  0  0  0  0  0
   -5.4981   -1.4051    1.4269 H   0  0  0  0  0  0  0  0  0  0  0  0
   -6.1216    0.6002    0.1071 H   0  0  0  0  0  0  0  0  0  0  0  0
   -4.4836    2.4330   -0.2261 H   0  0  0  0  0  0  0  0  0  0  0  0
   -2.2216    2.2828    0.7857 H   0  0  0  0  0  0  0  0  0  0  0  0
   -0.9764    0.2836    4.2600 H   0  0  0  0  0  0  0  0  0  0  0  0
    0.1272    2.4212    6.2369 H   0  0  0  0  0  0  0  0  0  0  0  0
    0.0290    2.4759    8.7256 H   0  0  0  0  0  0  0  0  0  0  0  0
   -0.2079    0.3690   10.0065 H   0  0  0  0  0  0  0  0  0  0  0  0
   -0.3216   -1.8094    8.8214 H   0  0  0  0  0  0  0  0  0  0  0  0
   -0.2134   -1.8827    6.3380 H   0  0  0  0  0  0  0  0  0  0  0  0
  1 12  1  0  0  0  0
  2  1  1  0  0  0  0
  2  3  2  0  0  0  0
  3  4  1  0  0  0  0
  3 11  1  0  0  0  0
  4 29  1  0  0  0  0
  5  4  1  0  0  0  0
  6  5  1  0  0  0  0
  6 30  1  0  0  0  0
  7  6  2  0  0  0  0
  8  9  2  0  0  0  0
  8  7  1  0  0  0  0
  9 10  1  0  0  0  0
 10 34  1  0  0  0  0
 10  5  2  0  0  0  0
 11 20  1  0  0  0  0
 12 13  1  0  0  0  0
 12 11  2  0  0  0  0
 14 15  1  0  0  0  0
 14 13  1  0  0  0  0
 15 35  1  0  0  0  0
 16 36  1  0  0  0  0
 16 15  2  0  0  0  0
 17 16  1  0  0  0  0
 18 17  2  0  0  0  0
 18 19  1  0  0  0  0
 19 14  2  0  0  0  0
 20 22  1  0  0  0  0
 20 21  2  0  0  0  0
 22 23  1  0  0  0  0
 23 24  2  0  0  0  0
 23 28  1  0  0  0  0
 24 25  1  0  0  0  0
 25 42  1  0  0  0  0
 25 26  2  0  0  0  0
 26 43  1  0  0  0  0
 27 44  1  0  0  0  0
 27 26  1  0  0  0  0
 28 27  2  0  0  0  0
 31  7  1  0  0  0  0
 32  8  1  0  0  0  0
 33  9  1  0  0  0  0
 37 17  1  0  0  0  0
 38 18  1  0  0  0  0
 39 19  1  0  0  0  0
 40 22  1  0  0  0  0
 41 24  1  0  0  0  0
 45 28  1  0  0  0  0
M  RAD  1  13   2
M  END
$$$$
