45
rmsd110.gzmat
S          0.00000        0.00000        0.00000
S          2.04990        0.00000        0.00000
C          2.23290        0.00000        1.79270
N          3.48360       -0.03100        2.24040
C          4.61600       -0.06320        1.36270
C          5.34300        1.11450        1.16270
C          6.47320        1.07700        0.35070
C          6.86930       -0.11960       -0.24660
C          6.14000       -1.28890       -0.03210
C          5.00740       -1.27100        0.77740
C          1.05500        0.03910        2.56150
C         -0.19540        0.03870        1.82910
N         -1.36660        0.05030        2.33790
C         -2.59020        0.09290        1.64520
C         -3.39890       -1.05200        1.64010
C         -4.65420       -0.99170        1.04380
C         -5.10270        0.19340        0.46140
C         -4.29560        1.33020        0.47780
C         -3.03680        1.29030        1.06870
C          1.08340        0.09950        4.00680
S          2.53240        0.27900        4.91310
N         -0.05430        0.01980        4.71980
C         -0.06590        0.10700        6.15500
C         -0.36750        1.33310        6.75430
C         -0.43450        1.40300        8.14330
C         -0.20310        0.26580        8.91590
C          0.09720       -0.95100        8.30460
C          0.16800       -1.04120        6.91690
H          3.68530        0.02440        3.30370
H          5.02710        2.04550        1.63500
H          7.04850        1.98660        0.18090
H          7.75290       -0.14090       -0.88260
H          6.45780       -2.22140       -0.49730
H          4.44010       -2.18480        0.95610
H         -3.04270       -1.97210        2.09890
H         -5.28920       -1.87660        1.03150
H         -6.08420        0.23120       -0.00530
H         -4.65030        2.25520        0.02520
H         -2.40850        2.17820        1.09250
H         -0.97560       -0.03390        4.26330
H         -0.53230        2.21910        6.14340
H         -0.66180        2.35160        8.62640
H         -0.25250        0.32910       10.00130
H          0.28450       -1.83370        8.91370
H          0.41630       -1.98390        6.43140
