45
rmsd158.gzmat
S          0.00000        0.00000        0.00000
S          2.05120        0.00000        0.00000
C          2.23270        0.00000        1.79270
N          3.48440       -0.00150        2.24390
C          4.61440        0.00470        1.36180
C          5.30500        1.20340        1.16060
C          6.42410        1.20330        0.33270
C          6.84440        0.02280       -0.27940
C          6.15430       -1.16900       -0.06000
C          5.03490       -1.18910        0.76760
C          1.05450       -0.01260        2.55820
C         -0.19320       -0.09810        1.82760
N         -1.35730       -0.23890        2.33310
C         -2.57570       -0.28450        1.62990
C         -3.20020       -1.52380        1.43520
C         -4.45030       -1.56390        0.82610
C         -5.07410       -0.38560        0.41750
C         -4.44870        0.84390        0.62090
C         -3.19780        0.90520        1.22650
C          1.07890        0.08920        4.00230
S          2.47770        0.55880        4.87590
N         -0.02490       -0.18160        4.72250
C         -0.05620       -0.05460        6.15370
C         -0.69030        1.05680        6.71640
C         -0.76600        1.15650        8.10320
C         -0.21490        0.16240        8.91050
C          0.41350       -0.94190        8.33580
C          0.49650       -1.06120        6.95120
H          3.68490        0.08480        3.29520
H          4.97010        2.12190        1.64500
H          6.97190        2.12970        0.16260
H          7.71760        0.03090       -0.93010
H          6.49170       -2.08770       -0.53820
H          4.49860       -2.11990        0.95240
H         -2.70850       -2.43870        1.75840
H         -4.94240       -2.52220        0.66580
H         -6.05020       -0.42560       -0.06030
H         -4.94060        1.76250        0.30360
H         -2.70820        1.86260        1.39230
H         -0.92550       -0.38380        4.26710
H         -1.10440        1.83640        6.07850
H         -1.25200        2.01860        8.55730
H         -0.27090        0.25010        9.99360
H          0.84830       -1.71180        8.97050
H          0.99480       -1.91510        6.49520
