rmsd82.gzmat
 OpenBabel08211713393D

 45 48  0  0  0  0  0  0  0  0999 V2000
    0.0000    0.0000    0.0000 S   0  0  0  0  0  0  0  0  0  0  0  0
    2.0493    0.0000    0.0000 S   0  0  0  0  0  0  0  0  0  0  0  0
    2.2312    0.0000    1.7936 C   0  0  0  0  0  0  0  0  0  0  0  0
    3.4794   -0.0795    2.2413 N   0  0  0  0  0  0  0  0  0  0  0  0
    4.6064   -0.1711    1.3607 C   0  0  0  0  0  0  0  0  0  0  0  0
    5.3880    0.9690    1.1508 C   0  0  0  0  0  0  0  0  0  0  0  0
    6.5037    0.8763    0.3232 C   0  0  0  0  0  0  0  0  0  0  0  0
    6.8305   -0.3375   -0.2813 C   0  0  0  0  0  0  0  0  0  0  0  0
    6.0541   -1.4721   -0.0468 C   0  0  0  0  0  0  0  0  0  0  0  0
    4.9368   -1.3996    0.7809 C   0  0  0  0  0  0  0  0  0  0  0  0
    1.0547    0.0967    2.5602 C   0  0  0  0  0  0  0  0  0  0  0  0
   -0.1933    0.1419    1.8243 C   0  0  0  0  0  0  0  0  0  0  0  0
   -1.3610    0.2457    2.3298 N   0  0  0  0  0  0  0  0  0  0  0  0
   -2.5869    0.3034    1.6435 C   0  0  0  0  0  0  0  0  0  0  0  0
   -3.4767   -0.7705    1.7894 C   0  0  0  0  0  0  0  0  0  0  0  0
   -4.7393   -0.6883    1.2120 C   0  0  0  0  0  0  0  0  0  0  0  0
   -5.1161    0.4497    0.4990 C   0  0  0  0  0  0  0  0  0  0  0  0
   -4.2274    1.5151    0.3622 C   0  0  0  0  0  0  0  0  0  0  0  0
   -2.9582    1.4506    0.9289 C   0  0  0  0  0  0  0  0  0  0  0  0
    1.0836    0.1461    4.0053 C   0  0  0  0  0  0  0  0  0  0  0  0
    2.5336    0.0550    4.9254 S   0  0  0  0  0  0  0  0  0  0  0  0
   -0.0538    0.2648    4.7131 N   0  0  0  0  0  0  0  0  0  0  0  0
   -0.0547    0.3218    6.1498 C   0  0  0  0  0  0  0  0  0  0  0  0
    0.1418    1.5497    6.7882 C   0  0  0  0  0  0  0  0  0  0  0  0
    0.0882    1.5987    8.1784 C   0  0  0  0  0  0  0  0  0  0  0  0
   -0.1630    0.4406    8.9136 C   0  0  0  0  0  0  0  0  0  0  0  0
   -0.3571   -0.7774    8.2637 C   0  0  0  0  0  0  0  0  0  0  0  0
   -0.3035   -0.8477    6.8739 C   0  0  0  0  0  0  0  0  0  0  0  0
    3.6820   -0.0592    3.3070 H   0  0  0  0  0  0  0  0  0  0  0  0
    5.1262    1.9138    1.6283 H   0  0  0  0  0  0  0  0  0  0  0  0
    7.1218    1.7560    0.1469 H   0  0  0  0  0  0  0  0  0  0  0  0
    7.6980   -0.4002   -0.9366 H   0  0  0  0  0  0  0  0  0  0  0  0
    6.3221   -2.4204   -0.5111 H   0  0  0  0  0  0  0  0  0  0  0  0
    4.3341   -2.2868    0.9775 H   0  0  0  0  0  0  0  0  0  0  0  0
   -3.1758   -1.6533    2.3501 H   0  0  0  0  0  0  0  0  0  0  0  0
   -5.4376   -1.5172    1.3200 H   0  0  0  0  0  0  0  0  0  0  0  0
   -6.1055    0.5065    0.0511 H   0  0  0  0  0  0  0  0  0  0  0  0
   -4.5266    2.4048   -0.1904 H   0  0  0  0  0  0  0  0  0  0  0  0
   -2.2665    2.2843    0.8280 H   0  0  0  0  0  0  0  0  0  0  0  0
   -0.9746    0.3095    4.2558 H   0  0  0  0  0  0  0  0  0  0  0  0
    0.3484    2.4468    6.2065 H   0  0  0  0  0  0  0  0  0  0  0  0
    0.2510    2.5444    8.6920 H   0  0  0  0  0  0  0  0  0  0  0  0
   -0.2031    0.4880    9.9999 H   0  0  0  0  0  0  0  0  0  0  0  0
   -0.5439   -1.6797    8.8436 H   0  0  0  0  0  0  0  0  0  0  0  0
   -0.4371   -1.7971    6.3585 H   0  0  0  0  0  0  0  0  0  0  0  0
  1  2  1  0  0  0  0
  1 12  1  0  0  0  0
  2  3  2  0  0  0  0
  3  4  1  0  0  0  0
  3 11  1  0  0  0  0
  4 29  1  0  0  0  0
  5  4  1  0  0  0  0
  6  5  1  0  0  0  0
  6 30  1  0  0  0  0
  7  6  2  0  0  0  0
  8  9  2  0  0  0  0
  8  7  1  0  0  0  0
  9 10  1  0  0  0  0
 10 34  1  0  0  0  0
 10  5  2  0  0  0  0
 11 20  1  0  0  0  0
 12 13  1  0  0  0  0
 12 11  2  0  0  0  0
 14 15  1  0  0  0  0
 14 13  1  0  0  0  0
 15 35  1  0  0  0  0
 16 36  1  0  0  0  0
 16 15  2  0  0  0  0
 17 16  1  0  0  0  0
 18 17  2  0  0  0  0
 18 19  1  0  0  0  0
 19 14  2  0  0  0  0
 20 22  1  0  0  0  0
 20 21  2  0  0  0  0
 22 23  1  0  0  0  0
 23 24  2  0  0  0  0
 23 28  1  0  0  0  0
 24 25  1  0  0  0  0
 25 42  1  0  0  0  0
 25 26  2  0  0  0  0
 26 43  1  0  0  0  0
 27 44  1  0  0  0  0
 27 26  1  0  0  0  0
 28 27  2  0  0  0  0
 31  7  1  0  0  0  0
 32  8  1  0  0  0  0
 33  9  1  0  0  0  0
 37 17  1  0  0  0  0
 38 18  1  0  0  0  0
 39 19  1  0  0  0  0
 40 22  1  0  0  0  0
 41 24  1  0  0  0  0
 45 28  1  0  0  0  0
M  RAD  1  13   2
M  END
$$$$
