45
rmsd83.gzmat
S          0.00000        0.00000        0.00000
S          2.05100        0.00000        0.00000
C          2.23500        0.00000        1.79250
N          3.48440       -0.01000        2.24550
C          4.62560       -0.03460        1.37960
C          5.38490        1.13190        1.24090
C          6.52790        1.10010        0.44690
C          6.90480       -0.07940       -0.19470
C          6.14380       -1.23790       -0.04140
C          4.99970       -1.22670        0.75200
C          1.05600        0.01640        2.56050
C         -0.19440       -0.01580        1.82920
N         -1.36300       -0.06250        2.34140
C         -2.59260       -0.04390        1.65940
C         -3.33890       -1.22770        1.58020
C         -4.60050       -1.19430        0.99500
C         -5.11830        0.00320        0.50220
C         -4.37520        1.17890        0.59710
C         -3.10890        1.16550        1.17300
C          1.08180        0.08980        4.00520
S          2.52050        0.34430        4.91030
N         -0.04940       -0.03890        4.72100
C         -0.05970        0.06950        6.15510
C         -0.30210        1.31410        6.74310
C         -0.36300        1.40040        8.13150
C         -0.18340        0.26080        8.91440
C          0.05780       -0.97460        8.31430
C          0.12160       -1.08100        6.92740
H          3.67740        0.05850        3.31060
H          5.08420        2.04950        1.74790
H          7.13150        1.99960        0.32720
H          7.79910       -0.09640       -0.81610
H          6.44590       -2.15700       -0.54210
H          4.41200       -2.13500        0.88640
H         -2.93160       -2.15550        1.97680
H         -5.18620       -2.10970        0.92240
H         -6.10480        0.02020        0.04470
H         -4.78620        2.11380        0.21830
H         -2.52720        2.08130        1.25480
H         -0.96680       -0.15110        4.26780
H         -0.42530        2.20130        6.12390
H         -0.54470        2.36310        8.60660
H         -0.22680        0.33670        9.99920
H          0.20460       -1.85890        8.93190
H          0.32530       -2.03830        6.45050
