45
rmsd55.gzmat
S          0.00000        0.00000        0.00000
S          2.05000        0.00000        0.00000
C          2.22840        0.00000        1.79370
N          3.47200       -0.10240        2.24790
C          4.60590       -0.21060        1.37850
C          5.38980        0.92550        1.15620
C          6.52440        0.81350        0.35740
C          6.86770       -0.41500       -0.20630
C          6.08160       -1.54220        0.03000
C          4.94430       -1.45000        0.82790
C          1.05300        0.13130        2.55700
C         -0.18900        0.23090        1.81720
N         -1.34730        0.44010        2.31210
C         -2.55920        0.55180        1.60610
C         -3.50910       -0.46980        1.74600
C         -4.74910       -0.33080        1.13130
C         -5.04300        0.81020        0.38520
C         -4.09670        1.82590        0.25860
C         -2.85090        1.70650        0.86670
C          1.07840        0.16420        4.00210
S          2.50590       -0.08670        4.92750
N         -0.04290        0.40170        4.70550
C         -0.04450        0.43810        6.14330
C          0.10810        1.66870        6.78820
C          0.05510        1.70830        8.17900
C         -0.14450        0.53690        8.90830
C         -0.29430       -0.68420        8.25190
C         -0.24620       -0.74370        6.86140
H          3.66680       -0.10570        3.31630
H          5.11640        1.88140        1.60380
H          7.14550        1.68940        0.17350
H          7.75620       -0.49520       -0.83060
H          6.35860       -2.50020       -0.40870
H          4.33210       -2.33070        1.02410
H         -3.27150       -1.35660        2.33030
H         -5.49430       -1.11830        1.23450
H         -6.01260        0.90800       -0.09730
H         -4.33140        2.71790       -0.32070
H         -2.11390        2.50160        0.77630
H         -0.95060        0.55160        4.24480
H          0.28010        2.57540        6.21050
H          0.17750        2.65770        8.69740
H         -0.17880        0.57520        9.99530
H         -0.44180       -1.59660        8.82720
H         -0.34660       -1.69450        6.34060
