45
rmsd111.gzmat
S          0.00000        0.00000        0.00000
S          2.05180        0.00000        0.00000
C          2.23580        0.00000        1.79240
N          3.48610       -0.00560        2.24670
C          4.62460        0.01910        1.37690
C          5.34260        1.21270        1.25400
C          6.47700        1.23530        0.44800
C          6.88330        0.08300       -0.22460
C          6.16550       -1.10410       -0.08420
C          5.03220       -1.14800        0.72400
C          1.05720       -0.00330        2.55810
C         -0.19250       -0.07070        1.82680
N         -1.35460       -0.17940        2.34180
C         -2.59360       -0.21790        1.68050
C         -3.25950       -1.44720        1.57610
C         -4.54590       -1.47770        1.04880
C         -5.16300       -0.30050        0.62600
C         -4.49230        0.91730        0.72920
C         -3.20450        0.96940        1.25380
C          1.08050        0.08850        4.00340
S          2.49000        0.50710        4.88800
N         -0.03400       -0.14940        4.71810
C         -0.07280       -0.04380        6.15040
C         -0.68980        1.07150        6.72430
C         -0.79170        1.14330        8.11110
C         -0.28200        0.11810        8.90650
C          0.33490       -0.98690        8.32060
C          0.44330       -1.07850        6.93570
H          3.68000        0.07670        3.30340
H          5.01600        2.10980        1.78160
H          7.04810        2.15700        0.34300
H          7.76640        0.11020       -0.86130
H          6.49230       -2.00210       -0.60830
H          4.47710       -2.07790        0.84820
H         -2.77180       -2.36040        1.91050
H         -5.07520       -2.42630        0.97080
H         -6.17050       -0.33320        0.21780
H         -4.97800        1.83480        0.39920
H         -2.67940        1.91830        1.34040
H         -0.94040       -0.31680        4.25780
H         -1.07290        1.87400        6.09630
H         -1.26740        2.00640        8.57390
H         -0.36230        0.18130        9.98980
H          0.73910       -1.78030        8.94690
H          0.93180       -1.93380        6.47110
