rmsd104.gzmat
 OpenBabel08211713363D

 36 37  0  0  0  0  0  0  0  0999 V2000
    0.0000    0.0000    0.0000 N   0  0  0  0  0  0  0  0  0  0  0  0
    1.3779    0.0000    0.0000 C   0  0  0  0  0  0  0  0  0  0  0  0
    1.9839    0.0000    1.0737 O   0  0  0  0  0  0  0  0  0  0  0  0
    2.0829   -0.0009   -1.2931 C   0  0  0  0  0  0  0  0  0  0  0  0
    1.6504    0.7866   -2.3648 C   0  0  0  0  0  0  0  0  0  0  0  0
    2.3617    0.7732   -3.5598 C   0  0  0  0  0  0  0  0  0  0  0  0
    3.4955   -0.0312   -3.6531 C   0  0  0  0  0  0  0  0  0  0  0  0
    3.9457   -0.8137   -2.5951 C   0  0  0  0  0  0  0  0  0  0  0  0
    3.2329   -0.7904   -1.3991 C   0  0  0  0  0  0  0  0  0  0  0  0
    4.3634   -0.0492   -5.1123 Cl  0  0  0  0  0  0  0  0  0  0  0  0
   -0.7606   -0.1695    1.2389 C   0  0  0  0  0  0  0  0  0  0  0  0
   -0.7210    1.0929    2.1304 C   0  0  0  0  0  0  0  0  0  0  0  0
    0.5460    1.1115    2.9564 N   0  0  0  0  0  0  0  0  0  0  0  0
    1.3347    0.6247    2.3513 H   0  0  0  0  0  0  0  0  0  0  0  0
    0.9675    2.5279    3.2719 C   0  0  0  0  0  0  0  0  0  0  0  0
    2.2644    2.4750    4.0988 C   0  0  0  0  0  0  0  0  0  0  0  0
    2.0338    1.7489    5.2865 O   0  0  0  0  0  0  0  0  0  0  0  0
    1.6879    0.4038    5.0395 C   0  0  0  0  0  0  0  0  0  0  0  0
    0.3690    0.3462    4.2471 C   0  0  0  0  0  0  0  0  0  0  0  0
   -0.5227   -0.0340   -0.8689 H   0  0  0  0  0  0  0  0  0  0  0  0
    0.7724    1.4252   -2.2694 H   0  0  0  0  0  0  0  0  0  0  0  0
    2.0352    1.3865   -4.4043 H   0  0  0  0  0  0  0  0  0  0  0  0
    4.8425   -1.4332   -2.6894 H   0  0  0  0  0  0  0  0  0  0  0  0
    3.5716   -1.3827   -0.5434 H   0  0  0  0  0  0  0  0  0  0  0  0
   -0.3849   -1.0629    1.7984 H   0  0  0  0  0  0  0  0  0  0  0  0
   -1.8258   -0.3982    0.9778 H   0  0  0  0  0  0  0  0  0  0  0  0
   -1.6163    1.1353    2.7905 H   0  0  0  0  0  0  0  0  0  0  0  0
   -0.7667    2.0070    1.4910 H   0  0  0  0  0  0  0  0  0  0  0  0
    1.1282    3.0943    2.3279 H   0  0  0  0  0  0  0  0  0  0  0  0
    0.1664    3.0473    3.8452 H   0  0  0  0  0  0  0  0  0  0  0  0
    3.1122    2.0461    3.5321 H   0  0  0  0  0  0  0  0  0  0  0  0
    2.5567    3.4801    4.4730 H   0  0  0  0  0  0  0  0  0  0  0  0
    1.5682   -0.0132    6.0633 H   0  0  0  0  0  0  0  0  0  0  0  0
    2.5136   -0.1285    4.5312 H   0  0  0  0  0  0  0  0  0  0  0  0
   -0.4550    0.7942    4.8490 H   0  0  0  0  0  0  0  0  0  0  0  0
    0.0898   -0.7072    4.0278 H   0  0  0  0  0  0  0  0  0  0  0  0
  1  2  1  0  0  0  0
  1 11  1  0  0  0  0
  2  3  2  0  0  0  0
  4  2  1  0  0  0  0
  5 21  1  0  0  0  0
  5  4  2  0  0  0  0
  6  5  1  0  0  0  0
  7  6  2  0  0  0  0
  7  8  1  0  0  0  0
  8  9  2  0  0  0  0
  9  4  1  0  0  0  0
  9 24  1  0  0  0  0
 10  7  1  0  0  0  0
 11 25  1  0  0  0  0
 11 12  1  0  0  0  0
 12 27  1  0  0  0  0
 12 13  1  0  0  0  0
 13 15  1  0  0  0  0
 13 19  1  0  0  0  0
 14 13  1  0  0  0  0
 15 30  1  0  0  0  0
 15 16  1  0  0  0  0
 16 32  1  0  0  0  0
 16 17  1  0  0  0  0
 18 17  1  0  0  0  0
 18 33  1  0  0  0  0
 19 35  1  0  0  0  0
 19 18  1  0  0  0  0
 20  1  1  0  0  0  0
 22  6  1  0  0  0  0
 23  8  1  0  0  0  0
 26 11  1  0  0  0  0
 28 12  1  0  0  0  0
 29 15  1  0  0  0  0
 31 16  1  0  0  0  0
 34 18  1  0  0  0  0
 36 19  1  0  0  0  0
M  END
$$$$
