rmsd107.gzmat
 OpenBabel08211713363D

 36 37  0  0  0  0  0  0  0  0999 V2000
    0.0000    0.0000    0.0000 N   0  0  0  0  0  0  0  0  0  0  0  0
    1.3780    0.0000    0.0000 C   0  0  0  0  0  0  0  0  0  0  0  0
    1.9826    0.0000    1.0747 O   0  0  0  0  0  0  0  0  0  0  0  0
    2.0848   -0.0117   -1.2920 C   0  0  0  0  0  0  0  0  0  0  0  0
    3.2608   -0.7655   -1.3700 C   0  0  0  0  0  0  0  0  0  0  0  0
    3.9704   -0.8174   -2.5666 C   0  0  0  0  0  0  0  0  0  0  0  0
    3.4925   -0.0951   -3.6548 C   0  0  0  0  0  0  0  0  0  0  0  0
    2.3345    0.6773   -3.5898 C   0  0  0  0  0  0  0  0  0  0  0  0
    1.6271    0.7190   -2.3931 C   0  0  0  0  0  0  0  0  0  0  0  0
    4.3553   -0.1504   -5.1158 Cl  0  0  0  0  0  0  0  0  0  0  0  0
   -0.7601   -0.1866    1.2367 C   0  0  0  0  0  0  0  0  0  0  0  0
   -0.7238    1.0632    2.1457 C   0  0  0  0  0  0  0  0  0  0  0  0
    0.5391    1.0687    2.9784 N   0  0  0  0  0  0  0  0  0  0  0  0
    1.3330    0.6034    2.3634 H   0  0  0  0  0  0  0  0  0  0  0  0
    0.9494    2.4790    3.3346 C   0  0  0  0  0  0  0  0  0  0  0  0
    2.2422    2.4145    4.1678 C   0  0  0  0  0  0  0  0  0  0  0  0
    2.0149    1.6506    5.3323 O   0  0  0  0  0  0  0  0  0  0  0  0
    1.6793    0.3110    5.0432 C   0  0  0  0  0  0  0  0  0  0  0  0
    0.3611    0.2701    4.2483 C   0  0  0  0  0  0  0  0  0  0  0  0
   -0.5222   -0.0334   -0.8690 H   0  0  0  0  0  0  0  0  0  0  0  0
    3.6210   -1.3089   -0.4905 H   0  0  0  0  0  0  0  0  0  0  0  0
    4.8842   -1.4143   -2.6389 H   0  0  0  0  0  0  0  0  0  0  0  0
    1.9864    1.2431   -4.4585 H   0  0  0  0  0  0  0  0  0  0  0  0
    0.7317    1.3360   -2.3209 H   0  0  0  0  0  0  0  0  0  0  0  0
   -0.3831   -1.0869    1.7843 H   0  0  0  0  0  0  0  0  0  0  0  0
   -1.8244   -0.4153    0.9720 H   0  0  0  0  0  0  0  0  0  0  0  0
   -1.6224    1.0961    2.8014 H   0  0  0  0  0  0  0  0  0  0  0  0
   -0.7637    1.9860    1.5184 H   0  0  0  0  0  0  0  0  0  0  0  0
    1.1112    3.0707    2.4069 H   0  0  0  0  0  0  0  0  0  0  0  0
    0.1411    2.9772    3.9169 H   0  0  0  0  0  0  0  0  0  0  0  0
    3.0980    2.0118    3.5939 H   0  0  0  0  0  0  0  0  0  0  0  0
    2.5224    3.4111    4.5730 H   0  0  0  0  0  0  0  0  0  0  0  0
    1.5621   -0.1399    6.0526 H   0  0  0  0  0  0  0  0  0  0  0  0
    2.5099   -0.1976    4.5187 H   0  0  0  0  0  0  0  0  0  0  0  0
   -0.4645    0.7015    4.8601 H   0  0  0  0  0  0  0  0  0  0  0  0
    0.0824   -0.7773    4.0029 H   0  0  0  0  0  0  0  0  0  0  0  0
  1 11  1  0  0  0  0
  2  1  1  0  0  0  0
  2  3  2  0  0  0  0
  4  2  1  0  0  0  0
  5  4  1  0  0  0  0
  5 21  1  0  0  0  0
  6  5  2  0  0  0  0
  7  8  2  0  0  0  0
  7  6  1  0  0  0  0
  8  9  1  0  0  0  0
  9 24  1  0  0  0  0
  9  4  2  0  0  0  0
 10  7  1  0  0  0  0
 11 25  1  0  0  0  0
 11 12  1  0  0  0  0
 12 27  1  0  0  0  0
 12 13  1  0  0  0  0
 13 15  1  0  0  0  0
 13 19  1  0  0  0  0
 14 13  1  0  0  0  0
 15 30  1  0  0  0  0
 15 16  1  0  0  0  0
 16 32  1  0  0  0  0
 16 17  1  0  0  0  0
 18 17  1  0  0  0  0
 18 33  1  0  0  0  0
 19 35  1  0  0  0  0
 19 18  1  0  0  0  0
 20  1  1  0  0  0  0
 22  6  1  0  0  0  0
 23  8  1  0  0  0  0
 26 11  1  0  0  0  0
 28 12  1  0  0  0  0
 29 15  1  0  0  0  0
 31 16  1  0  0  0  0
 34 18  1  0  0  0  0
 36 19  1  0  0  0  0
M  END
$$$$
