36
rmsd113.gzmat
N          0.00000        0.00000        0.00000
C          1.37790        0.00000        0.00000
O          1.98290        0.00000        1.07510
C          2.08900       -0.00740       -1.28930
C          3.26670       -0.75880       -1.36520
C          3.99010       -0.79150       -2.55420
C          3.52220       -0.05480       -3.63720
C          2.35930        0.71030       -3.57560
C          1.63760        0.73200       -2.38690
Cl         4.40480       -0.08220       -5.08740
C         -0.76040       -0.18880        1.23670
C         -0.73060        1.06020        2.14680
N          0.54000        1.08190        2.96680
H          1.33410        0.62350        2.34510
C          0.93620        2.49770        3.31500
C          2.23270        2.45490        4.14390
O          2.03090        1.68030        5.30550
C          1.71710        0.33650        5.01200
C          0.38750        0.27950        4.23770
H         -0.52240       -0.03460       -0.86910
H          3.61790       -1.31410       -0.48950
H          4.90780       -1.38280       -2.62430
H          2.01760        1.28650       -4.44010
H          0.73490        1.33910       -2.31800
H         -0.37950       -1.08740        1.78460
H         -1.82400       -0.42030        0.97160
H         -1.62260        1.08000        2.81250
H         -0.79070        1.98310        1.52160
H          1.09020        3.08550        2.38240
H          0.12440        2.99270        3.89500
H          3.09460        2.07470        3.56350
H          2.48880        3.45590        4.55430
H          1.62600       -0.12390        6.01950
H          2.54780       -0.15270        4.46960
H         -0.43380        0.69970        4.86240
H          0.11910       -0.77080        3.99350
