rmsd113.gzmat
 OpenBabel08211713363D

 36 37  0  0  0  0  0  0  0  0999 V2000
    0.0000    0.0000    0.0000 N   0  0  0  0  0  0  0  0  0  0  0  0
    1.3779    0.0000    0.0000 C   0  0  0  0  0  0  0  0  0  0  0  0
    1.9829    0.0000    1.0751 O   0  0  0  0  0  0  0  0  0  0  0  0
    2.0890   -0.0074   -1.2893 C   0  0  0  0  0  0  0  0  0  0  0  0
    3.2667   -0.7588   -1.3652 C   0  0  0  0  0  0  0  0  0  0  0  0
    3.9901   -0.7915   -2.5542 C   0  0  0  0  0  0  0  0  0  0  0  0
    3.5222   -0.0548   -3.6372 C   0  0  0  0  0  0  0  0  0  0  0  0
    2.3593    0.7103   -3.5756 C   0  0  0  0  0  0  0  0  0  0  0  0
    1.6376    0.7320   -2.3869 C   0  0  0  0  0  0  0  0  0  0  0  0
    4.4048   -0.0822   -5.0874 Cl  0  0  0  0  0  0  0  0  0  0  0  0
   -0.7604   -0.1888    1.2367 C   0  0  0  0  0  0  0  0  0  0  0  0
   -0.7306    1.0602    2.1468 C   0  0  0  0  0  0  0  0  0  0  0  0
    0.5400    1.0819    2.9668 N   0  0  0  0  0  0  0  0  0  0  0  0
    1.3341    0.6235    2.3451 H   0  0  0  0  0  0  0  0  0  0  0  0
    0.9362    2.4977    3.3150 C   0  0  0  0  0  0  0  0  0  0  0  0
    2.2327    2.4549    4.1439 C   0  0  0  0  0  0  0  0  0  0  0  0
    2.0309    1.6803    5.3055 O   0  0  0  0  0  0  0  0  0  0  0  0
    1.7171    0.3365    5.0120 C   0  0  0  0  0  0  0  0  0  0  0  0
    0.3875    0.2795    4.2377 C   0  0  0  0  0  0  0  0  0  0  0  0
   -0.5224   -0.0346   -0.8691 H   0  0  0  0  0  0  0  0  0  0  0  0
    3.6179   -1.3141   -0.4895 H   0  0  0  0  0  0  0  0  0  0  0  0
    4.9078   -1.3828   -2.6243 H   0  0  0  0  0  0  0  0  0  0  0  0
    2.0176    1.2865   -4.4401 H   0  0  0  0  0  0  0  0  0  0  0  0
    0.7349    1.3391   -2.3180 H   0  0  0  0  0  0  0  0  0  0  0  0
   -0.3795   -1.0874    1.7846 H   0  0  0  0  0  0  0  0  0  0  0  0
   -1.8240   -0.4203    0.9716 H   0  0  0  0  0  0  0  0  0  0  0  0
   -1.6226    1.0800    2.8125 H   0  0  0  0  0  0  0  0  0  0  0  0
   -0.7907    1.9831    1.5216 H   0  0  0  0  0  0  0  0  0  0  0  0
    1.0902    3.0855    2.3824 H   0  0  0  0  0  0  0  0  0  0  0  0
    0.1244    2.9927    3.8950 H   0  0  0  0  0  0  0  0  0  0  0  0
    3.0946    2.0747    3.5635 H   0  0  0  0  0  0  0  0  0  0  0  0
    2.4888    3.4559    4.5543 H   0  0  0  0  0  0  0  0  0  0  0  0
    1.6260   -0.1239    6.0195 H   0  0  0  0  0  0  0  0  0  0  0  0
    2.5478   -0.1527    4.4696 H   0  0  0  0  0  0  0  0  0  0  0  0
   -0.4338    0.6997    4.8624 H   0  0  0  0  0  0  0  0  0  0  0  0
    0.1191   -0.7708    3.9935 H   0  0  0  0  0  0  0  0  0  0  0  0
  1 11  1  0  0  0  0
  2  1  1  0  0  0  0
  2  3  2  0  0  0  0
  4  2  1  0  0  0  0
  5  4  1  0  0  0  0
  5 21  1  0  0  0  0
  6  5  2  0  0  0  0
  7  8  2  0  0  0  0
  7  6  1  0  0  0  0
  8  9  1  0  0  0  0
  9 24  1  0  0  0  0
  9  4  2  0  0  0  0
 10  7  1  0  0  0  0
 11 25  1  0  0  0  0
 11 12  1  0  0  0  0
 12 27  1  0  0  0  0
 12 13  1  0  0  0  0
 13 15  1  0  0  0  0
 13 19  1  0  0  0  0
 14 13  1  0  0  0  0
 15 30  1  0  0  0  0
 15 16  1  0  0  0  0
 16 32  1  0  0  0  0
 16 17  1  0  0  0  0
 18 17  1  0  0  0  0
 18 33  1  0  0  0  0
 19 35  1  0  0  0  0
 19 18  1  0  0  0  0
 20  1  1  0  0  0  0
 22  6  1  0  0  0  0
 23  8  1  0  0  0  0
 26 11  1  0  0  0  0
 28 12  1  0  0  0  0
 29 15  1  0  0  0  0
 31 16  1  0  0  0  0
 34 18  1  0  0  0  0
 36 19  1  0  0  0  0
M  END
$$$$
