rmsd133.gzmat
 OpenBabel08211713363D

 36 37  0  0  0  0  0  0  0  0999 V2000
    0.0000    0.0000    0.0000 N   0  0  0  0  0  0  0  0  0  0  0  0
    1.3776    0.0000    0.0000 C   0  0  0  0  0  0  0  0  0  0  0  0
    1.9850    0.0000    1.0727 O   0  0  0  0  0  0  0  0  0  0  0  0
    2.0812   -0.0059   -1.2942 C   0  0  0  0  0  0  0  0  0  0  0  0
    3.2106   -0.8225   -1.4093 C   0  0  0  0  0  0  0  0  0  0  0  0
    3.9191   -0.8560   -2.6075 C   0  0  0  0  0  0  0  0  0  0  0  0
    3.4853   -0.0550   -3.6585 C   0  0  0  0  0  0  0  0  0  0  0  0
    2.3746    0.7799   -3.5543 C   0  0  0  0  0  0  0  0  0  0  0  0
    1.6669    0.8023   -2.3571 C   0  0  0  0  0  0  0  0  0  0  0  0
    4.3448   -0.0905   -5.1224 Cl  0  0  0  0  0  0  0  0  0  0  0  0
   -0.7617   -0.1860    1.2359 C   0  0  0  0  0  0  0  0  0  0  0  0
   -0.7197    1.0581    2.1522 C   0  0  0  0  0  0  0  0  0  0  0  0
    0.5448    1.0583    2.9814 N   0  0  0  0  0  0  0  0  0  0  0  0
    1.3388    0.6039    2.3579 H   0  0  0  0  0  0  0  0  0  0  0  0
    0.9482    2.4658    3.3547 C   0  0  0  0  0  0  0  0  0  0  0  0
    2.2488    2.3965    4.1750 C   0  0  0  0  0  0  0  0  0  0  0  0
    2.0381    1.6117    5.3288 O   0  0  0  0  0  0  0  0  0  0  0  0
    1.7062    0.2753    5.0210 C   0  0  0  0  0  0  0  0  0  0  0  0
    0.3786    0.2424    4.2421 C   0  0  0  0  0  0  0  0  0  0  0  0
   -0.5228   -0.0211   -0.8698 H   0  0  0  0  0  0  0  0  0  0  0  0
    3.5370   -1.4271   -0.5577 H   0  0  0  0  0  0  0  0  0  0  0  0
    4.7996   -1.4973   -2.7085 H   0  0  0  0  0  0  0  0  0  0  0  0
    2.0626    1.4098   -4.3919 H   0  0  0  0  0  0  0  0  0  0  0  0
    0.8059    1.4625   -2.2529 H   0  0  0  0  0  0  0  0  0  0  0  0
   -0.3906   -1.0911    1.7792 H   0  0  0  0  0  0  0  0  0  0  0  0
   -1.8276   -0.4055    0.9697 H   0  0  0  0  0  0  0  0  0  0  0  0
   -1.6159    1.0881    2.8115 H   0  0  0  0  0  0  0  0  0  0  0  0
   -0.7604    1.9846    1.5304 H   0  0  0  0  0  0  0  0  0  0  0  0
    1.0955    3.0742    2.4352 H   0  0  0  0  0  0  0  0  0  0  0  0
    0.1424    2.9505    3.9521 H   0  0  0  0  0  0  0  0  0  0  0  0
    3.1027    2.0101    3.5867 H   0  0  0  0  0  0  0  0  0  0  0  0
    2.5230    3.3888    4.5946 H   0  0  0  0  0  0  0  0  0  0  0  0
    1.6053   -0.1936    6.0240 H   0  0  0  0  0  0  0  0  0  0  0  0
    2.5327   -0.2197    4.4774 H   0  0  0  0  0  0  0  0  0  0  0  0
   -0.4397    0.6651    4.8697 H   0  0  0  0  0  0  0  0  0  0  0  0
    0.0969   -0.8014    3.9860 H   0  0  0  0  0  0  0  0  0  0  0  0
  1 11  1  0  0  0  0
  2  1  1  0  0  0  0
  2  3  2  0  0  0  0
  4  2  1  0  0  0  0
  5  4  1  0  0  0  0
  5 21  1  0  0  0  0
  6  5  2  0  0  0  0
  7  8  2  0  0  0  0
  7  6  1  0  0  0  0
  8  9  1  0  0  0  0
  9 24  1  0  0  0  0
  9  4  2  0  0  0  0
 10  7  1  0  0  0  0
 11 25  1  0  0  0  0
 11 12  1  0  0  0  0
 12 27  1  0  0  0  0
 12 13  1  0  0  0  0
 13 15  1  0  0  0  0
 13 19  1  0  0  0  0
 14 13  1  0  0  0  0
 15 30  1  0  0  0  0
 15 16  1  0  0  0  0
 16 32  1  0  0  0  0
 16 17  1  0  0  0  0
 18 17  1  0  0  0  0
 18 33  1  0  0  0  0
 19 35  1  0  0  0  0
 19 18  1  0  0  0  0
 20  1  1  0  0  0  0
 22  6  1  0  0  0  0
 23  8  1  0  0  0  0
 26 11  1  0  0  0  0
 28 12  1  0  0  0  0
 29 15  1  0  0  0  0
 31 16  1  0  0  0  0
 34 18  1  0  0  0  0
 36 19  1  0  0  0  0
M  END
$$$$
