36
rmsd104.gzmat
N          0.00000        0.00000        0.00000
C          1.37790        0.00000        0.00000
O          1.98390        0.00000        1.07370
C          2.08290       -0.00090       -1.29310
C          1.65040        0.78660       -2.36480
C          2.36170        0.77320       -3.55980
C          3.49550       -0.03120       -3.65310
C          3.94570       -0.81370       -2.59510
C          3.23290       -0.79040       -1.39910
Cl         4.36340       -0.04920       -5.11230
C         -0.76060       -0.16950        1.23890
C         -0.72100        1.09290        2.13040
N          0.54600        1.11150        2.95640
H          1.33470        0.62470        2.35130
C          0.96750        2.52790        3.27190
C          2.26440        2.47500        4.09880
O          2.03380        1.74890        5.28650
C          1.68790        0.40380        5.03950
C          0.36900        0.34620        4.24710
H         -0.52270       -0.03400       -0.86890
H          0.77240        1.42520       -2.26940
H          2.03520        1.38650       -4.40430
H          4.84250       -1.43320       -2.68940
H          3.57160       -1.38270       -0.54340
H         -0.38490       -1.06290        1.79840
H         -1.82580       -0.39820        0.97780
H         -1.61630        1.13530        2.79050
H         -0.76670        2.00700        1.49100
H          1.12820        3.09430        2.32790
H          0.16640        3.04730        3.84520
H          3.11220        2.04610        3.53210
H          2.55670        3.48010        4.47300
H          1.56820       -0.01320        6.06330
H          2.51360       -0.12850        4.53120
H         -0.45500        0.79420        4.84900
H          0.08980       -0.70720        4.02780
