36
rmsd105.gzmat
N          0.00000        0.00000        0.00000
C          1.37830        0.00000        0.00000
O          1.98300        0.00000        1.07450
C          2.08300        0.00930       -1.29360
C          3.27350        0.74040       -1.37030
C          3.97890        0.78940       -2.57000
C          3.47890        0.09270       -3.66460
C          2.30890       -0.66070       -3.60000
C          1.60740       -0.70210       -2.39990
Cl         4.32590        0.16030       -5.13450
C         -0.76280        0.17680        1.23620
C         -0.71230       -1.07410        2.14270
N          0.54220       -1.05820        2.98780
H          1.33490       -0.58700        2.37690
C          0.33750       -0.25550        4.25130
C          1.64350       -0.27560        5.06580
O          1.99000       -1.60950        5.36740
C          2.24430       -2.37640        4.21050
C          0.96690       -2.46110        3.35590
H         -0.52310        0.02990       -0.86900
H          3.64710        1.26930       -0.48740
H          4.90760        1.36310       -2.64070
H          1.94560       -1.21270       -4.47140
H          0.70120       -1.30330       -2.33060
H         -1.82960        0.39300        0.97080
H         -0.39620        1.08070        1.78470
H         -0.72770       -1.99540        1.51260
H         -1.61620       -1.12700        2.78920
H          0.04740        0.78670        3.99750
H         -0.49090       -0.69530        4.85370
H          2.47520        0.24090        4.55150
H          1.50620        0.17980        6.07070
H          2.52520       -3.36880        4.62530
H          3.10570       -1.96770        3.64910
H          0.15610       -2.97080        3.92530
H          1.15340       -3.05420        2.43310
