rmsd105.gzmat
 OpenBabel08211713363D

 36 37  0  0  0  0  0  0  0  0999 V2000
    0.0000    0.0000    0.0000 N   0  0  0  0  0  0  0  0  0  0  0  0
    1.3783    0.0000    0.0000 C   0  0  0  0  0  0  0  0  0  0  0  0
    1.9830    0.0000    1.0745 O   0  0  0  0  0  0  0  0  0  0  0  0
    2.0830    0.0093   -1.2936 C   0  0  0  0  0  0  0  0  0  0  0  0
    3.2735    0.7404   -1.3703 C   0  0  0  0  0  0  0  0  0  0  0  0
    3.9789    0.7894   -2.5700 C   0  0  0  0  0  0  0  0  0  0  0  0
    3.4789    0.0927   -3.6646 C   0  0  0  0  0  0  0  0  0  0  0  0
    2.3089   -0.6607   -3.6000 C   0  0  0  0  0  0  0  0  0  0  0  0
    1.6074   -0.7021   -2.3999 C   0  0  0  0  0  0  0  0  0  0  0  0
    4.3259    0.1603   -5.1345 Cl  0  0  0  0  0  0  0  0  0  0  0  0
   -0.7628    0.1768    1.2362 C   0  0  0  0  0  0  0  0  0  0  0  0
   -0.7123   -1.0741    2.1427 C   0  0  0  0  0  0  0  0  0  0  0  0
    0.5422   -1.0582    2.9878 N   0  0  0  0  0  0  0  0  0  0  0  0
    1.3349   -0.5870    2.3769 H   0  0  0  0  0  0  0  0  0  0  0  0
    0.3375   -0.2555    4.2513 C   0  0  0  0  0  0  0  0  0  0  0  0
    1.6435   -0.2756    5.0658 C   0  0  0  0  0  0  0  0  0  0  0  0
    1.9900   -1.6095    5.3674 O   0  0  0  0  0  0  0  0  0  0  0  0
    2.2443   -2.3764    4.2105 C   0  0  0  0  0  0  0  0  0  0  0  0
    0.9669   -2.4611    3.3559 C   0  0  0  0  0  0  0  0  0  0  0  0
   -0.5231    0.0299   -0.8690 H   0  0  0  0  0  0  0  0  0  0  0  0
    3.6471    1.2693   -0.4874 H   0  0  0  0  0  0  0  0  0  0  0  0
    4.9076    1.3631   -2.6407 H   0  0  0  0  0  0  0  0  0  0  0  0
    1.9456   -1.2127   -4.4714 H   0  0  0  0  0  0  0  0  0  0  0  0
    0.7012   -1.3033   -2.3306 H   0  0  0  0  0  0  0  0  0  0  0  0
   -1.8296    0.3930    0.9708 H   0  0  0  0  0  0  0  0  0  0  0  0
   -0.3962    1.0807    1.7847 H   0  0  0  0  0  0  0  0  0  0  0  0
   -0.7277   -1.9954    1.5126 H   0  0  0  0  0  0  0  0  0  0  0  0
   -1.6162   -1.1270    2.7892 H   0  0  0  0  0  0  0  0  0  0  0  0
    0.0474    0.7867    3.9975 H   0  0  0  0  0  0  0  0  0  0  0  0
   -0.4909   -0.6953    4.8537 H   0  0  0  0  0  0  0  0  0  0  0  0
    2.4752    0.2409    4.5515 H   0  0  0  0  0  0  0  0  0  0  0  0
    1.5062    0.1798    6.0707 H   0  0  0  0  0  0  0  0  0  0  0  0
    2.5252   -3.3688    4.6253 H   0  0  0  0  0  0  0  0  0  0  0  0
    3.1057   -1.9677    3.6491 H   0  0  0  0  0  0  0  0  0  0  0  0
    0.1561   -2.9708    3.9253 H   0  0  0  0  0  0  0  0  0  0  0  0
    1.1534   -3.0542    2.4331 H   0  0  0  0  0  0  0  0  0  0  0  0
  1 11  1  0  0  0  0
  2  1  1  0  0  0  0
  2  3  2  0  0  0  0
  4  2  1  0  0  0  0
  5  4  1  0  0  0  0
  5 21  1  0  0  0  0
  6  5  2  0  0  0  0
  7  8  2  0  0  0  0
  7  6  1  0  0  0  0
  8  9  1  0  0  0  0
  9 24  1  0  0  0  0
  9  4  2  0  0  0  0
 10  7  1  0  0  0  0
 11 26  1  0  0  0  0
 11 12  1  0  0  0  0
 12 28  1  0  0  0  0
 12 13  1  0  0  0  0
 13 19  1  0  0  0  0
 13 15  1  0  0  0  0
 14 13  1  0  0  0  0
 15 30  1  0  0  0  0
 15 16  1  0  0  0  0
 16 17  1  0  0  0  0
 16 32  1  0  0  0  0
 18 33  1  0  0  0  0
 18 17  1  0  0  0  0
 19 35  1  0  0  0  0
 19 18  1  0  0  0  0
 20  1  1  0  0  0  0
 22  6  1  0  0  0  0
 23  8  1  0  0  0  0
 25 11  1  0  0  0  0
 27 12  1  0  0  0  0
 29 15  1  0  0  0  0
 31 16  1  0  0  0  0
 34 18  1  0  0  0  0
 36 19  1  0  0  0  0
M  END
$$$$
