rmsd245.gzmat
 OpenBabel08211713363D

 36 37  0  0  0  0  0  0  0  0999 V2000
    0.0000    0.0000    0.0000 N   0  0  0  0  0  0  0  0  0  0  0  0
    1.3786    0.0000    0.0000 C   0  0  0  0  0  0  0  0  0  0  0  0
    1.9831    0.0000    1.0741 O   0  0  0  0  0  0  0  0  0  0  0  0
    2.0829    0.0156   -1.2939 C   0  0  0  0  0  0  0  0  0  0  0  0
    1.6359   -0.7308   -2.3886 C   0  0  0  0  0  0  0  0  0  0  0  0
    2.3411   -0.6870   -3.5864 C   0  0  0  0  0  0  0  0  0  0  0  0
    3.4847    0.1053   -3.6606 C   0  0  0  0  0  0  0  0  0  0  0  0
    3.9513    0.8454   -2.5795 C   0  0  0  0  0  0  0  0  0  0  0  0
    3.2443    0.7908   -1.3813 C   0  0  0  0  0  0  0  0  0  0  0  0
    4.3423    0.1623   -5.1251 Cl  0  0  0  0  0  0  0  0  0  0  0  0
   -0.7586    0.1969    1.2360 C   0  0  0  0  0  0  0  0  0  0  0  0
   -0.7121   -1.0403    2.1609 C   0  0  0  0  0  0  0  0  0  0  0  0
    0.5383   -1.0152    3.0119 N   0  0  0  0  0  0  0  0  0  0  0  0
    1.3463   -0.6037    2.3818 H   0  0  0  0  0  0  0  0  0  0  0  0
    0.3582   -0.1296    4.2233 C   0  0  0  0  0  0  0  0  0  0  0  0
    1.6578   -0.1554    5.0476 C   0  0  0  0  0  0  0  0  0  0  0  0
    1.9425   -1.4818    5.4349 O   0  0  0  0  0  0  0  0  0  0  0  0
    2.1748   -2.3297    4.3314 C   0  0  0  0  0  0  0  0  0  0  0  0
    0.9059   -2.4092    3.4644 C   0  0  0  0  0  0  0  0  0  0  0  0
   -0.5229    0.0273   -0.8691 H   0  0  0  0  0  0  0  0  0  0  0  0
    0.7498   -1.3607   -2.3113 H   0  0  0  0  0  0  0  0  0  0  0  0
    2.0008   -1.2672   -4.4485 H   0  0  0  0  0  0  0  0  0  0  0  0
    4.8551    1.4571   -2.6573 H   0  0  0  0  0  0  0  0  0  0  0  0
    3.5948    1.3495   -0.5077 H   0  0  0  0  0  0  0  0  0  0  0  0
   -1.8251    0.4163    0.9730 H   0  0  0  0  0  0  0  0  0  0  0  0
   -0.3850    1.1066    1.7701 H   0  0  0  0  0  0  0  0  0  0  0  0
   -0.7232   -1.9713    1.5442 H   0  0  0  0  0  0  0  0  0  0  0  0
   -1.6184   -1.0835    2.8052 H   0  0  0  0  0  0  0  0  0  0  0  0
    0.1176    0.9070    3.9024 H   0  0  0  0  0  0  0  0  0  0  0  0
   -0.4932   -0.4940    4.8431 H   0  0  0  0  0  0  0  0  0  0  0  0
    2.5143    0.2894    4.5071 H   0  0  0  0  0  0  0  0  0  0  0  0
    1.5363    0.3684    6.0209 H   0  0  0  0  0  0  0  0  0  0  0  0
    2.4040   -3.3057    4.8126 H   0  0  0  0  0  0  0  0  0  0  0  0
    3.0612   -1.9975    3.7592 H   0  0  0  0  0  0  0  0  0  0  0  0
    0.0690   -2.8523    4.0520 H   0  0  0  0  0  0  0  0  0  0  0  0
    1.0769   -3.0614    2.5793 H   0  0  0  0  0  0  0  0  0  0  0  0
  1 11  1  0  0  0  0
  2  1  1  0  0  0  0
  2  3  2  0  0  0  0
  4  2  1  0  0  0  0
  5 21  1  0  0  0  0
  5  4  2  0  0  0  0
  6  5  1  0  0  0  0
  7  6  2  0  0  0  0
  7  8  1  0  0  0  0
  8  9  2  0  0  0  0
  9  4  1  0  0  0  0
  9 24  1  0  0  0  0
 10  7  1  0  0  0  0
 11 26  1  0  0  0  0
 11 12  1  0  0  0  0
 12 28  1  0  0  0  0
 12 13  1  0  0  0  0
 13 19  1  0  0  0  0
 13 15  1  0  0  0  0
 14 13  1  0  0  0  0
 15 30  1  0  0  0  0
 15 16  1  0  0  0  0
 16 17  1  0  0  0  0
 16 32  1  0  0  0  0
 18 33  1  0  0  0  0
 18 17  1  0  0  0  0
 19 35  1  0  0  0  0
 19 18  1  0  0  0  0
 20  1  1  0  0  0  0
 22  6  1  0  0  0  0
 23  8  1  0  0  0  0
 25 11  1  0  0  0  0
 27 12  1  0  0  0  0
 29 15  1  0  0  0  0
 31 16  1  0  0  0  0
 34 18  1  0  0  0  0
 36 19  1  0  0  0  0
M  END
$$$$
