36
rmsd108.gzmat
N          0.00000        0.00000        0.00000
C          1.37880        0.00000        0.00000
O          1.98300        0.00000        1.07360
C          2.07270       -0.02740       -1.29930
C          3.16380       -0.89280       -1.42700
C          3.83730       -0.97910       -2.64260
C          3.41140       -0.17710       -3.69620
C          2.34850        0.71570       -3.57570
C          1.67290        0.78810       -2.36210
Cl         4.21840       -0.28620       -5.18620
C         -0.75740       -0.22600        1.23150
C         -0.75320        1.00430        2.16630
N          0.51480        1.03620        2.98980
H          1.31930        0.61290        2.36120
C          0.87410        2.45300        3.37420
C          2.17440        2.42080        4.19740
O          1.99280        1.61500        5.34100
C          1.70890        0.27140        5.01680
C          0.37920        0.20390        4.24400
H         -0.52190       -0.01610       -0.87020
H          3.48650       -1.49660       -0.57340
H          4.68360       -1.66320       -2.75620
H          2.04910        1.35090       -4.41410
H          0.84820        1.49130       -2.24570
H         -0.36030       -1.12880        1.76100
H         -1.81600       -0.47170        0.95970
H         -1.64700        0.99260        2.82980
H         -0.82900        1.93810        1.55900
H          1.00620        3.07100        2.45880
H          0.05150        2.90910        3.97100
H          3.04230        2.07300        3.60590
H          2.41010        3.41710        4.63000
H          1.63150       -0.21480        6.01360
H          2.54920       -0.18650        4.46240
H         -0.44820        0.59720        4.87880
H          0.12710       -0.84540        3.98020
