rmsd121.gzmat
 OpenBabel08211713363D

 36 37  0  0  0  0  0  0  0  0999 V2000
    0.0000    0.0000    0.0000 N   0  0  0  0  0  0  0  0  0  0  0  0
    1.3781    0.0000    0.0000 C   0  0  0  0  0  0  0  0  0  0  0  0
    1.9833    0.0000    1.0745 O   0  0  0  0  0  0  0  0  0  0  0  0
    2.0831   -0.0077   -1.2930 C   0  0  0  0  0  0  0  0  0  0  0  0
    1.6356    0.7509   -2.3795 C   0  0  0  0  0  0  0  0  0  0  0  0
    2.3390    0.7170   -3.5786 C   0  0  0  0  0  0  0  0  0  0  0  0
    3.4815   -0.0761   -3.6610 C   0  0  0  0  0  0  0  0  0  0  0  0
    3.9514   -0.8230   -2.5862 C   0  0  0  0  0  0  0  0  0  0  0  0
    3.2452   -0.7810   -1.3870 C   0  0  0  0  0  0  0  0  0  0  0  0
    4.3348   -0.1265   -5.1281 Cl  0  0  0  0  0  0  0  0  0  0  0  0
   -0.7617   -0.1862    1.2358 C   0  0  0  0  0  0  0  0  0  0  0  0
   -0.7306    1.0646    2.1434 C   0  0  0  0  0  0  0  0  0  0  0  0
    0.5361    1.0821    2.9689 N   0  0  0  0  0  0  0  0  0  0  0  0
    1.3323    0.6267    2.3493 H   0  0  0  0  0  0  0  0  0  0  0  0
    0.9300    2.4960    3.3286 C   0  0  0  0  0  0  0  0  0  0  0  0
    2.2316    2.4445    4.1489 C   0  0  0  0  0  0  0  0  0  0  0  0
    2.0296    1.6670    5.3090 O   0  0  0  0  0  0  0  0  0  0  0  0
    1.7063    0.3256    5.0136 C   0  0  0  0  0  0  0  0  0  0  0  0
    0.3774    0.2769    4.2378 C   0  0  0  0  0  0  0  0  0  0  0  0
   -0.5233   -0.0209   -0.8689 H   0  0  0  0  0  0  0  0  0  0  0  0
    0.7514    1.3826   -2.2932 H   0  0  0  0  0  0  0  0  0  0  0  0
    1.9982    1.3048   -4.4355 H   0  0  0  0  0  0  0  0  0  0  0  0
    4.8580   -1.4296   -2.6702 H   0  0  0  0  0  0  0  0  0  0  0  0
    3.5973   -1.3466   -0.5183 H   0  0  0  0  0  0  0  0  0  0  0  0
   -0.3834   -1.0850    1.7851 H   0  0  0  0  0  0  0  0  0  0  0  0
   -1.8252   -0.4173    0.9700 H   0  0  0  0  0  0  0  0  0  0  0  0
   -1.6254    1.0910    2.8049 H   0  0  0  0  0  0  0  0  0  0  0  0
   -0.7822    1.9863    1.5155 H   0  0  0  0  0  0  0  0  0  0  0  0
    1.0736    3.0972    2.4039 H   0  0  0  0  0  0  0  0  0  0  0  0
    0.1204    2.9796    3.9215 H   0  0  0  0  0  0  0  0  0  0  0  0
    3.0887    2.0609    3.5631 H   0  0  0  0  0  0  0  0  0  0  0  0
    2.4968    3.4427    4.5610 H   0  0  0  0  0  0  0  0  0  0  0  0
    1.6104   -0.1350    6.0208 H   0  0  0  0  0  0  0  0  0  0  0  0
    2.5346   -0.1699    4.4726 H   0  0  0  0  0  0  0  0  0  0  0  0
   -0.4422    0.7017    4.8623 H   0  0  0  0  0  0  0  0  0  0  0  0
    0.1014   -0.7712    3.9926 H   0  0  0  0  0  0  0  0  0  0  0  0
  1  2  1  0  0  0  0
  1 11  1  0  0  0  0
  2  3  2  0  0  0  0
  4  2  1  0  0  0  0
  5 21  1  0  0  0  0
  5  4  2  0  0  0  0
  6  5  1  0  0  0  0
  7  6  2  0  0  0  0
  7  8  1  0  0  0  0
  8  9  2  0  0  0  0
  9  4  1  0  0  0  0
  9 24  1  0  0  0  0
 10  7  1  0  0  0  0
 11 25  1  0  0  0  0
 11 12  1  0  0  0  0
 12 27  1  0  0  0  0
 12 13  1  0  0  0  0
 13 15  1  0  0  0  0
 13 19  1  0  0  0  0
 14 13  1  0  0  0  0
 15 30  1  0  0  0  0
 15 16  1  0  0  0  0
 16 32  1  0  0  0  0
 16 17  1  0  0  0  0
 18 17  1  0  0  0  0
 18 33  1  0  0  0  0
 19 35  1  0  0  0  0
 19 18  1  0  0  0  0
 20  1  1  0  0  0  0
 22  6  1  0  0  0  0
 23  8  1  0  0  0  0
 26 11  1  0  0  0  0
 28 12  1  0  0  0  0
 29 15  1  0  0  0  0
 31 16  1  0  0  0  0
 34 18  1  0  0  0  0
 36 19  1  0  0  0  0
M  END
$$$$
