
     RDKit          3D

 43 45  0  0  0  0  0  0  0  0999 V2000
   -0.0248   -0.0345   -0.0008 C   0  0  1  0  0  0  0  0  0  0  0  0
    1.0712   -0.1195   -0.0095 H   0  0  0  0  0  0  0  0  0  0  0  0
   -0.4978    0.0155   -1.4436 C   0  0  0  0  0  0  0  0  0  0  0  0
   -1.5149    0.5442   -1.8188 O   0  0  0  0  0  0  0  0  0  0  0  0
    0.3290   -0.6368   -2.2852 O   0  0  0  0  0  0  0  0  0  0  0  0
   -0.4120    1.2586    0.7382 C   0  0  0  0  0  0  0  0  0  0  0  0
    0.3276    2.4618    0.2023 C   0  0  0  0  0  0  0  0  0  0  0  0
   -0.2670    3.3237   -0.7306 C   0  0  0  0  0  0  0  0  0  0  0  0
    0.4414    4.4107   -1.2499 C   0  0  0  0  0  0  0  0  0  0  0  0
    1.7574    4.6509   -0.8463 C   0  0  0  0  0  0  0  0  0  0  0  0
    2.3617    3.7967    0.0810 C   0  0  0  0  0  0  0  0  0  0  0  0
    1.6508    2.7123    0.5987 C   0  0  0  0  0  0  0  0  0  0  0  0
   -0.5535   -1.3273    0.6945 C   0  0  1  0  0  0  0  0  0  0  0  0
   -0.4199   -1.1652    1.7757 H   0  0  0  0  0  0  0  0  0  0  0  0
   -2.0400   -1.5089    0.4411 C   0  0  0  0  0  0  0  0  0  0  0  0
   -2.5134   -2.2450   -0.3878 O   0  0  0  0  0  0  0  0  0  0  0  0
   -2.7950   -0.7325    1.2431 O   0  0  0  0  0  0  0  0  0  0  0  0
    0.2176   -2.5964    0.2766 C   0  0  0  0  0  0  0  0  0  0  0  0
    1.6783   -2.5429    0.6553 C   0  0  0  0  0  0  0  0  0  0  0  0
    2.0554   -2.7817    1.9987 C   0  0  0  0  0  0  0  0  0  0  0  0
    3.3953   -2.6816    2.3180 C   0  0  0  0  0  0  0  0  0  0  0  0
    4.0010   -2.8458    3.5334 O   0  0  0  0  0  0  0  0  0  0  0  0
    5.4038   -2.7886    3.2873 C   0  0  0  0  0  0  0  0  0  0  0  0
    5.5912   -2.3051    1.9609 O   0  0  0  0  0  0  0  0  0  0  0  0
    4.3616   -2.3543    1.3619 C   0  0  0  0  0  0  0  0  0  0  0  0
    4.0209   -2.1141    0.0448 C   0  0  0  0  0  0  0  0  0  0  0  0
    2.6559   -2.2150   -0.2926 C   0  0  0  0  0  0  0  0  0  0  0  0
   -0.0821   -0.5980   -3.1669 H   0  0  0  0  0  0  0  0  0  0  0  0
   -0.1711    1.1203    1.8039 H   0  0  0  0  0  0  0  0  0  0  0  0
   -1.4971    1.4071    0.6656 H   0  0  0  0  0  0  0  0  0  0  0  0
   -1.2896    3.1268   -1.0588 H   0  0  0  0  0  0  0  0  0  0  0  0
   -0.0382    5.0735   -1.9745 H   0  0  0  0  0  0  0  0  0  0  0  0
    2.3106    5.5017   -1.2515 H   0  0  0  0  0  0  0  0  0  0  0  0
    3.3897    3.9779    0.4047 H   0  0  0  0  0  0  0  0  0  0  0  0
    2.1282    2.0486    1.3259 H   0  0  0  0  0  0  0  0  0  0  0  0
   -3.7194   -0.8592    0.9662 H   0  0  0  0  0  0  0  0  0  0  0  0
    0.1026   -2.7451   -0.8048 H   0  0  0  0  0  0  0  0  0  0  0  0
   -0.2637   -3.4598    0.7613 H   0  0  0  0  0  0  0  0  0  0  0  0
    1.3179   -3.0421    2.7603 H   0  0  0  0  0  0  0  0  0  0  0  0
    5.8389   -3.8036    3.3795 H   0  0  0  0  0  0  0  0  0  0  0  0
    5.8790   -2.1008    4.0050 H   0  0  0  0  0  0  0  0  0  0  0  0
    4.7774   -1.8560   -0.6972 H   0  0  0  0  0  0  0  0  0  0  0  0
    2.3463   -2.0206   -1.3207 H   0  0  0  0  0  0  0  0  0  0  0  0
  1  2  1  6
  1  3  1  0
  1  6  1  0
  1 13  1  0
  3  4  2  0
  3  5  1  0
  5 28  1  0
  6  7  1  0
  6 29  1  0
  6 30  1  0
  7  8  2  0
  7 12  1  0
  8  9  1  0
  8 31  1  0
  9 10  2  0
  9 32  1  0
 10 11  1  0
 10 33  1  0
 11 12  2  0
 11 34  1  0
 12 35  1  0
 13 14  1  1
 13 15  1  0
 13 18  1  0
 15 16  2  0
 15 17  1  0
 17 36  1  0
 18 19  1  0
 18 37  1  0
 18 38  1  0
 19 20  2  0
 19 27  1  0
 20 21  1  0
 20 39  1  0
 21 22  1  0
 21 25  2  0
 22 23  1  0
 23 24  1  0
 23 40  1  0
 23 41  1  0
 24 25  1  0
 25 26  1  0
 26 27  2  0
 26 42  1  0
 27 43  1  0
M  END

