43

C         -0.06910       -0.05250       -0.03250
H          1.02910       -0.10000       -0.03060
C         -0.53130       -0.03990       -1.47970
O         -1.57330        0.42440       -1.87080
O          0.34360       -0.64330       -2.31100
C         -0.51170        1.23660        0.68380
C          0.15860        2.46450        0.11400
C         -0.49170        3.27620       -0.82680
C          0.15280        4.38760       -1.37680
C          1.45970        4.70310       -0.99640
C          2.11900        3.90020       -0.06090
C          1.47170        2.79120        0.48750
C         -0.56570       -1.34110        0.69120
H         -0.36660       -1.17760        1.76080
C         -2.07670       -1.44820        0.57870
O         -2.86070       -0.89860        1.31130
O         -2.46480       -2.21050       -0.46280
C          0.17230       -2.62300        0.24620
C          1.64170       -2.59880        0.59990
C          2.59910       -2.20640       -0.36520
C          3.92400       -2.16780        0.02720
O          5.02130       -1.80490       -0.70480
C          6.15350       -2.07500        0.11690
O          5.67960       -2.34270        1.43380
C          4.32410       -2.49390        1.32530
C          3.40870       -2.87720        2.28790
C          2.05640       -2.92520        1.89800
H         -0.05110       -0.61620       -3.20050
H         -0.25300        1.13220        1.74890
H         -1.60440        1.32800        0.62470
H         -1.50760        3.02140       -1.13540
H         -0.37020        5.01070       -2.10670
H          1.96280        5.57320       -1.42530
H          3.13990        4.14110        0.24580
H          1.99120        2.16920        1.22260
H         -3.43500       -2.15430       -0.50570
H          0.03970       -2.76780       -0.83410
H         -0.30980       -3.48110        0.73940
H          2.29980       -1.93160       -1.37650
H          6.81950       -1.19720        0.13250
H          6.69310       -2.96120       -0.27220
H          3.72540       -3.13330        3.29960
H          1.30820       -3.23440        2.63250
