43

C         -0.08750       -0.00830       -0.00110
H          1.00920       -0.06620       -0.02620
C         -0.51840       -0.00460       -1.45730
O          0.11390       -0.48300       -2.36720
O         -1.73200        0.55240       -1.63890
C         -0.48770        1.26800        0.76100
C          0.14790        2.50630        0.17270
C         -0.59870        3.41210       -0.59340
C          0.00560        4.53700       -1.16160
C          1.36980        4.77140       -0.97410
C          2.12570        3.87440       -0.21290
C          1.51790        2.75320        0.35430
C         -0.56260       -1.32300        0.68910
H         -0.32990       -1.20320        1.75900
C         -2.06620       -1.49480        0.56570
O         -2.62180       -2.15540       -0.27590
O         -2.74030       -0.80400        1.50810
C          0.16020       -2.57530        0.14870
C          1.65100       -2.54220        0.38700
C          2.15990       -2.90820        1.65590
C          3.52550       -2.82770        1.84790
O          4.25090       -3.10390        2.97530
C          5.62090       -3.01810        2.59230
O          5.67450       -2.39690        1.31230
C          4.39030       -2.39930        0.83680
C          3.91910       -2.03300       -0.40950
C          2.52750       -2.11240       -0.61840
H         -1.95300        0.44570       -2.58030
H         -0.15920        1.14330        1.80560
H         -1.58010        1.36950        0.78170
H         -1.66330        3.22500       -0.75010
H         -0.59290        5.23360       -1.75400
H          1.84330        5.65030       -1.41810
H          3.19310        4.05070       -0.05860
H          2.11560        2.05750        0.95060
H         -3.68740       -0.93360        1.32550
H         -0.05760       -2.67810       -0.92250
H         -0.27760       -3.45710        0.64150
H          1.50220       -3.24960        2.45760
H          6.05430       -4.03640        2.53150
H          6.17390       -2.40910        3.32520
H          4.59720       -1.69600       -1.19440
H          2.11260       -1.81610       -1.58370
