rmsd90.gzmat
 OpenBabel08211713363D

 43 45  0  0  1  0  0  0  0  0999 V2000
    0.0000    0.0000    0.0000 C   0  0  1  0  0  0  0  0  0  0  0  0
    1.1294    0.0000    0.0000 H   0  0  0  0  0  0  0  0  0  0  0  0
   -0.4782    0.0000   -1.4317 C   0  0  0  0  0  0  0  0  0  0  0  0
   -1.4710    0.4880   -1.8982 O   0  0  0  0  0  0  0  0  0  0  0  0
    0.4141   -0.6548   -2.2208 O   0  0  0  0  0  0  0  0  0  0  0  0
   -0.4856    1.2858    0.6895 C   0  0  0  0  0  0  0  0  0  0  0  0
    0.1957    2.4739    0.0818 C   0  0  0  0  0  0  0  0  0  0  0  0
    1.5090    2.7851    0.4405 C   0  0  0  0  0  0  0  0  0  0  0  0
    2.1521    3.8692   -0.1510 C   0  0  0  0  0  0  0  0  0  0  0  0
    1.4851    4.6483   -1.0952 C   0  0  0  0  0  0  0  0  0  0  0  0
    0.1718    4.3424   -1.4479 C   0  0  0  0  0  0  0  0  0  0  0  0
   -0.4721    3.2542   -0.8632 C   0  0  0  0  0  0  0  0  0  0  0  0
   -0.4703   -1.2606    0.7476 C   0  0  1  0  0  0  0  0  0  0  0  0
   -0.2827   -1.1033    1.8471 H   0  0  0  0  0  0  0  0  0  0  0  0
   -1.9466   -1.5025    0.5506 C   0  0  0  0  0  0  0  0  0  0  0  0
   -2.4869   -2.3205   -0.1422 O   0  0  0  0  0  0  0  0  0  0  0  0
   -2.6675   -0.6606    1.3351 O   0  0  0  0  0  0  0  0  0  0  0  0
    0.3045   -2.5100    0.2883 C   0  0  0  0  0  0  0  0  0  0  0  0
    1.7050   -2.4670    0.8182 C   0  0  0  0  0  0  0  0  0  0  0  0
    2.7383   -2.0090   -0.0265 C   0  0  0  0  0  0  0  0  0  0  0  0
    3.9951   -1.9733    0.5236 C   0  0  0  0  0  0  0  0  0  0  0  0
    5.1624   -1.5734   -0.0759 O   0  0  0  0  0  0  0  0  0  0  0  0
    6.1860   -1.7422    0.9310 C   0  0  0  0  0  0  0  0  0  0  0  0
    5.5825   -2.2370    2.1476 O   0  0  0  0  0  0  0  0  0  0  0  0
    4.2472   -2.3724    1.8580 C   0  0  0  0  0  0  0  0  0  0  0  0
    3.2481   -2.8216    2.6858 C   0  0  0  0  0  0  0  0  0  0  0  0
    1.9560   -2.8603    2.1305 C   0  0  0  0  0  0  0  0  0  0  0  0
    0.1562   -0.6797   -3.1757 H   0  0  0  0  0  0  0  0  0  0  0  0
   -0.2840    1.2355    1.7797 H   0  0  0  0  0  0  0  0  0  0  0  0
   -1.5933    1.3715    0.6113 H   0  0  0  0  0  0  0  0  0  0  0  0
    2.0316    2.1794    1.1774 H   0  0  0  0  0  0  0  0  0  0  0  0
    3.1780    4.1076    0.1218 H   0  0  0  0  0  0  0  0  0  0  0  0
    1.9908    5.4926   -1.5579 H   0  0  0  0  0  0  0  0  0  0  0  0
   -0.3509    4.9498   -2.1844 H   0  0  0  0  0  0  0  0  0  0  0  0
   -1.4919    2.9997   -1.1550 H   0  0  0  0  0  0  0  0  0  0  0  0
   -3.6461   -0.7485    1.2177 H   0  0  0  0  0  0  0  0  0  0  0  0
    0.2932   -2.5842   -0.8228 H   0  0  0  0  0  0  0  0  0  0  0  0
   -0.2148   -3.4334    0.6250 H   0  0  0  0  0  0  0  0  0  0  0  0
    2.5432   -1.7061   -1.0538 H   0  0  0  0  0  0  0  0  0  0  0  0
    6.6114   -0.7524    1.1459 H   0  0  0  0  0  0  0  0  0  0  0  0
    6.8888   -2.5062    0.5700 H   0  0  0  0  0  0  0  0  0  0  0  0
    3.4373   -3.1313    3.7081 H   0  0  0  0  0  0  0  0  0  0  0  0
    1.1355   -3.2126    2.7545 H   0  0  0  0  0  0  0  0  0  0  0  0
  1  2  1  6  0  0  0
  1  6  1  0  0  0  0
  1 13  1  0  0  0  0
  3  1  1  0  0  0  0
  4  3  2  0  0  0  0
  5  3  1  0  0  0  0
  6 29  1  0  0  0  0
  7  8  1  0  0  0  0
  7  6  1  0  0  0  0
  8 31  1  0  0  0  0
  9 32  1  0  0  0  0
  9  8  2  0  0  0  0
 10  9  1  0  0  0  0
 11 10  2  0  0  0  0
 11 12  1  0  0  0  0
 12  7  2  0  0  0  0
 13 14  1  1  0  0  0
 15 13  1  0  0  0  0
 15 17  1  0  0  0  0
 16 15  2  0  0  0  0
 18 38  1  0  0  0  0
 18 13  1  0  0  0  0
 18 19  1  0  0  0  0
 19 27  2  0  0  0  0
 20 21  2  0  0  0  0
 20 19  1  0  0  0  0
 21 25  1  0  0  0  0
 22 21  1  0  0  0  0
 22 23  1  0  0  0  0
 23 40  1  0  0  0  0
 23 24  1  0  0  0  0
 25 24  1  0  0  0  0
 25 26  2  0  0  0  0
 26 42  1  0  0  0  0
 27 26  1  0  0  0  0
 27 43  1  0  0  0  0
 28  5  1  0  0  0  0
 30  6  1  0  0  0  0
 33 10  1  0  0  0  0
 34 11  1  0  0  0  0
 35 12  1  0  0  0  0
 36 17  1  0  0  0  0
 37 18  1  0  0  0  0
 39 20  1  0  0  0  0
 41 23  1  0  0  0  0
M  END
$$$$
