43

C          0.12740        0.05420        0.03380
H          1.21490        0.00380       -0.12890
C         -0.53750        0.08670       -1.33350
O         -1.59260        0.61910       -1.57400
O          0.16910       -0.58100       -2.26340
C         -0.20060        1.33490        0.82380
C          0.43270        2.56720        0.22060
C         -0.27510        3.38550       -0.67250
C          0.33320        4.50290       -1.25040
C          1.65980        4.81940       -0.94630
C          2.37550        4.01130       -0.05820
C          1.76430        2.89600        0.51850
C         -0.25880       -1.25010        0.79920
H          0.07800       -1.10740        1.83730
C         -1.76950       -1.42180        0.82810
O         -2.40700       -2.04620        0.01680
O         -2.34150       -0.76490        1.85350
C          0.41330       -2.51110        0.22440
C          0.27530       -3.70930        1.13550
C          1.17740       -3.86490        2.21520
C          1.00050       -4.95110        3.04990
O          1.72010       -5.30740        4.15820
C          1.22580       -6.58360        4.55600
O          0.02220       -6.82660        3.83470
C         -0.03000       -5.87420        2.85250
C         -0.92610       -5.74370        1.80890
C         -0.75450       -4.63990        0.95000
H         -0.35350       -0.55610       -3.08430
H          0.16380        1.19930        1.85390
H         -1.29090        1.45180        0.87910
H         -1.30670        3.13050       -0.92200
H         -0.23400        5.13060       -1.94230
H          2.13420        5.69440       -1.39730
H          3.41190        4.25330        0.19010
H          2.32770        2.27180        1.21880
H         -3.30330       -0.88410        1.76130
H          1.47930       -2.28510        0.06660
H         -0.01890       -2.72810       -0.76100
H          1.99160       -3.15760        2.38460
H          1.01720       -6.58020        5.63800
H          1.97250       -7.36470        4.30970
H         -1.73040       -6.46530        1.66060
H         -1.45010       -4.49450        0.12230
