
     RDKit          3D

 43 45  0  0  0  0  0  0  0  0999 V2000
    0.0955    0.0412    0.0069 C   0  0  1  0  0  0  0  0  0  0  0  0
    1.1932   -0.0212    0.0074 H   0  0  0  0  0  0  0  0  0  0  0  0
   -0.3640    0.1108   -1.4395 C   0  0  0  0  0  0  0  0  0  0  0  0
   -1.4017    0.5982   -1.8144 O   0  0  0  0  0  0  0  0  0  0  0  0
    0.5071   -0.4683   -2.2913 O   0  0  0  0  0  0  0  0  0  0  0  0
   -0.3339    1.3085    0.7682 C   0  0  0  0  0  0  0  0  0  0  0  0
    0.3468    2.5494    0.2405 C   0  0  0  0  0  0  0  0  0  0  0  0
   -0.3002    3.4030   -0.6648 C   0  0  0  0  0  0  0  0  0  0  0  0
    0.3533    4.5273   -1.1767 C   0  0  0  0  0  0  0  0  0  0  0  0
    1.6659    4.8141   -0.7932 C   0  0  0  0  0  0  0  0  0  0  0  0
    2.3220    3.9691    0.1070 C   0  0  0  0  0  0  0  0  0  0  0  0
    1.6657    2.8475    0.6174 C   0  0  0  0  0  0  0  0  0  0  0  0
   -0.4169   -1.2666    0.6834 C   0  0  1  0  0  0  0  0  0  0  0  0
   -0.2280   -1.1394    1.7599 H   0  0  0  0  0  0  0  0  0  0  0  0
   -1.9273   -1.3604    0.5543 C   0  0  0  0  0  0  0  0  0  0  0  0
   -2.7143   -0.8302    1.2980 O   0  0  0  0  0  0  0  0  0  0  0  0
   -2.3106   -2.0852   -0.5153 O   0  0  0  0  0  0  0  0  0  0  0  0
    0.3203   -2.5345    0.1991 C   0  0  0  0  0  0  0  0  0  0  0  0
    1.7838   -2.5283    0.5738 C   0  0  0  0  0  0  0  0  0  0  0  0
    2.1590   -2.8503    1.9003 C   0  0  0  0  0  0  0  0  0  0  0  0
    3.5002   -2.7835    2.2230 C   0  0  0  0  0  0  0  0  0  0  0  0
    4.1104   -3.0726    3.4123 O   0  0  0  0  0  0  0  0  0  0  0  0
    5.4780   -2.7034    3.2549 C   0  0  0  0  0  0  0  0  0  0  0  0
    5.7062   -2.4692    1.8687 O   0  0  0  0  0  0  0  0  0  0  0  0
    4.4698   -2.4168    1.2846 C   0  0  0  0  0  0  0  0  0  0  0  0
    4.1313   -2.1021   -0.0173 C   0  0  0  0  0  0  0  0  0  0  0  0
    2.7643   -2.1614   -0.3564 C   0  0  0  0  0  0  0  0  0  0  0  0
    0.1124   -0.4056   -3.1790 H   0  0  0  0  0  0  0  0  0  0  0  0
   -0.0744    1.1646    1.8286 H   0  0  0  0  0  0  0  0  0  0  0  0
   -1.4258    1.4117    0.7144 H   0  0  0  0  0  0  0  0  0  0  0  0
   -1.3206    3.1710   -0.9763 H   0  0  0  0  0  0  0  0  0  0  0  0
   -0.1671    5.1831   -1.8792 H   0  0  0  0  0  0  0  0  0  0  0  0
    2.1760    5.6942   -1.1923 H   0  0  0  0  0  0  0  0  0  0  0  0
    3.3475    4.1872    0.4157 H   0  0  0  0  0  0  0  0  0  0  0  0
    2.1829    2.1921    1.3248 H   0  0  0  0  0  0  0  0  0  0  0  0
   -3.2800   -2.0211   -0.5650 H   0  0  0  0  0  0  0  0  0  0  0  0
    0.2047   -2.6349   -0.8879 H   0  0  0  0  0  0  0  0  0  0  0  0
   -0.1728   -3.4098    0.6503 H   0  0  0  0  0  0  0  0  0  0  0  0
    1.4195   -3.1490    2.6457 H   0  0  0  0  0  0  0  0  0  0  0  0
    6.1266   -3.5218    3.6060 H   0  0  0  0  0  0  0  0  0  0  0  0
    5.6810   -1.7769    3.8282 H   0  0  0  0  0  0  0  0  0  0  0  0
    4.8914   -1.8215   -0.7473 H   0  0  0  0  0  0  0  0  0  0  0  0
    2.4559   -1.8996   -1.3697 H   0  0  0  0  0  0  0  0  0  0  0  0
  1  2  1  6
  1  3  1  0
  1  6  1  0
  1 13  1  0
  3  4  2  0
  3  5  1  0
  5 28  1  0
  6  7  1  0
  6 29  1  0
  6 30  1  0
  7  8  2  0
  7 12  1  0
  8  9  1  0
  8 31  1  0
  9 10  2  0
  9 32  1  0
 10 11  1  0
 10 33  1  0
 11 12  2  0
 11 34  1  0
 12 35  1  0
 13 14  1  1
 13 15  1  0
 13 18  1  0
 15 16  2  0
 15 17  1  0
 17 36  1  0
 18 19  1  0
 18 37  1  0
 18 38  1  0
 19 20  2  0
 19 27  1  0
 20 21  1  0
 20 39  1  0
 21 22  1  0
 21 25  2  0
 22 23  1  0
 23 24  1  0
 23 40  1  0
 23 41  1  0
 24 25  1  0
 25 26  1  0
 26 27  2  0
 26 42  1  0
 27 43  1  0
M  END

