43
rmsd117.gzmat
C          0.00000        0.00000        0.00000
H          1.12650        0.00000        0.00000
C         -0.47680        0.00000       -1.43260
O         -1.43590        0.53810       -1.91390
O          0.37560       -0.72720       -2.20210
C         -0.49230        1.28110        0.69530
C          0.25750        2.46940        0.17530
C         -0.26710        3.21720       -0.88060
C          0.44140        4.30530       -1.38380
C          1.67540        4.65030       -0.83450
C          2.19570        3.90940        0.22560
C          1.48880        2.82080        0.73180
C         -0.47770       -1.26430        0.73640
H         -0.14610       -1.18980        1.81040
C         -1.98400       -1.37140        0.71180
O         -2.68610       -2.03100       -0.00450
O         -2.51790       -0.58840        1.68600
C          0.13050       -2.53360        0.11420
C         -0.04780       -3.70000        1.03670
C          0.87240       -3.87030        2.09360
C          0.64730       -4.94180        2.92010
O          1.37990       -5.32290        4.01650
C          0.71910       -6.50520        4.52260
O         -0.42240       -6.80860        3.69050
C         -0.43580       -5.83170        2.72570
C         -1.33190       -5.67620        1.69710
C         -1.11260       -4.57590        0.84760
H          0.11840       -0.76040       -3.15670
H         -0.37620        1.18870        1.79570
H         -1.58910        1.40510        0.54400
H         -1.22910        2.94260       -1.31850
H          0.03000        4.88540       -2.20830
H          2.23030        5.49750       -1.23130
H          3.15580        4.18250        0.65870
H          1.89720        2.24830        1.56130
H         -3.50570       -0.61860        1.72230
H          1.20650       -2.37140       -0.11090
H         -0.33080       -2.73510       -0.87930
H          1.70720       -3.19420        2.23750
H          0.34760       -6.27530        5.53090
H          1.42510       -7.34340        4.44220
H         -2.16440       -6.35520        1.54250
H         -1.81190       -4.40460        0.02420
