rmsd83.gzmat
 OpenBabel08211713363D

 43 45  0  0  1  0  0  0  0  0999 V2000
    0.0000    0.0000    0.0000 C   0  0  1  0  0  0  0  0  0  0  0  0
    1.1288    0.0000    0.0000 H   0  0  0  0  0  0  0  0  0  0  0  0
   -0.4814    0.0000   -1.4304 C   0  0  0  0  0  0  0  0  0  0  0  0
   -1.4808    0.4768   -1.8941 O   0  0  0  0  0  0  0  0  0  0  0  0
    0.4186   -0.6386   -2.2255 O   0  0  0  0  0  0  0  0  0  0  0  0
   -0.4897    1.2854    0.6872 C   0  0  0  0  0  0  0  0  0  0  0  0
    0.1752    2.4852    0.0842 C   0  0  0  0  0  0  0  0  0  0  0  0
   -0.5254    3.2936   -0.8126 C   0  0  0  0  0  0  0  0  0  0  0  0
    0.0909    4.4093   -1.3744 C   0  0  0  0  0  0  0  0  0  0  0  0
    1.4106    4.7161   -1.0472 C   0  0  0  0  0  0  0  0  0  0  0  0
    2.1133    3.9055   -0.1568 C   0  0  0  0  0  0  0  0  0  0  0  0
    1.4982    2.7919    0.4102 C   0  0  0  0  0  0  0  0  0  0  0  0
   -0.4699   -1.2604    0.7493 C   0  0  1  0  0  0  0  0  0  0  0  0
   -0.2580   -1.1096    1.8459 H   0  0  0  0  0  0  0  0  0  0  0  0
   -1.9537   -1.4825    0.5854 C   0  0  0  0  0  0  0  0  0  0  0  0
   -2.5217   -2.2955   -0.0913 O   0  0  0  0  0  0  0  0  0  0  0  0
   -2.6445   -0.6275    1.3831 O   0  0  0  0  0  0  0  0  0  0  0  0
    0.2770   -2.5199    0.2703 C   0  0  0  0  0  0  0  0  0  0  0  0
    1.6625   -2.5390    0.8383 C   0  0  0  0  0  0  0  0  0  0  0  0
    1.8537   -3.0821    2.1275 C   0  0  0  0  0  0  0  0  0  0  0  0
    3.1368   -3.0464    2.6118 C   0  0  0  0  0  0  0  0  0  0  0  0
    3.5880   -3.5053    3.8232 O   0  0  0  0  0  0  0  0  0  0  0  0
    5.0077   -3.2315    3.8299 C   0  0  0  0  0  0  0  0  0  0  0  0
    5.3755   -2.5885    2.5891 O   0  0  0  0  0  0  0  0  0  0  0  0
    4.2095   -2.4965    1.8697 C   0  0  0  0  0  0  0  0  0  0  0  0
    4.0329   -1.9710    0.6138 C   0  0  0  0  0  0  0  0  0  0  0  0
    2.7213   -2.0108    0.1051 C   0  0  0  0  0  0  0  0  0  0  0  0
    0.1569   -0.6635   -3.1790 H   0  0  0  0  0  0  0  0  0  0  0  0
   -0.2869    1.2373    1.7778 H   0  0  0  0  0  0  0  0  0  0  0  0
   -1.5986    1.3623    0.6107 H   0  0  0  0  0  0  0  0  0  0  0  0
   -1.5517    3.0424   -1.0839 H   0  0  0  0  0  0  0  0  0  0  0  0
   -0.4587    5.0390   -2.0721 H   0  0  0  0  0  0  0  0  0  0  0  0
    1.8925    5.5865   -1.4863 H   0  0  0  0  0  0  0  0  0  0  0  0
    3.1442    4.1436    0.0963 H   0  0  0  0  0  0  0  0  0  0  0  0
    2.0501    2.1622    1.1047 H   0  0  0  0  0  0  0  0  0  0  0  0
   -3.6266   -0.7082    1.2959 H   0  0  0  0  0  0  0  0  0  0  0  0
    0.2955   -2.5620   -0.8421 H   0  0  0  0  0  0  0  0  0  0  0  0
   -0.2815   -3.4356    0.5645 H   0  0  0  0  0  0  0  0  0  0  0  0
    1.0335   -3.5075    2.6955 H   0  0  0  0  0  0  0  0  0  0  0  0
    5.5344   -4.1951    3.8782 H   0  0  0  0  0  0  0  0  0  0  0  0
    5.2078   -2.5247    4.6471 H   0  0  0  0  0  0  0  0  0  0  0  0
    4.8520   -1.5502    0.0399 H   0  0  0  0  0  0  0  0  0  0  0  0
    2.5404   -1.6179   -0.8989 H   0  0  0  0  0  0  0  0  0  0  0  0
  1  2  1  6  0  0  0
  1  6  1  0  0  0  0
  1 13  1  0  0  0  0
  3  1  1  0  0  0  0
  4  3  2  0  0  0  0
  5  3  1  0  0  0  0
  6 29  1  0  0  0  0
  7 12  1  0  0  0  0
  7  6  1  0  0  0  0
  8  7  2  0  0  0  0
  9 10  2  0  0  0  0
  9  8  1  0  0  0  0
 10 11  1  0  0  0  0
 11 34  1  0  0  0  0
 11 12  2  0  0  0  0
 12 35  1  0  0  0  0
 13 14  1  1  0  0  0
 15 13  1  0  0  0  0
 15 17  1  0  0  0  0
 16 15  2  0  0  0  0
 18 38  1  0  0  0  0
 18 13  1  0  0  0  0
 18 19  1  0  0  0  0
 19 20  2  0  0  0  0
 20 21  1  0  0  0  0
 20 39  1  0  0  0  0
 21 22  1  0  0  0  0
 22 23  1  0  0  0  0
 23 40  1  0  0  0  0
 23 41  1  0  0  0  0
 24 23  1  0  0  0  0
 25 24  1  0  0  0  0
 25 21  2  0  0  0  0
 26 25  1  0  0  0  0
 27 26  2  0  0  0  0
 27 19  1  0  0  0  0
 28  5  1  0  0  0  0
 30  6  1  0  0  0  0
 31  8  1  0  0  0  0
 32  9  1  0  0  0  0
 33 10  1  0  0  0  0
 36 17  1  0  0  0  0
 37 18  1  0  0  0  0
 42 26  1  0  0  0  0
 43 27  1  0  0  0  0
M  END
$$$$
