
     RDKit          3D

 43 45  0  0  0  0  0  0  0  0999 V2000
   -0.0875   -0.0083   -0.0011 C   0  0  1  0  0  0  0  0  0  0  0  0
    1.0092   -0.0662   -0.0262 H   0  0  0  0  0  0  0  0  0  0  0  0
   -0.5184   -0.0046   -1.4573 C   0  0  0  0  0  0  0  0  0  0  0  0
    0.1139   -0.4830   -2.3672 O   0  0  0  0  0  0  0  0  0  0  0  0
   -1.7320    0.5524   -1.6389 O   0  0  0  0  0  0  0  0  0  0  0  0
   -0.4877    1.2680    0.7610 C   0  0  0  0  0  0  0  0  0  0  0  0
    0.1479    2.5063    0.1727 C   0  0  0  0  0  0  0  0  0  0  0  0
   -0.5987    3.4121   -0.5934 C   0  0  0  0  0  0  0  0  0  0  0  0
    0.0056    4.5370   -1.1616 C   0  0  0  0  0  0  0  0  0  0  0  0
    1.3698    4.7714   -0.9741 C   0  0  0  0  0  0  0  0  0  0  0  0
    2.1257    3.8744   -0.2129 C   0  0  0  0  0  0  0  0  0  0  0  0
    1.5179    2.7532    0.3543 C   0  0  0  0  0  0  0  0  0  0  0  0
   -0.5626   -1.3230    0.6891 C   0  0  1  0  0  0  0  0  0  0  0  0
   -0.3299   -1.2032    1.7590 H   0  0  0  0  0  0  0  0  0  0  0  0
   -2.0662   -1.4948    0.5657 C   0  0  0  0  0  0  0  0  0  0  0  0
   -2.6218   -2.1554   -0.2759 O   0  0  0  0  0  0  0  0  0  0  0  0
   -2.7403   -0.8040    1.5081 O   0  0  0  0  0  0  0  0  0  0  0  0
    0.1602   -2.5753    0.1487 C   0  0  0  0  0  0  0  0  0  0  0  0
    1.6510   -2.5422    0.3870 C   0  0  0  0  0  0  0  0  0  0  0  0
    2.1599   -2.9082    1.6559 C   0  0  0  0  0  0  0  0  0  0  0  0
    3.5255   -2.8277    1.8479 C   0  0  0  0  0  0  0  0  0  0  0  0
    4.2509   -3.1039    2.9753 O   0  0  0  0  0  0  0  0  0  0  0  0
    5.6209   -3.0181    2.5923 C   0  0  0  0  0  0  0  0  0  0  0  0
    5.6745   -2.3969    1.3123 O   0  0  0  0  0  0  0  0  0  0  0  0
    4.3903   -2.3993    0.8368 C   0  0  0  0  0  0  0  0  0  0  0  0
    3.9191   -2.0330   -0.4095 C   0  0  0  0  0  0  0  0  0  0  0  0
    2.5275   -2.1124   -0.6184 C   0  0  0  0  0  0  0  0  0  0  0  0
   -1.9530    0.4457   -2.5803 H   0  0  0  0  0  0  0  0  0  0  0  0
   -0.1592    1.1433    1.8056 H   0  0  0  0  0  0  0  0  0  0  0  0
   -1.5801    1.3695    0.7817 H   0  0  0  0  0  0  0  0  0  0  0  0
   -1.6633    3.2250   -0.7501 H   0  0  0  0  0  0  0  0  0  0  0  0
   -0.5929    5.2336   -1.7540 H   0  0  0  0  0  0  0  0  0  0  0  0
    1.8433    5.6503   -1.4181 H   0  0  0  0  0  0  0  0  0  0  0  0
    3.1931    4.0507   -0.0586 H   0  0  0  0  0  0  0  0  0  0  0  0
    2.1156    2.0575    0.9506 H   0  0  0  0  0  0  0  0  0  0  0  0
   -3.6874   -0.9336    1.3255 H   0  0  0  0  0  0  0  0  0  0  0  0
   -0.0576   -2.6781   -0.9225 H   0  0  0  0  0  0  0  0  0  0  0  0
   -0.2776   -3.4571    0.6415 H   0  0  0  0  0  0  0  0  0  0  0  0
    1.5022   -3.2496    2.4576 H   0  0  0  0  0  0  0  0  0  0  0  0
    6.0543   -4.0364    2.5315 H   0  0  0  0  0  0  0  0  0  0  0  0
    6.1739   -2.4091    3.3252 H   0  0  0  0  0  0  0  0  0  0  0  0
    4.5972   -1.6960   -1.1944 H   0  0  0  0  0  0  0  0  0  0  0  0
    2.1126   -1.8161   -1.5837 H   0  0  0  0  0  0  0  0  0  0  0  0
  1  2  1  6
  1  3  1  0
  1  6  1  0
  1 13  1  0
  3  4  2  0
  3  5  1  0
  5 28  1  0
  6  7  1  0
  6 29  1  0
  6 30  1  0
  7  8  2  0
  7 12  1  0
  8  9  1  0
  8 31  1  0
  9 10  2  0
  9 32  1  0
 10 11  1  0
 10 33  1  0
 11 12  2  0
 11 34  1  0
 12 35  1  0
 13 14  1  1
 13 15  1  0
 13 18  1  0
 15 16  2  0
 15 17  1  0
 17 36  1  0
 18 19  1  0
 18 37  1  0
 18 38  1  0
 19 20  2  0
 19 27  1  0
 20 21  1  0
 20 39  1  0
 21 22  1  0
 21 25  2  0
 22 23  1  0
 23 24  1  0
 23 40  1  0
 23 41  1  0
 24 25  1  0
 25 26  1  0
 26 27  2  0
 26 42  1  0
 27 43  1  0
M  END

