43

C          0.09550        0.04120        0.00690
H          1.19320       -0.02120        0.00740
C         -0.36400        0.11080       -1.43950
O         -1.40170        0.59820       -1.81440
O          0.50710       -0.46830       -2.29130
C         -0.33390        1.30850        0.76820
C          0.34680        2.54940        0.24050
C         -0.30020        3.40300       -0.66480
C          0.35330        4.52730       -1.17670
C          1.66590        4.81410       -0.79320
C          2.32200        3.96910        0.10700
C          1.66570        2.84750        0.61740
C         -0.41690       -1.26660        0.68340
H         -0.22800       -1.13940        1.75990
C         -1.92730       -1.36040        0.55430
O         -2.71430       -0.83020        1.29800
O         -2.31060       -2.08520       -0.51530
C          0.32030       -2.53450        0.19910
C          1.78380       -2.52830        0.57380
C          2.15900       -2.85030        1.90030
C          3.50020       -2.78350        2.22300
O          4.11040       -3.07260        3.41230
C          5.47800       -2.70340        3.25490
O          5.70620       -2.46920        1.86870
C          4.46980       -2.41680        1.28460
C          4.13130       -2.10210       -0.01730
C          2.76430       -2.16140       -0.35640
H          0.11240       -0.40560       -3.17900
H         -0.07440        1.16460        1.82860
H         -1.42580        1.41170        0.71440
H         -1.32060        3.17100       -0.97630
H         -0.16710        5.18310       -1.87920
H          2.17600        5.69420       -1.19230
H          3.34750        4.18720        0.41570
H          2.18290        2.19210        1.32480
H         -3.28000       -2.02110       -0.56500
H          0.20470       -2.63490       -0.88790
H         -0.17280       -3.40980        0.65030
H          1.41950       -3.14900        2.64570
H          6.12660       -3.52180        3.60600
H          5.68100       -1.77690        3.82820
H          4.89140       -1.82150       -0.74730
H          2.45590       -1.89960       -1.36970
