rmsd79.gzmat
 OpenBabel08211713363D

 43 44  0  0  1  0  0  0  0  0999 V2000
    0.0000    0.0000    0.0000 C   0  0  1  0  0  0  0  0  0  0  0  0
    1.1308    0.0000    0.0000 H   0  0  0  0  0  0  0  0  0  0  0  0
   -0.4408    0.0000   -1.4437 C   0  0  0  0  0  0  0  0  0  0  0  0
    0.2159   -0.2871   -2.4093 O   0  0  0  0  0  0  0  0  0  0  0  0
   -1.7405    0.3643   -1.5657 O   0  0  0  0  0  0  0  0  0  0  0  0
   -0.4786    1.2670    0.7239 C   0  0  0  0  0  0  0  0  0  0  0  0
    0.1944    2.4711    0.1387 C   0  0  0  0  0  0  0  0  0  0  0  0
    1.5341    2.7340    0.4350 C   0  0  0  0  0  0  0  0  0  0  0  0
    2.1661    3.8404   -0.1263 C   0  0  0  0  0  0  0  0  0  0  0  0
    1.4649    4.6861   -0.9849 C   0  0  0  0  0  0  0  0  0  0  0  0
    0.1288    4.4236   -1.2810 C   0  0  0  0  0  0  0  0  0  0  0  0
   -0.5073    3.3186   -0.7191 C   0  0  0  0  0  0  0  0  0  0  0  0
   -0.4715   -1.2818    0.7096 C   0  0  1  0  0  0  0  0  0  0  0  0
   -0.1932   -1.2003    1.7975 H   0  0  0  0  0  0  0  0  0  0  0  0
   -1.9682   -1.4449    0.6077 C   0  0  0  0  0  0  0  0  0  0  0  0
   -2.6006   -2.1408   -0.1388 O   0  0  0  0  0  0  0  0  0  0  0  0
   -2.5829   -0.7011    1.5647 O   0  0  0  0  0  0  0  0  0  0  0  0
    0.2020   -2.5344    0.1167 C   0  0  0  0  0  0  0  0  0  0  0  0
    1.6704   -2.5102    0.4094 C   0  0  0  0  0  0  0  0  0  0  0  0
    2.1126   -2.9534    1.6745 C   0  0  0  0  0  0  0  0  0  0  0  0
    3.4636   -2.8743    1.9011 C   0  0  0  0  0  0  0  0  0  0  0  0
    4.1448   -3.2334    3.0368 O   0  0  0  0  0  0  0  0  0  0  0  0
    5.5345   -2.9543    2.7518 C   0  0  0  0  0  0  0  0  0  0  0  0
    5.6470   -2.4037    1.4209 O   0  0  0  0  0  0  0  0  0  0  0  0
    4.3648   -2.3769    0.9302 C   0  0  0  0  0  0  0  0  0  0  0  0
    3.9429   -1.9474   -0.3037 C   0  0  0  0  0  0  0  0  0  0  0  0
    2.5596   -2.0295   -0.5480 C   0  0  0  0  0  0  0  0  0  0  0  0
   -2.0779    0.3209   -2.4961 H   0  0  0  0  0  0  0  0  0  0  0  0
   -0.2619    1.1900    1.8107 H   0  0  0  0  0  0  0  0  0  0  0  0
   -1.5868    1.3519    0.6675 H   0  0  0  0  0  0  0  0  0  0  0  0
    2.0857    2.0738    1.1017 H   0  0  0  0  0  0  0  0  0  0  0  0
    3.2095    4.0448    0.1047 H   0  0  0  0  0  0  0  0  0  0  0  0
    1.9603    5.5491   -1.4244 H   0  0  0  0  0  0  0  0  0  0  0  0
   -0.4184    5.0806   -1.9541 H   0  0  0  0  0  0  0  0  0  0  0  0
   -1.5500    3.1110   -0.9555 H   0  0  0  0  0  0  0  0  0  0  0  0
   -3.5695   -0.7519    1.5344 H   0  0  0  0  0  0  0  0  0  0  0  0
    0.0082   -2.5984   -0.9776 H   0  0  0  0  0  0  0  0  0  0  0  0
   -0.2681   -3.4534    0.5283 H   0  0  0  0  0  0  0  0  0  0  0  0
    1.4236   -3.3369    2.4185 H   0  0  0  0  0  0  0  0  0  0  0  0
    6.0782   -3.9094    2.7684 H   0  0  0  0  0  0  0  0  0  0  0  0
    5.8744   -2.1883    3.4621 H   0  0  0  0  0  0  0  0  0  0  0  0
    4.6292   -1.5657   -1.0532 H   0  0  0  0  0  0  0  0  0  0  0  0
    2.1821   -1.6972   -1.5209 H   0  0  0  0  0  0  0  0  0  0  0  0
  1  2  1  1  0  0  0
  1 13  1  0  0  0  0
  1  6  1  0  0  0  0
  3  1  1  0  0  0  0
  4  3  2  0  0  0  0
  5  3  1  0  0  0  0
  6 29  1  0  0  0  0
  7  8  1  0  0  0  0
  7  6  1  0  0  0  0
  8 31  1  0  0  0  0
  9 32  1  0  0  0  0
  9  8  2  0  0  0  0
 10  9  1  0  0  0  0
 11 10  2  0  0  0  0
 11 12  1  0  0  0  0
 12  7  2  0  0  0  0
 13 14  1  1  0  0  0
 15 13  1  0  0  0  0
 15 17  1  0  0  0  0
 16 15  2  0  0  0  0
 18 19  1  0  0  0  0
 18 38  1  0  0  0  0
 18 13  1  0  0  0  0
 19 20  2  0  0  0  0
 20 21  1  0  0  0  0
 20 39  1  0  0  0  0
 21 22  1  0  0  0  0
 23 40  1  0  0  0  0
 23 22  1  0  0  0  0
 23 41  1  0  0  0  0
 24 23  1  0  0  0  0
 25 24  1  0  0  0  0
 25 21  2  0  0  0  0
 26 25  1  0  0  0  0
 27 26  2  0  0  0  0
 27 19  1  0  0  0  0
 28  5  1  0  0  0  0
 30  6  1  0  0  0  0
 33 10  1  0  0  0  0
 34 11  1  0  0  0  0
 35 12  1  0  0  0  0
 36 17  1  0  0  0  0
 42 26  1  0  0  0  0
 43 27  1  0  0  0  0
M  RAD  2  18   2  37   2
M  END
$$$$
