
     RDKit          3D

 43 45  0  0  0  0  0  0  0  0999 V2000
   -0.0691   -0.0525   -0.0325 C   0  0  1  0  0  0  0  0  0  0  0  0
    1.0291   -0.1000   -0.0306 H   0  0  0  0  0  0  0  0  0  0  0  0
   -0.5313   -0.0399   -1.4797 C   0  0  0  0  0  0  0  0  0  0  0  0
   -1.5733    0.4244   -1.8708 O   0  0  0  0  0  0  0  0  0  0  0  0
    0.3436   -0.6433   -2.3110 O   0  0  0  0  0  0  0  0  0  0  0  0
   -0.5117    1.2366    0.6838 C   0  0  0  0  0  0  0  0  0  0  0  0
    0.1586    2.4645    0.1140 C   0  0  0  0  0  0  0  0  0  0  0  0
   -0.4917    3.2762   -0.8268 C   0  0  0  0  0  0  0  0  0  0  0  0
    0.1528    4.3876   -1.3768 C   0  0  0  0  0  0  0  0  0  0  0  0
    1.4597    4.7031   -0.9964 C   0  0  0  0  0  0  0  0  0  0  0  0
    2.1190    3.9002   -0.0609 C   0  0  0  0  0  0  0  0  0  0  0  0
    1.4717    2.7912    0.4875 C   0  0  0  0  0  0  0  0  0  0  0  0
   -0.5657   -1.3411    0.6912 C   0  0  1  0  0  0  0  0  0  0  0  0
   -0.3666   -1.1776    1.7608 H   0  0  0  0  0  0  0  0  0  0  0  0
   -2.0767   -1.4482    0.5787 C   0  0  0  0  0  0  0  0  0  0  0  0
   -2.8607   -0.8986    1.3113 O   0  0  0  0  0  0  0  0  0  0  0  0
   -2.4648   -2.2105   -0.4628 O   0  0  0  0  0  0  0  0  0  0  0  0
    0.1723   -2.6230    0.2462 C   0  0  0  0  0  0  0  0  0  0  0  0
    1.6417   -2.5988    0.5999 C   0  0  0  0  0  0  0  0  0  0  0  0
    2.5991   -2.2064   -0.3652 C   0  0  0  0  0  0  0  0  0  0  0  0
    3.9240   -2.1678    0.0272 C   0  0  0  0  0  0  0  0  0  0  0  0
    5.0213   -1.8049   -0.7048 O   0  0  0  0  0  0  0  0  0  0  0  0
    6.1535   -2.0750    0.1169 C   0  0  0  0  0  0  0  0  0  0  0  0
    5.6796   -2.3427    1.4338 O   0  0  0  0  0  0  0  0  0  0  0  0
    4.3241   -2.4939    1.3253 C   0  0  0  0  0  0  0  0  0  0  0  0
    3.4087   -2.8772    2.2879 C   0  0  0  0  0  0  0  0  0  0  0  0
    2.0564   -2.9252    1.8980 C   0  0  0  0  0  0  0  0  0  0  0  0
   -0.0511   -0.6162   -3.2005 H   0  0  0  0  0  0  0  0  0  0  0  0
   -0.2530    1.1322    1.7489 H   0  0  0  0  0  0  0  0  0  0  0  0
   -1.6044    1.3280    0.6247 H   0  0  0  0  0  0  0  0  0  0  0  0
   -1.5076    3.0214   -1.1354 H   0  0  0  0  0  0  0  0  0  0  0  0
   -0.3702    5.0107   -2.1067 H   0  0  0  0  0  0  0  0  0  0  0  0
    1.9628    5.5732   -1.4253 H   0  0  0  0  0  0  0  0  0  0  0  0
    3.1399    4.1411    0.2458 H   0  0  0  0  0  0  0  0  0  0  0  0
    1.9912    2.1692    1.2226 H   0  0  0  0  0  0  0  0  0  0  0  0
   -3.4350   -2.1543   -0.5057 H   0  0  0  0  0  0  0  0  0  0  0  0
    0.0397   -2.7678   -0.8341 H   0  0  0  0  0  0  0  0  0  0  0  0
   -0.3098   -3.4811    0.7394 H   0  0  0  0  0  0  0  0  0  0  0  0
    2.2998   -1.9316   -1.3765 H   0  0  0  0  0  0  0  0  0  0  0  0
    6.8195   -1.1972    0.1325 H   0  0  0  0  0  0  0  0  0  0  0  0
    6.6931   -2.9612   -0.2722 H   0  0  0  0  0  0  0  0  0  0  0  0
    3.7254   -3.1333    3.2996 H   0  0  0  0  0  0  0  0  0  0  0  0
    1.3082   -3.2344    2.6325 H   0  0  0  0  0  0  0  0  0  0  0  0
  1  2  1  6
  1  3  1  0
  1  6  1  0
  1 13  1  0
  3  4  2  0
  3  5  1  0
  5 28  1  0
  6  7  1  0
  6 29  1  0
  6 30  1  0
  7  8  2  0
  7 12  1  0
  8  9  1  0
  8 31  1  0
  9 10  2  0
  9 32  1  0
 10 11  1  0
 10 33  1  0
 11 12  2  0
 11 34  1  0
 12 35  1  0
 13 14  1  1
 13 15  1  0
 13 18  1  0
 15 16  2  0
 15 17  1  0
 17 36  1  0
 18 19  1  0
 18 37  1  0
 18 38  1  0
 19 20  2  0
 19 27  1  0
 20 21  1  0
 20 39  1  0
 21 22  1  0
 21 25  2  0
 22 23  1  0
 23 24  1  0
 23 40  1  0
 23 41  1  0
 24 25  1  0
 25 26  1  0
 26 27  2  0
 26 42  1  0
 27 43  1  0
M  END

