43
rmsd84.gzmat
C          0.00000        0.00000        0.00000
H          1.13070        0.00000        0.00000
C         -0.43910        0.00000       -1.44420
O          0.18910       -0.37880       -2.39730
O         -1.69800        0.48140       -1.58740
C         -0.48320        1.25600        0.73950
C          0.14530        2.48230        0.15170
C         -0.58130        3.28510       -0.72920
C          0.00270        4.42430       -1.27800
C          1.31460        4.76280       -0.95110
C          2.04300        3.95800       -0.07620
C          1.46040        2.82040        0.47720
C         -0.47190       -1.28660        0.70350
H         -0.17650       -1.21690        1.78770
C         -1.97180       -1.43460        0.62240
O         -2.62130       -2.12100       -0.11840
O         -2.56800       -0.68610        1.58730
C          0.17720       -2.54220        0.09150
C          1.65210       -2.53970        0.35050
C          2.11740       -2.97440        1.61040
C          3.47550       -2.92400        1.80040
O          4.17870       -3.28290        2.92290
C          5.56630       -3.04140        2.59630
O          5.65670       -2.52340        1.25060
C          4.36200       -2.46810        0.79630
C          3.91790       -2.04980       -0.43380
C          2.52680       -2.09650       -0.63770
H         -2.02910        0.44660       -2.52090
H         -0.24110        1.17560        1.82100
H         -1.59420        1.32100        0.70790
H         -1.60360        3.01490       -0.99230
H         -0.56610        5.04970       -1.96300
H          1.76980        5.65320       -1.37900
H          3.06910        4.21890        0.17490
H          2.03110        2.19670        1.16230
H         -3.55560       -0.72740        1.56850
H         -0.04120       -2.59910       -0.99920
H         -0.29380       -3.45850        0.50860
H          1.44020       -3.33180        2.37790
H          6.08890       -4.00800        2.62100
H          5.94130       -2.26690        3.27940
H          4.59390       -1.70390       -1.20950
H          2.13090       -1.77000       -1.60560
