rmsd58.gzmat
 OpenBabel08211713363D

 43 45  0  0  1  0  0  0  0  0999 V2000
    0.0000    0.0000    0.0000 C   0  0  1  0  0  0  0  0  0  0  0  0
    1.1300    0.0000    0.0000 H   0  0  0  0  0  0  0  0  0  0  0  0
   -0.4795    0.0000   -1.4306 C   0  0  0  0  0  0  0  0  0  0  0  0
   -1.4790    0.4754   -1.8961 O   0  0  0  0  0  0  0  0  0  0  0  0
    0.4202   -0.6357   -2.2279 O   0  0  0  0  0  0  0  0  0  0  0  0
   -0.4867    1.2880    0.6851 C   0  0  0  0  0  0  0  0  0  0  0  0
    0.2724    2.4626    0.1476 C   0  0  0  0  0  0  0  0  0  0  0  0
   -0.2733    3.2380   -0.8767 C   0  0  0  0  0  0  0  0  0  0  0  0
    0.4449    4.3132   -1.3946 C   0  0  0  0  0  0  0  0  0  0  0  0
    1.7100    4.6151   -0.8931 C   0  0  0  0  0  0  0  0  0  0  0  0
    2.2551    3.8413    0.1305 C   0  0  0  0  0  0  0  0  0  0  0  0
    1.5389    2.7664    0.6515 C   0  0  0  0  0  0  0  0  0  0  0  0
   -0.4659   -1.2618    0.7480 C   0  0  1  0  0  0  0  0  0  0  0  0
   -0.2254   -1.1253    1.8402 H   0  0  0  0  0  0  0  0  0  0  0  0
   -1.9548   -1.4708    0.6169 C   0  0  0  0  0  0  0  0  0  0  0  0
   -2.5408   -2.3032   -0.0200 O   0  0  0  0  0  0  0  0  0  0  0  0
   -2.6254   -0.5788    1.3904 O   0  0  0  0  0  0  0  0  0  0  0  0
    0.2557   -2.5231    0.2362 C   0  0  0  0  0  0  0  0  0  0  0  0
    1.6966   -2.4961    0.6438 C   0  0  0  0  0  0  0  0  0  0  0  0
    2.0403   -2.9340    1.9412 C   0  0  0  0  0  0  0  0  0  0  0  0
    3.3715   -2.8655    2.2670 C   0  0  0  0  0  0  0  0  0  0  0  0
    3.9646   -3.2278    3.4501 O   0  0  0  0  0  0  0  0  0  0  0  0
    5.3754   -2.9709    3.2639 C   0  0  0  0  0  0  0  0  0  0  0  0
    5.5905   -2.4243    1.9438 O   0  0  0  0  0  0  0  0  0  0  0  0
    4.3471   -2.3836    1.3623 C   0  0  0  0  0  0  0  0  0  0  0  0
    4.0214   -1.9576    0.0986 C   0  0  0  0  0  0  0  0  0  0  0  0
    2.6597   -2.0286   -0.2463 C   0  0  0  0  0  0  0  0  0  0  0  0
    0.1618   -0.6539   -3.1823 H   0  0  0  0  0  0  0  0  0  0  0  0
   -0.3640    1.2093    1.7853 H   0  0  0  0  0  0  0  0  0  0  0  0
   -1.5837    1.4137    0.5374 H   0  0  0  0  0  0  0  0  0  0  0  0
   -1.2577    2.9935   -1.2789 H   0  0  0  0  0  0  0  0  0  0  0  0
    0.0169    4.9167   -2.1930 H   0  0  0  0  0  0  0  0  0  0  0  0
    2.2718    5.4530   -1.2995 H   0  0  0  0  0  0  0  0  0  0  0  0
    3.2425    4.0767    0.5225 H   0  0  0  0  0  0  0  0  0  0  0  0
    1.9691    2.1626    1.4477 H   0  0  0  0  0  0  0  0  0  0  0  0
   -3.6097   -0.6513    1.3163 H   0  0  0  0  0  0  0  0  0  0  0  0
    0.1504   -2.6056   -0.8691 H   0  0  0  0  0  0  0  0  0  0  0  0
   -0.2462   -3.4365    0.6237 H   0  0  0  0  0  0  0  0  0  0  0  0
    1.2945   -3.3066    2.6350 H   0  0  0  0  0  0  0  0  0  0  0  0
    5.9016   -3.9346    3.3183 H   0  0  0  0  0  0  0  0  0  0  0  0
    5.6765   -2.2089    3.9957 H   0  0  0  0  0  0  0  0  0  0  0  0
    4.7651   -1.5879   -0.5999 H   0  0  0  0  0  0  0  0  0  0  0  0
    2.3587   -1.7032   -1.2463 H   0  0  0  0  0  0  0  0  0  0  0  0
  1  2  1  6  0  0  0
  1  6  1  0  0  0  0
  1 13  1  0  0  0  0
  3  1  1  0  0  0  0
  4  3  2  0  0  0  0
  5  3  1  0  0  0  0
  6 29  1  0  0  0  0
  7 12  1  0  0  0  0
  7  6  1  0  0  0  0
  8  7  2  0  0  0  0
  9 10  2  0  0  0  0
  9  8  1  0  0  0  0
 10 11  1  0  0  0  0
 11 34  1  0  0  0  0
 11 12  2  0  0  0  0
 12 35  1  0  0  0  0
 13 14  1  1  0  0  0
 15 13  1  0  0  0  0
 15 17  1  0  0  0  0
 16 15  2  0  0  0  0
 18 38  1  0  0  0  0
 18 19  1  0  0  0  0
 18 13  1  0  0  0  0
 19 20  2  0  0  0  0
 20 21  1  0  0  0  0
 20 39  1  0  0  0  0
 21 22  1  0  0  0  0
 23 40  1  0  0  0  0
 23 22  1  0  0  0  0
 23 41  1  0  0  0  0
 24 23  1  0  0  0  0
 25 24  1  0  0  0  0
 25 21  2  0  0  0  0
 26 25  1  0  0  0  0
 27 26  2  0  0  0  0
 27 19  1  0  0  0  0
 28  5  1  0  0  0  0
 30  6  1  0  0  0  0
 31  8  1  0  0  0  0
 32  9  1  0  0  0  0
 33 10  1  0  0  0  0
 36 17  1  0  0  0  0
 37 18  1  0  0  0  0
 42 26  1  0  0  0  0
 43 27  1  0  0  0  0
M  END
$$$$
