rmsd12.gzmat
 OpenBabel08211713373D

 43 44  0  0  0  0  0  0  0  0999 V2000
    0.0000    0.0000    0.0000 C   0  0  0  0  0  0  0  0  0  0  0  0
    1.3520    0.0000    0.0000 C   0  0  0  0  0  0  0  0  0  0  0  0
    2.1213    0.0000    1.2461 C   0  0  0  0  0  0  0  0  0  0  0  0
    1.9574    1.0308    2.1779 C   0  0  0  0  0  0  0  0  0  0  0  0
    2.6846    1.0418    3.3560 C   0  0  0  0  0  0  0  0  0  0  0  0
    3.6052    0.0070    3.6385 C   0  0  0  0  0  0  0  0  0  0  0  0
    3.7566   -1.0347    2.6978 C   0  0  0  0  0  0  0  0  0  0  0  0
    3.0267   -1.0280    1.5189 C   0  0  0  0  0  0  0  0  0  0  0  0
    4.4228    0.0900    4.7706 N   0  0  0  0  0  0  0  0  0  0  0  0
    5.1815   -1.1103    5.1551 C   0  0  0  0  0  0  0  0  0  0  0  0
    3.8799    0.8198    5.9293 C   0  0  0  0  0  0  0  0  0  0  0  0
    2.1536   -0.0007   -1.2665 C   0  0  0  0  0  0  0  0  0  0  0  0
    2.8991    1.3278   -1.4120 C   0  0  0  0  0  0  0  0  0  0  0  0
   -0.8101    0.0060   -1.2281 C   0  0  0  0  0  0  0  0  0  0  0  0
   -1.4545   -1.1674   -1.6327 C   0  0  0  0  0  0  0  0  0  0  0  0
   -2.2251   -1.1728   -2.7894 C   0  0  0  0  0  0  0  0  0  0  0  0
   -2.3392    0.0056   -3.5327 C   0  0  0  0  0  0  0  0  0  0  0  0
   -1.7020    1.1849   -3.1368 C   0  0  0  0  0  0  0  0  0  0  0  0
   -0.9354    1.1802   -1.9770 C   0  0  0  0  0  0  0  0  0  0  0  0
   -3.1433    0.0043   -4.7449 N   0  0  0  0  0  0  0  0  0  0  0  0
   -3.1541    1.0134   -5.4319 O   0  0  0  0  0  0  0  0  0  0  0  0
   -3.7690   -1.0068   -5.0211 O   0  0  0  0  0  0  0  0  0  0  0  0
   -0.7610   -0.0293    1.1974 C   0  0  0  0  0  0  0  0  0  0  0  0
   -1.3964   -0.0544    2.1652 N   0  0  0  0  0  0  0  0  0  0  0  0
    1.2470    1.8352    1.9753 H   0  0  0  0  0  0  0  0  0  0  0  0
    2.5423    1.8600    4.0566 H   0  0  0  0  0  0  0  0  0  0  0  0
    4.4424   -1.8550    2.8847 H   0  0  0  0  0  0  0  0  0  0  0  0
    3.1524   -1.8453    0.8076 H   0  0  0  0  0  0  0  0  0  0  0  0
    5.8743   -1.3857    4.3387 H   0  0  0  0  0  0  0  0  0  0  0  0
    4.5420   -1.9774    5.3890 H   0  0  0  0  0  0  0  0  0  0  0  0
    5.8091   -0.8917    6.0364 H   0  0  0  0  0  0  0  0  0  0  0  0
    3.7899    1.8928    5.6786 H   0  0  0  0  0  0  0  0  0  0  0  0
    4.5715    0.7547    6.7851 H   0  0  0  0  0  0  0  0  0  0  0  0
    2.8928    0.4462    6.2500 H   0  0  0  0  0  0  0  0  0  0  0  0
    1.5189   -0.1770   -2.1595 H   0  0  0  0  0  0  0  0  0  0  0  0
    2.8802   -0.8421   -1.2568 H   0  0  0  0  0  0  0  0  0  0  0  0
    2.2059    2.1715   -1.5030 H   0  0  0  0  0  0  0  0  0  0  0  0
    3.5368    1.3273   -2.3033 H   0  0  0  0  0  0  0  0  0  0  0  0
    3.5450    1.5223   -0.5445 H   0  0  0  0  0  0  0  0  0  0  0  0
   -1.3533   -2.0750   -1.0358 H   0  0  0  0  0  0  0  0  0  0  0  0
   -2.7388   -2.0835   -3.1149 H   0  0  0  0  0  0  0  0  0  0  0  0
   -1.8089    2.0967   -3.7334 H   0  0  0  0  0  0  0  0  0  0  0  0
   -0.4338    2.0901   -1.6466 H   0  0  0  0  0  0  0  0  0  0  0  0
  1  2  2  0  0  0  0
  1 23  1  0  0  0  0
  2  3  1  0  0  0  0
  3  8  2  0  0  0  0
  3  4  1  0  0  0  0
  4  5  2  0  0  0  0
  5  6  1  0  0  0  0
  5 26  1  0  0  0  0
  6  9  1  0  0  0  0
  7 27  1  0  0  0  0
  7  6  2  0  0  0  0
  8  7  1  0  0  0  0
  9 10  1  0  0  0  0
  9 11  1  0  0  0  0
 10 30  1  0  0  0  0
 10 31  1  0  0  0  0
 11 34  1  0  0  0  0
 11 33  1  0  0  0  0
 12 36  1  0  0  0  0
 12  2  1  0  0  0  0
 13 12  1  0  0  0  0
 13 39  1  0  0  0  0
 14  1  1  0  0  0  0
 15 14  1  0  0  0  0
 15 40  1  0  0  0  0
 16 15  2  0  0  0  0
 17 18  2  0  0  0  0
 17 16  1  0  0  0  0
 18 19  1  0  0  0  0
 19 43  1  0  0  0  0
 19 14  2  0  0  0  0
 20 17  1  0  0  0  0
 21 20  2  0  0  0  0
 22 20  2  0  0  0  0
 23 24  3  0  0  0  0
 25  4  1  0  0  0  0
 28  8  1  0  0  0  0
 29 10  1  0  0  0  0
 32 11  1  0  0  0  0
 35 12  1  0  0  0  0
 37 13  1  0  0  0  0
 38 13  1  0  0  0  0
 41 16  1  0  0  0  0
 42 18  1  0  0  0  0
M  END
$$$$
