43

C         -0.02080        0.14540       -0.08300
C          1.34860        0.03200       -0.04040
C          2.09010        0.02610        1.23300
C          1.61580       -0.67170        2.36250
C          2.31500       -0.69980        3.55940
C          3.54690       -0.01200        3.70470
C          4.03720        0.67830        2.56630
C          3.33060        0.68120        1.37220
N          4.23810       -0.02040        4.89240
C          3.69640       -0.71630        6.04170
C          5.50150        0.67860        5.00180
C          2.17660       -0.06760       -1.30100
C          2.92610       -1.39830       -1.44350
C         -0.86090        0.01290       -1.30390
C         -0.67390       -1.04720       -2.21240
C         -1.46840       -1.16780       -3.34860
C         -2.47020       -0.22360       -3.57190
C         -2.70220        0.82400       -2.68010
C         -1.90090        0.93140       -1.54800
N         -3.31350       -0.34470       -4.77410
O         -4.18920        0.49030       -4.93620
O         -3.08230       -1.27160       -5.53490
C         -0.76490        0.49850        1.09330
N         -1.42920        0.81670        1.99280
H          0.68250       -1.23160        2.29550
H          1.89910       -1.26900        4.38870
H          4.97760        1.22440        2.61520
H          3.74860        1.23820        0.53190
H          3.58780       -1.80070        5.85770
H          2.70450       -0.32540        6.33070
H          4.37140       -0.58670        6.89650
H          6.25270        0.28960        4.29070
H          5.90140        0.55100        6.01510
H          5.39410        1.76260        4.81440
H          2.91700        0.75010       -1.27790
H          1.55570        0.11880       -2.18610
H          3.59920       -1.56870       -0.59020
H          3.52910       -1.40720       -2.36450
H          2.22790       -2.24910       -1.48740
H          0.08820       -1.80010       -2.01200
H         -1.33760       -1.98400       -4.05780
H         -3.50200        1.53380       -2.88740
H         -2.07770        1.74080       -0.83740
