
     RDKit          3D

 43 44  0  0  0  0  0  0  0  0999 V2000
   -0.0208    0.1454   -0.0830 C   0  0  0  0  0  0  0  0  0  0  0  0
    1.3486    0.0320   -0.0404 C   0  0  0  0  0  0  0  0  0  0  0  0
    2.0901    0.0261    1.2330 C   0  0  0  0  0  0  0  0  0  0  0  0
    1.6158   -0.6717    2.3625 C   0  0  0  0  0  0  0  0  0  0  0  0
    2.3150   -0.6998    3.5594 C   0  0  0  0  0  0  0  0  0  0  0  0
    3.5469   -0.0120    3.7047 C   0  0  0  0  0  0  0  0  0  0  0  0
    4.0372    0.6783    2.5663 C   0  0  0  0  0  0  0  0  0  0  0  0
    3.3306    0.6812    1.3722 C   0  0  0  0  0  0  0  0  0  0  0  0
    4.2381   -0.0204    4.8924 N   0  0  0  0  0  0  0  0  0  0  0  0
    3.6964   -0.7163    6.0417 C   0  0  0  0  0  0  0  0  0  0  0  0
    5.5015    0.6786    5.0018 C   0  0  0  0  0  0  0  0  0  0  0  0
    2.1766   -0.0676   -1.3010 C   0  0  0  0  0  0  0  0  0  0  0  0
    2.9261   -1.3983   -1.4435 C   0  0  0  0  0  0  0  0  0  0  0  0
   -0.8609    0.0129   -1.3039 C   0  0  0  0  0  0  0  0  0  0  0  0
   -0.6739   -1.0472   -2.2124 C   0  0  0  0  0  0  0  0  0  0  0  0
   -1.4684   -1.1678   -3.3486 C   0  0  0  0  0  0  0  0  0  0  0  0
   -2.4702   -0.2236   -3.5719 C   0  0  0  0  0  0  0  0  0  0  0  0
   -2.7022    0.8240   -2.6801 C   0  0  0  0  0  0  0  0  0  0  0  0
   -1.9009    0.9314   -1.5480 C   0  0  0  0  0  0  0  0  0  0  0  0
   -3.3135   -0.3447   -4.7741 N   0  0  0  0  0  0  0  0  0  0  0  0
   -4.1892    0.4903   -4.9362 O   0  0  0  0  0  0  0  0  0  0  0  0
   -3.0823   -1.2716   -5.5349 O   0  0  0  0  0  0  0  0  0  0  0  0
   -0.7649    0.4985    1.0933 C   0  0  0  0  0  0  0  0  0  0  0  0
   -1.4292    0.8167    1.9928 N   0  0  0  0  0  0  0  0  0  0  0  0
    0.6825   -1.2316    2.2955 H   0  0  0  0  0  0  0  0  0  0  0  0
    1.8991   -1.2690    4.3887 H   0  0  0  0  0  0  0  0  0  0  0  0
    4.9776    1.2244    2.6152 H   0  0  0  0  0  0  0  0  0  0  0  0
    3.7486    1.2382    0.5319 H   0  0  0  0  0  0  0  0  0  0  0  0
    3.5878   -1.8007    5.8577 H   0  0  0  0  0  0  0  0  0  0  0  0
    2.7045   -0.3254    6.3307 H   0  0  0  0  0  0  0  0  0  0  0  0
    4.3714   -0.5867    6.8965 H   0  0  0  0  0  0  0  0  0  0  0  0
    6.2527    0.2896    4.2907 H   0  0  0  0  0  0  0  0  0  0  0  0
    5.9014    0.5510    6.0151 H   0  0  0  0  0  0  0  0  0  0  0  0
    5.3941    1.7626    4.8144 H   0  0  0  0  0  0  0  0  0  0  0  0
    2.9170    0.7501   -1.2779 H   0  0  0  0  0  0  0  0  0  0  0  0
    1.5557    0.1188   -2.1861 H   0  0  0  0  0  0  0  0  0  0  0  0
    3.5992   -1.5687   -0.5902 H   0  0  0  0  0  0  0  0  0  0  0  0
    3.5291   -1.4072   -2.3645 H   0  0  0  0  0  0  0  0  0  0  0  0
    2.2279   -2.2491   -1.4874 H   0  0  0  0  0  0  0  0  0  0  0  0
    0.0882   -1.8001   -2.0120 H   0  0  0  0  0  0  0  0  0  0  0  0
   -1.3376   -1.9840   -4.0578 H   0  0  0  0  0  0  0  0  0  0  0  0
   -3.5020    1.5338   -2.8874 H   0  0  0  0  0  0  0  0  0  0  0  0
   -2.0777    1.7408   -0.8374 H   0  0  0  0  0  0  0  0  0  0  0  0
  1  2  2  0
  1 14  1  0
  1 23  1  0
  2  3  1  0
  2 12  1  0
  3  4  2  0
  3  8  1  0
  4  5  1  0
  4 25  1  0
  5  6  2  0
  5 26  1  0
  6  7  1  0
  6  9  1  0
  7  8  2  0
  7 27  1  0
  8 28  1  0
  9 10  1  0
  9 11  1  0
 10 29  1  0
 10 30  1  0
 10 31  1  0
 11 32  1  0
 11 33  1  0
 11 34  1  0
 12 13  1  0
 12 35  1  0
 12 36  1  0
 13 37  1  0
 13 38  1  0
 13 39  1  0
 14 15  2  0
 14 19  1  0
 15 16  1  0
 15 40  1  0
 16 17  2  0
 16 41  1  0
 17 18  1  0
 17 20  1  0
 18 19  2  0
 18 42  1  0
 19 43  1  0
 20 21  1  0
 20 22  2  0
 23 24  3  0
M  CHG  2  20   1  21  -1
M  END

