43
rmsd13.gzmat
C          0.00000        0.00000        0.00000
C          1.35250        0.00000        0.00000
C          2.11980        0.00000        1.24720
C          1.93390        1.01300        2.19430
C          2.66090        1.02300        3.37290
C          3.60940        0.00900        3.63870
C          3.77360       -1.02260        2.68800
C          3.04400       -1.01510        1.50960
N          4.44430        0.09930        4.75640
C          5.20450       -1.10070        5.13950
C          3.93650        0.84360        5.92080
C          2.15560       -0.00800       -1.26540
C          2.88710        1.32610       -1.42950
C         -0.81330       -0.00470       -1.22500
C         -1.54530       -1.14900       -1.55880
C         -2.31020       -1.17040       -2.71900
C         -2.33600       -0.03520       -3.53460
C         -1.62150        1.11950       -3.20300
C         -0.85620        1.12880       -2.04270
N         -3.12330       -0.05660       -4.75740
O         -3.14500        0.95000       -5.44780
O         -3.72230       -1.08180       -5.04080
C         -0.76010       -0.02300        1.19840
N         -1.39630       -0.04200        2.16580
H          1.20530        1.80410        2.00370
H          2.49220        1.82330        4.08840
H          4.47220       -1.83440        2.86610
H          3.18380       -1.82220        0.78910
H          5.87070       -1.39820        4.30880
H          4.56290       -1.95610        5.40800
H          5.86000       -0.87230        5.99710
H          3.75120        1.89610        5.63800
H          4.69740        0.86440        6.71880
H          3.00730        0.41720        6.33420
H          1.52590       -0.20570       -2.15750
H          2.89240       -0.84020       -1.24210
H          2.18660        2.16230       -1.53220
H          3.52610        1.31870       -2.32010
H          3.53030        1.53880       -0.56450
H         -1.51400       -2.02250       -0.90560
H         -2.88450       -2.06130       -2.99320
H         -1.66710        2.00160       -3.84970
H         -0.29080        2.01880       -1.76570
