43
rmsd109.gzmat
C          0.00000        0.00000        0.00000
C          1.35120        0.00000        0.00000
C          2.11110        0.00000        1.25370
C          2.89420       -1.10060        1.60660
C          3.59610       -1.11330        2.80260
C          3.54400       -0.00450        3.67530
C          2.75620        1.10820        3.30310
C          2.05050        1.10200        2.11120
N          4.33850        0.04810        4.82620
C          4.87690       -1.22270        5.33630
C          3.89790        0.95700        5.89840
C          2.16430        0.00370       -1.25730
C          2.81700        1.37570       -1.44290
C         -0.81930        0.01000       -1.22100
C         -1.54500       -1.13240       -1.57360
C         -2.33290       -1.12930       -2.71860
C         -2.38450        0.02660       -3.50290
C         -1.66740        1.17570       -3.15800
C         -0.88180        1.16180       -2.01130
N         -3.20370        0.03540       -4.70500
O         -3.24740        1.06090       -5.36610
O         -3.80660       -0.98370       -5.00090
C         -0.75120       -0.02650        1.20470
N         -1.37540       -0.04870        2.18000
H          2.94170       -1.96660        0.94510
H          4.18450       -1.99010        3.05540
H          2.69390        1.98080        3.94710
H          1.43620        1.96310        1.84200
H          5.55640       -1.66180        4.58280
H          4.09460       -1.95890        5.58430
H          5.48590       -1.04230        6.23840
H          4.02280        2.00270        5.56140
H          4.52990        0.83650        6.79340
H          2.84640        0.80070        6.19290
H          1.55420       -0.25060       -2.14840
H          2.94940       -0.78200       -1.20590
H          2.06880        2.17010       -1.54060
H          3.44120        1.39630       -2.34350
H          3.46030        1.63020       -0.58930
H         -1.49380       -2.02270       -0.94500
H         -2.90800       -2.01690       -3.00310
H         -1.72750        2.07260       -3.78320
H         -0.31730        2.04900       -1.72350
