rmsd117.gzmat
 OpenBabel08211713373D

 43 44  0  0  0  0  0  0  0  0999 V2000
    0.0000    0.0000    0.0000 C   0  0  0  0  0  0  0  0  0  0  0  0
    1.3519    0.0000    0.0000 C   0  0  0  0  0  0  0  0  0  0  0  0
    2.1253    0.0000    1.2429 C   0  0  0  0  0  0  0  0  0  0  0  0
    1.9408   -1.0115    2.1914 C   0  0  0  0  0  0  0  0  0  0  0  0
    2.6710   -1.0219    3.3683 C   0  0  0  0  0  0  0  0  0  0  0  0
    3.6166   -0.0054    3.6336 C   0  0  0  0  0  0  0  0  0  0  0  0
    3.7882    1.0189    2.6756 C   0  0  0  0  0  0  0  0  0  0  0  0
    3.0575    1.0098    1.4980 C   0  0  0  0  0  0  0  0  0  0  0  0
    4.4407   -0.0796    4.7600 N   0  0  0  0  0  0  0  0  0  0  0  0
    3.9557   -0.8763    5.8989 C   0  0  0  0  0  0  0  0  0  0  0  0
    5.1419    1.1468    5.1710 C   0  0  0  0  0  0  0  0  0  0  0  0
    2.1484   -0.0270   -1.2699 C   0  0  0  0  0  0  0  0  0  0  0  0
    2.6967   -1.4391   -1.4931 C   0  0  0  0  0  0  0  0  0  0  0  0
   -0.8031   -0.0198   -1.2332 C   0  0  0  0  0  0  0  0  0  0  0  0
   -1.3320   -1.2285   -1.6955 C   0  0  0  0  0  0  0  0  0  0  0  0
   -2.0809   -1.2545   -2.8665 C   0  0  0  0  0  0  0  0  0  0  0  0
   -2.2925   -0.0610   -3.5627 C   0  0  0  0  0  0  0  0  0  0  0  0
   -1.7805    1.1555   -3.1016 C   0  0  0  0  0  0  0  0  0  0  0  0
   -1.0322    1.1706   -1.9303 C   0  0  0  0  0  0  0  0  0  0  0  0
   -3.0622   -0.0849   -4.7966 N   0  0  0  0  0  0  0  0  0  0  0  0
   -3.2275    0.9672   -5.3937 O   0  0  0  0  0  0  0  0  0  0  0  0
   -3.5026   -1.1562   -5.1823 O   0  0  0  0  0  0  0  0  0  0  0  0
   -0.7686    0.0177    1.1921 C   0  0  0  0  0  0  0  0  0  0  0  0
   -1.4123    0.0286    2.1547 N   0  0  0  0  0  0  0  0  0  0  0  0
    1.2108   -1.8017    2.0041 H   0  0  0  0  0  0  0  0  0  0  0  0
    2.5046   -1.8231    4.0827 H   0  0  0  0  0  0  0  0  0  0  0  0
    4.4957    1.8240    2.8474 H   0  0  0  0  0  0  0  0  0  0  0  0
    3.2031    1.8104    0.7711 H   0  0  0  0  0  0  0  0  0  0  0  0
    3.9170   -1.9427    5.6086 H   0  0  0  0  0  0  0  0  0  0  0  0
    2.9567   -0.5671    6.2499 H   0  0  0  0  0  0  0  0  0  0  0  0
    4.6591   -0.8066    6.7450 H   0  0  0  0  0  0  0  0  0  0  0  0
    5.8434    1.4527    4.3729 H   0  0  0  0  0  0  0  0  0  0  0  0
    5.7538    0.9540    6.0684 H   0  0  0  0  0  0  0  0  0  0  0  0
    4.4596    1.9850    5.3887 H   0  0  0  0  0  0  0  0  0  0  0  0
    2.9890    0.6974   -1.2162 H   0  0  0  0  0  0  0  0  0  0  0  0
    1.5445    0.2876   -2.1459 H   0  0  0  0  0  0  0  0  0  0  0  0
    3.3380   -1.7540   -0.6588 H   0  0  0  0  0  0  0  0  0  0  0  0
    3.2974   -1.4901   -2.4084 H   0  0  0  0  0  0  0  0  0  0  0  0
    1.8897   -2.1750   -1.5866 H   0  0  0  0  0  0  0  0  0  0  0  0
   -1.1567   -2.1477   -1.1359 H   0  0  0  0  0  0  0  0  0  0  0  0
   -2.5009   -2.1939   -3.2405 H   0  0  0  0  0  0  0  0  0  0  0  0
   -1.9676    2.0803   -3.6571 H   0  0  0  0  0  0  0  0  0  0  0  0
   -0.6281    2.1089   -1.5491 H   0  0  0  0  0  0  0  0  0  0  0  0
  1  2  2  0  0  0  0
  1 23  1  0  0  0  0
  2  3  1  0  0  0  0
  3  8  2  0  0  0  0
  3  4  1  0  0  0  0
  4  5  2  0  0  0  0
  5  6  1  0  0  0  0
  5 26  1  0  0  0  0
  6  9  1  0  0  0  0
  7 27  1  0  0  0  0
  7  6  2  0  0  0  0
  8  7  1  0  0  0  0
  9 11  1  0  0  0  0
  9 10  1  0  0  0  0
 10 30  1  0  0  0  0
 10 31  1  0  0  0  0
 11 34  1  0  0  0  0
 11 33  1  0  0  0  0
 12 35  1  0  0  0  0
 12  2  1  0  0  0  0
 13 12  1  0  0  0  0
 13 37  1  0  0  0  0
 14  1  1  0  0  0  0
 15 14  1  0  0  0  0
 15 40  1  0  0  0  0
 16 15  2  0  0  0  0
 17 18  2  0  0  0  0
 17 16  1  0  0  0  0
 18 19  1  0  0  0  0
 19 43  1  0  0  0  0
 19 14  2  0  0  0  0
 20 17  1  0  0  0  0
 21 20  2  0  0  0  0
 22 20  2  0  0  0  0
 23 24  3  0  0  0  0
 25  4  1  0  0  0  0
 28  8  1  0  0  0  0
 29 10  1  0  0  0  0
 32 11  1  0  0  0  0
 36 12  1  0  0  0  0
 38 13  1  0  0  0  0
 39 13  1  0  0  0  0
 41 16  1  0  0  0  0
 42 18  1  0  0  0  0
M  END
$$$$
