rmsd110.gzmat
 OpenBabel08211713373D

 43 44  0  0  0  0  0  0  0  0999 V2000
    0.0000    0.0000    0.0000 C   0  0  0  0  0  0  0  0  0  0  0  0
    1.3510    0.0000    0.0000 C   0  0  0  0  0  0  0  0  0  0  0  0
    2.1137    0.0000    1.2519 C   0  0  0  0  0  0  0  0  0  0  0  0
    2.9044   -1.0965    1.6009 C   0  0  0  0  0  0  0  0  0  0  0  0
    3.6082   -1.1082    2.7957 C   0  0  0  0  0  0  0  0  0  0  0  0
    3.5490   -0.0031    3.6728 C   0  0  0  0  0  0  0  0  0  0  0  0
    2.7567    1.1071    3.3032 C   0  0  0  0  0  0  0  0  0  0  0  0
    2.0504    1.1003    2.1117 C   0  0  0  0  0  0  0  0  0  0  0  0
    4.3423    0.0478    4.8244 N   0  0  0  0  0  0  0  0  0  0  0  0
    4.8749   -1.2244    5.3372 C   0  0  0  0  0  0  0  0  0  0  0  0
    3.9051    0.9606    5.8945 C   0  0  0  0  0  0  0  0  0  0  0  0
    2.1612    0.0106   -1.2591 C   0  0  0  0  0  0  0  0  0  0  0  0
    2.7811    1.3966   -1.4539 C   0  0  0  0  0  0  0  0  0  0  0  0
   -0.8163    0.0158   -1.2234 C   0  0  0  0  0  0  0  0  0  0  0  0
   -1.4820   -1.1461   -1.6261 C   0  0  0  0  0  0  0  0  0  0  0  0
   -2.2604   -1.1366   -2.7778 C   0  0  0  0  0  0  0  0  0  0  0  0
   -2.3634    0.0455   -3.5166 C   0  0  0  0  0  0  0  0  0  0  0  0
   -1.7092    1.2150   -3.1196 C   0  0  0  0  0  0  0  0  0  0  0  0
   -0.9316    1.1943   -1.9675 C   0  0  0  0  0  0  0  0  0  0  0  0
   -3.1721    0.0587   -4.7258 N   0  0  0  0  0  0  0  0  0  0  0  0
   -3.2418    1.0978   -5.3628 O   0  0  0  0  0  0  0  0  0  0  0  0
   -3.7402   -0.9713   -5.0514 O   0  0  0  0  0  0  0  0  0  0  0  0
   -0.7529   -0.0271    1.2032 C   0  0  0  0  0  0  0  0  0  0  0  0
   -1.3773   -0.0494    2.1782 N   0  0  0  0  0  0  0  0  0  0  0  0
    2.9576   -1.9607    0.9376 H   0  0  0  0  0  0  0  0  0  0  0  0
    4.2052   -1.9802    3.0437 H   0  0  0  0  0  0  0  0  0  0  0  0
    2.6923    1.9797    3.9464 H   0  0  0  0  0  0  0  0  0  0  0  0
    1.4350    1.9611    1.8447 H   0  0  0  0  0  0  0  0  0  0  0  0
    5.5617   -1.6630    4.5903 H   0  0  0  0  0  0  0  0  0  0  0  0
    4.0903   -1.9613    5.5758 H   0  0  0  0  0  0  0  0  0  0  0  0
    5.4736   -1.0465    6.2466 H   0  0  0  0  0  0  0  0  0  0  0  0
    4.0221    2.0052    5.5507 H   0  0  0  0  0  0  0  0  0  0  0  0
    4.5464    0.8487    6.7843 H   0  0  0  0  0  0  0  0  0  0  0  0
    2.8570    0.8004    6.1995 H   0  0  0  0  0  0  0  0  0  0  0  0
    1.5549   -0.2627   -2.1473 H   0  0  0  0  0  0  0  0  0  0  0  0
    2.9638   -0.7567   -1.2030 H   0  0  0  0  0  0  0  0  0  0  0  0
    2.0127    2.1707   -1.5608 H   0  0  0  0  0  0  0  0  0  0  0  0
    3.4085    1.4248   -2.3521 H   0  0  0  0  0  0  0  0  0  0  0  0
    3.4140    1.6744   -0.5998 H   0  0  0  0  0  0  0  0  0  0  0  0
   -1.3923   -2.0568   -1.0325 H   0  0  0  0  0  0  0  0  0  0  0  0
   -2.7887   -2.0392   -3.1028 H   0  0  0  0  0  0  0  0  0  0  0  0
   -1.8116    2.1322   -3.7079 H   0  0  0  0  0  0  0  0  0  0  0  0
   -0.4154    2.0962   -1.6384 H   0  0  0  0  0  0  0  0  0  0  0  0
  1  2  2  0  0  0  0
  1 23  1  0  0  0  0
  2  3  1  0  0  0  0
  3  4  2  0  0  0  0
  3  8  1  0  0  0  0
  4  5  1  0  0  0  0
  5 26  1  0  0  0  0
  5  6  2  0  0  0  0
  6  9  1  0  0  0  0
  7  6  1  0  0  0  0
  7 27  1  0  0  0  0
  8  7  2  0  0  0  0
  9 10  1  0  0  0  0
  9 11  1  0  0  0  0
 10 30  1  0  0  0  0
 10 31  1  0  0  0  0
 11 34  1  0  0  0  0
 11 33  1  0  0  0  0
 12 36  1  0  0  0  0
 12  2  1  0  0  0  0
 13 12  1  0  0  0  0
 13 39  1  0  0  0  0
 14  1  1  0  0  0  0
 15 14  1  0  0  0  0
 15 40  1  0  0  0  0
 16 15  2  0  0  0  0
 17 18  2  0  0  0  0
 17 16  1  0  0  0  0
 18 19  1  0  0  0  0
 19 43  1  0  0  0  0
 19 14  2  0  0  0  0
 20 17  1  0  0  0  0
 21 20  2  0  0  0  0
 22 20  2  0  0  0  0
 23 24  3  0  0  0  0
 25  4  1  0  0  0  0
 28  8  1  0  0  0  0
 29 10  1  0  0  0  0
 32 11  1  0  0  0  0
 35 12  1  0  0  0  0
 37 13  1  0  0  0  0
 38 13  1  0  0  0  0
 41 16  1  0  0  0  0
 42 18  1  0  0  0  0
M  END
$$$$
