43
rmsd173.gzmat
O          0.00000        0.00000        0.00000
C          1.21400        0.00000        0.00000
N          2.00110        0.00000        1.13930
C          1.50840        0.00870        2.51320
C          1.95280       -1.25750        3.26160
C          1.99550        1.26830        3.24760
C          3.43400       -0.08280        0.79150
C          3.41870       -0.08400       -0.72900
C          2.14570       -0.02060       -1.17250
C          1.62520        0.03080       -2.54850
C          1.13720       -1.34550       -2.99440
O          1.71850       -1.98060       -3.84520
N         -0.02870       -1.76500       -2.37310
C         -0.70130       -2.98210       -2.61670
C         -0.23870       -3.95170       -3.51540
C         -0.98280       -5.11160       -3.71140
C         -2.17780       -5.31740       -3.02550
C         -2.63080       -4.35470       -2.12350
C         -1.90310       -3.19080       -1.91220
C          4.67540       -0.16720       -1.50210
C          4.79330       -1.54480       -2.16190
H          0.37960        0.02700        2.45240
H          3.03850       -1.30640        3.38460
H          1.63590       -2.16340        2.72880
H          1.50740       -1.29130        4.26220
H          3.07970        1.26680        3.39500
H          1.52590        1.34650        4.23440
H          1.73760        2.17590        2.68780
H          3.88980       -1.01200        1.19710
H          3.99410        0.78350        1.20140
H          2.40680        0.37170       -3.26710
H          0.79880        0.77510       -2.63520
H         -0.39510       -1.18470       -1.60390
H          0.69410       -3.80920       -4.06420
H         -0.62340       -5.86470       -4.41180
H         -2.75440       -6.22240       -3.19200
H         -3.56200       -4.51490       -1.58190
H         -2.26360       -2.44250       -1.20950
H          5.56240        0.02330       -0.86380
H          4.70250        0.62440       -2.28470
H          4.80300       -2.35130       -1.42090
H          5.70930       -1.62480       -2.75620
H          3.94730       -1.74120       -2.84200
