43

O         -0.00620        0.04750       -0.25860
C          1.22030        0.13670       -0.20450
N          1.96840        0.26030        0.93420
C          1.38980        0.19630        2.27180
C          1.52470       -1.20820        2.87010
C          1.97330        1.27910        3.17950
C          3.38440        0.22710        0.63390
C          3.43290        0.11840       -0.86980
C          2.17200        0.08750       -1.34880
C          1.68760       -0.06860       -2.75600
C          1.29730       -1.52960       -3.03950
O          1.95070       -2.23140       -3.79440
N          0.20190       -1.93130       -2.32870
C         -0.34930       -3.21800       -2.21870
C          0.04150       -4.30070       -3.02530
C         -0.56470       -5.54570       -2.84230
C         -1.55310       -5.73480       -1.87310
C         -1.93760       -4.65520       -1.07130
C         -1.34160       -3.40700       -1.23870
C          4.71770       -0.00760       -1.62940
C          5.04180       -1.46810       -1.98930
H          0.32000        0.39990        2.11180
H          2.58180       -1.47760        3.03060
H          1.07280       -1.95780        2.20330
H          1.01540       -1.26350        3.84470
H          3.04270        1.10400        3.38310
H          1.45120        1.28580        4.14820
H          1.86640        2.27510        2.72350
H          3.88550       -0.63720        1.11000
H          3.90750        1.13570        0.98540
H          2.46380        0.19960       -3.48230
H          0.80970        0.57980       -2.91220
H         -0.18380       -1.23180       -1.68600
H          0.81440       -4.15150       -3.77500
H         -0.25510       -6.38200       -3.47440
H         -2.02010       -6.71350       -1.74260
H         -2.70730       -4.78470       -0.30640
H         -1.63210       -2.56340       -0.60670
H          5.54080        0.42640       -1.03700
H          4.65200        0.58580       -2.55670
H          5.10360       -2.09480       -1.08530
H          6.00830       -1.53340       -2.51290
H          4.26370       -1.89040       -2.64290
