rmsd102.gzmat
 OpenBabel08211713383D

 43 44  0  0  0  0  0  0  0  0999 V2000
    0.0000    0.0000    0.0000 O   0  0  0  0  0  0  0  0  0  0  0  0
    1.2139    0.0000    0.0000 C   0  0  0  0  0  0  0  0  0  0  0  0
    1.9991    0.0000    1.1408 N   0  0  0  0  0  0  0  0  0  0  0  0
    1.4977    0.0021    2.5117 C   0  0  0  0  0  0  0  0  0  0  0  0
    1.9802   -1.2417    3.2736 C   0  0  0  0  0  0  0  0  0  0  0  0
    1.9328    1.2851    3.2378 C   0  0  0  0  0  0  0  0  0  0  0  0
    3.4321   -0.0916    0.7958 C   0  0  0  0  0  0  0  0  0  0  0  0
    3.4184   -0.1017   -0.7249 C   0  0  0  0  0  0  0  0  0  0  0  0
    2.1468   -0.0277   -1.1707 C   0  0  0  0  0  0  0  0  0  0  0  0
    1.6316    0.0202   -2.5490 C   0  0  0  0  0  0  0  0  0  0  0  0
    1.1485   -1.3600   -2.9847 C   0  0  0  0  0  0  0  0  0  0  0  0
    1.7416   -2.0117   -3.8146 O   0  0  0  0  0  0  0  0  0  0  0  0
   -0.0232   -1.7750   -2.3697 N   0  0  0  0  0  0  0  0  0  0  0  0
   -0.6429   -3.0282   -2.5713 C   0  0  0  0  0  0  0  0  0  0  0  0
   -1.5999   -3.4281   -1.6202 C   0  0  0  0  0  0  0  0  0  0  0  0
   -2.2641   -4.6373   -1.7823 C   0  0  0  0  0  0  0  0  0  0  0  0
   -1.9864   -5.4550   -2.8774 C   0  0  0  0  0  0  0  0  0  0  0  0
   -1.0378   -5.0546   -3.8158 C   0  0  0  0  0  0  0  0  0  0  0  0
   -0.3619   -3.8465   -3.6731 C   0  0  0  0  0  0  0  0  0  0  0  0
    4.6717   -0.2146   -1.4994 C   0  0  0  0  0  0  0  0  0  0  0  0
    4.8221   -1.6439   -2.0318 C   0  0  0  0  0  0  0  0  0  0  0  0
    0.3693   -0.0191    2.4427 H   0  0  0  0  0  0  0  0  0  0  0  0
    3.0636   -1.2396    3.4251 H   0  0  0  0  0  0  0  0  0  0  0  0
    1.7185   -2.1616    2.7353 H   0  0  0  0  0  0  0  0  0  0  0  0
    1.5098   -1.2949    4.2621 H   0  0  0  0  0  0  0  0  0  0  0  0
    3.0162    1.3317    3.3811 H   0  0  0  0  0  0  0  0  0  0  0  0
    1.4636    1.3495    4.2257 H   0  0  0  0  0  0  0  0  0  0  0  0
    1.6342    2.1769    2.6723 H   0  0  0  0  0  0  0  0  0  0  0  0
    3.8831   -1.0205    1.2069 H   0  0  0  0  0  0  0  0  0  0  0  0
    3.9953    0.7743    1.2016 H   0  0  0  0  0  0  0  0  0  0  0  0
    2.4172    0.3562   -3.2653 H   0  0  0  0  0  0  0  0  0  0  0  0
    0.8058    0.7640   -2.6415 H   0  0  0  0  0  0  0  0  0  0  0  0
   -0.3857   -1.2010   -1.5950 H   0  0  0  0  0  0  0  0  0  0  0  0
   -1.8184   -2.7965   -0.7619 H   0  0  0  0  0  0  0  0  0  0  0  0
   -3.0049   -4.9486   -1.0475 H   0  0  0  0  0  0  0  0  0  0  0  0
   -2.5082   -6.3996   -2.9979 H   0  0  0  0  0  0  0  0  0  0  0  0
   -0.8194   -5.6917   -4.6720 H   0  0  0  0  0  0  0  0  0  0  0  0
    0.3800   -3.5486   -4.4161 H   0  0  0  0  0  0  0  0  0  0  0  0
    5.5571    0.0583   -0.8903 H   0  0  0  0  0  0  0  0  0  0  0  0
    4.6698    0.5011   -2.3521 H   0  0  0  0  0  0  0  0  0  0  0  0
    4.8393   -2.3808   -1.2218 H   0  0  0  0  0  0  0  0  0  0  0  0
    5.7457   -1.7582   -2.6089 H   0  0  0  0  0  0  0  0  0  0  0  0
    3.9870   -1.9142   -2.6998 H   0  0  0  0  0  0  0  0  0  0  0  0
  1  2  2  0  0  0  0
  2  3  1  0  0  0  0
  3  4  1  0  0  0  0
  4  6  1  0  0  0  0
  4  5  1  0  0  0  0
  5 23  1  0  0  0  0
  5 25  1  0  0  0  0
  6 26  1  0  0  0  0
  6 27  1  0  0  0  0
  7  3  1  0  0  0  0
  7 30  1  0  0  0  0
  7 29  1  0  0  0  0
  8  7  1  0  0  0  0
  9  8  2  0  0  0  0
  9  2  1  0  0  0  0
 10  9  1  0  0  0  0
 11 10  1  0  0  0  0
 11 13  1  0  0  0  0
 12 11  2  0  0  0  0
 13 33  1  0  0  0  0
 14 13  1  0  0  0  0
 14 15  2  0  0  0  0
 15 34  1  0  0  0  0
 16 15  1  0  0  0  0
 16 35  1  0  0  0  0
 17 16  2  0  0  0  0
 18 19  2  0  0  0  0
 18 17  1  0  0  0  0
 19 14  1  0  0  0  0
 20 39  1  0  0  0  0
 20  8  1  0  0  0  0
 21 20  1  0  0  0  0
 21 41  1  0  0  0  0
 22  4  1  0  0  0  0
 24  5  1  0  0  0  0
 28  6  1  0  0  0  0
 31 10  1  0  0  0  0
 32 10  1  0  0  0  0
 36 17  1  0  0  0  0
 37 18  1  0  0  0  0
 38 19  1  0  0  0  0
 40 20  1  0  0  0  0
 42 21  1  0  0  0  0
 43 21  1  0  0  0  0
M  END
$$$$
