43
rmsd214.gzmat
O          0.00000        0.00000        0.00000
C          1.21360        0.00000        0.00000
N          1.99860        0.00000        1.14340
C          1.50270       -0.24840        2.49460
C          1.73150       -1.71210        2.90680
C          2.17500        0.70490        3.49320
C          3.43430        0.01620        0.79420
C          3.41830        0.09020       -0.72470
C          2.14480        0.06180       -1.16990
C          1.62430        0.07620       -2.54650
C          1.15050        1.47590       -2.92760
O          1.74810        2.15470       -3.73180
N         -0.02480        1.86830       -2.30460
C         -0.67430        3.10710       -2.49780
C         -1.68390        3.44930       -1.57850
C         -2.38640        4.63650       -1.74160
C         -2.09820        5.48820       -2.80750
C         -1.09690        5.14580       -3.71380
C         -0.38010        3.96190       -3.56810
C          4.67190        0.21560       -1.49720
C          4.85890        1.67080       -1.94160
H          0.39140       -0.04170        2.46930
H          2.79430       -1.95800        2.98490
H          1.28310       -2.40070        2.18000
H          1.27060       -1.91760        3.87950
H          3.23910        0.48560        3.62190
H          1.70270        0.62780        4.47920
H          2.08390        1.74870        3.16570
H          3.95490       -0.89180        1.16220
H          3.93230        0.90430        1.24150
H          0.79030       -0.65540       -2.66530
H          2.40290       -0.23860       -3.27980
H         -0.38800        1.27020       -1.54850
H         -1.91410        2.78960       -0.74440
H         -3.16770        4.90310       -1.03170
H         -2.65190        6.41410       -2.93040
H         -0.87050        5.80830       -4.54840
H          0.40130        3.71030       -4.28720
H          4.64710       -0.44510       -2.39320
H          5.55100       -0.11880       -0.90980
H          4.04580        1.99150       -2.61470
H          5.80030        1.80320       -2.48490
H          4.86350        2.36010       -1.09050
