rmsd214.gzmat
 OpenBabel08211713383D

 43 44  0  0  0  0  0  0  0  0999 V2000
    0.0000    0.0000    0.0000 O   0  0  0  0  0  0  0  0  0  0  0  0
    1.2136    0.0000    0.0000 C   0  0  0  0  0  0  0  0  0  0  0  0
    1.9986    0.0000    1.1434 N   0  0  0  0  0  0  0  0  0  0  0  0
    1.5027   -0.2484    2.4946 C   0  0  0  0  0  0  0  0  0  0  0  0
    1.7315   -1.7121    2.9068 C   0  0  0  0  0  0  0  0  0  0  0  0
    2.1750    0.7049    3.4932 C   0  0  0  0  0  0  0  0  0  0  0  0
    3.4343    0.0162    0.7942 C   0  0  0  0  0  0  0  0  0  0  0  0
    3.4183    0.0902   -0.7247 C   0  0  0  0  0  0  0  0  0  0  0  0
    2.1448    0.0618   -1.1699 C   0  0  0  0  0  0  0  0  0  0  0  0
    1.6243    0.0762   -2.5465 C   0  0  0  0  0  0  0  0  0  0  0  0
    1.1505    1.4759   -2.9276 C   0  0  0  0  0  0  0  0  0  0  0  0
    1.7481    2.1547   -3.7318 O   0  0  0  0  0  0  0  0  0  0  0  0
   -0.0248    1.8683   -2.3046 N   0  0  0  0  0  0  0  0  0  0  0  0
   -0.6743    3.1071   -2.4978 C   0  0  0  0  0  0  0  0  0  0  0  0
   -1.6839    3.4493   -1.5785 C   0  0  0  0  0  0  0  0  0  0  0  0
   -2.3864    4.6365   -1.7416 C   0  0  0  0  0  0  0  0  0  0  0  0
   -2.0982    5.4882   -2.8075 C   0  0  0  0  0  0  0  0  0  0  0  0
   -1.0969    5.1458   -3.7138 C   0  0  0  0  0  0  0  0  0  0  0  0
   -0.3801    3.9619   -3.5681 C   0  0  0  0  0  0  0  0  0  0  0  0
    4.6719    0.2156   -1.4972 C   0  0  0  0  0  0  0  0  0  0  0  0
    4.8589    1.6708   -1.9416 C   0  0  0  0  0  0  0  0  0  0  0  0
    0.3914   -0.0417    2.4693 H   0  0  0  0  0  0  0  0  0  0  0  0
    2.7943   -1.9580    2.9849 H   0  0  0  0  0  0  0  0  0  0  0  0
    1.2831   -2.4007    2.1800 H   0  0  0  0  0  0  0  0  0  0  0  0
    1.2706   -1.9176    3.8795 H   0  0  0  0  0  0  0  0  0  0  0  0
    3.2391    0.4856    3.6219 H   0  0  0  0  0  0  0  0  0  0  0  0
    1.7027    0.6278    4.4792 H   0  0  0  0  0  0  0  0  0  0  0  0
    2.0839    1.7487    3.1657 H   0  0  0  0  0  0  0  0  0  0  0  0
    3.9549   -0.8918    1.1622 H   0  0  0  0  0  0  0  0  0  0  0  0
    3.9323    0.9043    1.2415 H   0  0  0  0  0  0  0  0  0  0  0  0
    0.7903   -0.6554   -2.6653 H   0  0  0  0  0  0  0  0  0  0  0  0
    2.4029   -0.2386   -3.2798 H   0  0  0  0  0  0  0  0  0  0  0  0
   -0.3880    1.2702   -1.5485 H   0  0  0  0  0  0  0  0  0  0  0  0
   -1.9141    2.7896   -0.7444 H   0  0  0  0  0  0  0  0  0  0  0  0
   -3.1677    4.9031   -1.0317 H   0  0  0  0  0  0  0  0  0  0  0  0
   -2.6519    6.4141   -2.9304 H   0  0  0  0  0  0  0  0  0  0  0  0
   -0.8705    5.8083   -4.5484 H   0  0  0  0  0  0  0  0  0  0  0  0
    0.4013    3.7103   -4.2872 H   0  0  0  0  0  0  0  0  0  0  0  0
    4.6471   -0.4451   -2.3932 H   0  0  0  0  0  0  0  0  0  0  0  0
    5.5510   -0.1188   -0.9098 H   0  0  0  0  0  0  0  0  0  0  0  0
    4.0458    1.9915   -2.6147 H   0  0  0  0  0  0  0  0  0  0  0  0
    5.8003    1.8032   -2.4849 H   0  0  0  0  0  0  0  0  0  0  0  0
    4.8635    2.3601   -1.0905 H   0  0  0  0  0  0  0  0  0  0  0  0
  1  2  2  0  0  0  0
  2  3  1  0  0  0  0
  3  4  1  0  0  0  0
  4  5  1  0  0  0  0
  4  6  1  0  0  0  0
  5 23  1  0  0  0  0
  5 25  1  0  0  0  0
  6 26  1  0  0  0  0
  6 27  1  0  0  0  0
  7  3  1  0  0  0  0
  7 29  1  0  0  0  0
  7 30  1  0  0  0  0
  8  7  1  0  0  0  0
  9  8  2  0  0  0  0
  9  2  1  0  0  0  0
 10  9  1  0  0  0  0
 11 10  1  0  0  0  0
 11 13  1  0  0  0  0
 12 11  2  0  0  0  0
 13 33  1  0  0  0  0
 14 13  1  0  0  0  0
 14 15  2  0  0  0  0
 15 34  1  0  0  0  0
 16 15  1  0  0  0  0
 16 35  1  0  0  0  0
 17 16  2  0  0  0  0
 18 19  2  0  0  0  0
 18 17  1  0  0  0  0
 19 14  1  0  0  0  0
 20 40  1  0  0  0  0
 20  8  1  0  0  0  0
 21 20  1  0  0  0  0
 21 43  1  0  0  0  0
 22  4  1  0  0  0  0
 24  5  1  0  0  0  0
 28  6  1  0  0  0  0
 31 10  1  0  0  0  0
 32 10  1  0  0  0  0
 36 17  1  0  0  0  0
 37 18  1  0  0  0  0
 38 19  1  0  0  0  0
 39 20  1  0  0  0  0
 41 21  1  0  0  0  0
 42 21  1  0  0  0  0
M  END
$$$$
