43
rmsd206.gzmat
O          0.00000        0.00000        0.00000
C          1.21340        0.00000        0.00000
N          1.99910        0.00000        1.14450
C          1.50150       -0.28600        2.48790
C          1.68160       -1.77140        2.84280
C          2.20650        0.60770        3.51780
C          3.43450       -0.01280        0.79240
C          3.41820        0.06620       -0.72610
C          2.14400        0.05990       -1.17030
C          1.62310        0.08860       -2.54630
C          1.13520        1.48720       -2.91570
O          1.72930        2.17420       -3.71550
N         -0.04740        1.86320       -2.29730
C         -0.72560        3.08550       -2.49570
C         -0.33000        4.03940       -3.44200
C         -1.08170        5.20020       -3.59930
C         -2.22010        5.42260       -2.82800
C         -2.60750        4.47470       -1.88090
C         -1.86990        3.31090       -1.70640
C          4.67300        0.17470       -1.49920
C          4.84250        1.61130       -2.00570
H          0.39720       -0.04300        2.47540
H          2.73520       -2.05560        2.91630
H          1.21480       -2.41560        2.08650
H          1.20650       -1.99990        3.80370
H          3.26980        0.36910        3.61460
H          1.75190        0.48820        4.50800
H          2.12290        1.66710        3.24220
H          3.93900       -0.93070        1.15780
H          3.94960        0.86500        1.24090
H          0.79710       -0.65010       -2.67460
H          2.40550       -0.20950       -3.28300
H         -0.41310        1.25050       -1.55350
H          0.55660        3.88500       -4.05870
H         -0.77230        5.94070       -4.33550
H         -2.80300        6.32860       -2.96310
H         -3.49620        4.64640       -1.27560
H         -2.17850        2.57800       -0.96380
H          4.66100       -0.52570       -2.36440
H          5.55510       -0.12120       -0.89570
H          4.01120        1.90440       -2.66910
H          5.76900        1.72590       -2.57730
H          4.86600        2.33280       -1.18180
