
     RDKit          3D

 43 44  0  0  0  0  0  0  0  0999 V2000
   -0.0098    0.0917   -0.0511 O   0  0  0  0  0  0  0  0  0  0  0  0
    1.2206    0.0826   -0.0162 C   0  0  0  0  0  0  0  0  0  0  0  0
    1.9944    0.2135    1.1044 N   0  0  0  0  0  0  0  0  0  0  0  0
    1.4360    0.4945    2.4225 C   0  0  0  0  0  0  0  0  0  0  0  0
    2.1057   -0.3579    3.5003 C   0  0  0  0  0  0  0  0  0  0  0  0
    1.4878    1.9928    2.7410 C   0  0  0  0  0  0  0  0  0  0  0  0
    3.4004    0.2699    0.7632 C   0  0  0  0  0  0  0  0  0  0  0  0
    3.4161    0.1012   -0.7357 C   0  0  0  0  0  0  0  0  0  0  0  0
    2.1476   -0.0277   -1.1764 C   0  0  0  0  0  0  0  0  0  0  0  0
    1.6306   -0.1634   -2.5741 C   0  0  0  0  0  0  0  0  0  0  0  0
    1.1463    1.1943   -3.1117 C   0  0  0  0  0  0  0  0  0  0  0  0
    1.7422    1.7793   -4.0016 O   0  0  0  0  0  0  0  0  0  0  0  0
    0.0405    1.6580   -2.4570 N   0  0  0  0  0  0  0  0  0  0  0  0
   -0.5879    2.9084   -2.5721 C   0  0  0  0  0  0  0  0  0  0  0  0
   -1.5752    3.2179   -1.6181 C   0  0  0  0  0  0  0  0  0  0  0  0
   -2.2452    4.4385   -1.6685 C   0  0  0  0  0  0  0  0  0  0  0  0
   -1.9409    5.3708   -2.6656 C   0  0  0  0  0  0  0  0  0  0  0  0
   -0.9573    5.0629   -3.6089 C   0  0  0  0  0  0  0  0  0  0  0  0
   -0.2775    3.8432   -3.5747 C   0  0  0  0  0  0  0  0  0  0  0  0
    4.6776    0.1561   -1.5414 C   0  0  0  0  0  0  0  0  0  0  0  0
    4.9050    1.5394   -2.1757 C   0  0  0  0  0  0  0  0  0  0  0  0
    0.3794    0.1986    2.3357 H   0  0  0  0  0  0  0  0  0  0  0  0
    3.1645   -0.0813    3.6355 H   0  0  0  0  0  0  0  0  0  0  0  0
    2.0574   -1.4270    3.2436 H   0  0  0  0  0  0  0  0  0  0  0  0
    1.6021   -0.2126    4.4679 H   0  0  0  0  0  0  0  0  0  0  0  0
    2.5273    2.3527    2.8159 H   0  0  0  0  0  0  0  0  0  0  0  0
    0.9932    2.2007    3.7025 H   0  0  0  0  0  0  0  0  0  0  0  0
    0.9751    2.5723    1.9586 H   0  0  0  0  0  0  0  0  0  0  0  0
    3.9831   -0.5276    1.2605 H   0  0  0  0  0  0  0  0  0  0  0  0
    3.8568    1.2338    1.0585 H   0  0  0  0  0  0  0  0  0  0  0  0
    0.7917   -0.8788   -2.5833 H   0  0  0  0  0  0  0  0  0  0  0  0
    2.4095   -0.5170   -3.2599 H   0  0  0  0  0  0  0  0  0  0  0  0
   -0.2905    1.0696   -1.6854 H   0  0  0  0  0  0  0  0  0  0  0  0
   -1.8033    2.4909   -0.8340 H   0  0  0  0  0  0  0  0  0  0  0  0
   -3.0100    4.6627   -0.9206 H   0  0  0  0  0  0  0  0  0  0  0  0
   -2.4660    6.3277   -2.7058 H   0  0  0  0  0  0  0  0  0  0  0  0
   -0.7100    5.7837   -4.3925 H   0  0  0  0  0  0  0  0  0  0  0  0
    0.4917    3.6027   -4.3042 H   0  0  0  0  0  0  0  0  0  0  0  0
    4.6328   -0.6033   -2.3400 H   0  0  0  0  0  0  0  0  0  0  0  0
    5.5358   -0.1114   -0.9021 H   0  0  0  0  0  0  0  0  0  0  0  0
    4.0912    1.7866   -2.8740 H   0  0  0  0  0  0  0  0  0  0  0  0
    5.8565    1.5607   -2.7296 H   0  0  0  0  0  0  0  0  0  0  0  0
    4.9437    2.3268   -1.4061 H   0  0  0  0  0  0  0  0  0  0  0  0
  1  2  2  0
  2  3  1  0
  2  9  1  0
  3  4  1  0
  3  7  1  0
  4  5  1  0
  4  6  1  0
  4 22  1  0
  5 23  1  0
  5 24  1  0
  5 25  1  0
  6 26  1  0
  6 27  1  0
  6 28  1  0
  7  8  1  0
  7 29  1  0
  7 30  1  0
  8  9  2  0
  8 20  1  0
  9 10  1  0
 10 11  1  0
 10 31  1  0
 10 32  1  0
 11 12  2  0
 11 13  1  0
 13 14  1  0
 13 33  1  0
 14 15  2  0
 14 19  1  0
 15 16  1  0
 15 34  1  0
 16 17  2  0
 16 35  1  0
 17 18  1  0
 17 36  1  0
 18 19  2  0
 18 37  1  0
 19 38  1  0
 20 21  1  0
 20 39  1  0
 20 40  1  0
 21 41  1  0
 21 42  1  0
 21 43  1  0
M  END

