43
rmsd62.gzmat
O          0.00000        0.00000        0.00000
C          1.21260        0.00000        0.00000
N          1.99930        0.00000        1.15240
C          1.48030        0.42040        2.45650
C          2.30030       -0.22780        3.57930
C          1.48010        1.95170        2.59390
C          3.42420        0.17630        0.78860
C          3.41050        0.12240       -0.73020
C          2.14250       -0.00800       -1.17240
C          1.62720       -0.11550       -2.54720
C          1.13030        1.24100       -3.03970
O          1.70460        1.85510       -3.91010
N         -0.03160        1.68170       -2.42340
C         -0.67010        2.91520       -2.67910
C         -0.41720        3.67910       -3.82580
C         -1.11480        4.86740       -4.02140
C         -2.05550        5.30300       -3.09030
C         -2.30460        4.53970       -1.95010
C         -1.62110        3.34910       -1.73700
C          4.66320        0.23880       -1.50510
C          4.78420        1.65890       -2.06830
H          0.41560        0.04550        2.50630
H          3.32680        0.14970        3.61490
H          2.35060       -1.31690        3.45190
H          1.84310       -0.03060        4.55570
H          2.48870        2.37180        2.55080
H          1.03470        2.25680        3.54690
H          0.89010        2.41830        1.79380
H          4.02820       -0.64880        1.22400
H          3.83460        1.13680        1.16380
H          0.80760       -0.86940       -2.60940
H          2.41440       -0.47460       -3.25040
H         -0.38580        1.13640       -1.62520
H          0.31680        3.35270       -4.56410
H         -0.92270        5.45950       -4.91510
H         -2.59480        6.23160       -3.25240
H         -3.04020        4.87750       -1.22230
H         -1.82220        2.75640       -0.84750
H          4.67980       -0.49620       -2.34060
H          5.55170       -0.00220       -0.88660
H          3.95580        1.88800       -2.75990
H          5.71650        1.78640       -2.62820
H          4.76370        2.41500       -1.27660
