rmsd248.gzmat
 OpenBabel08211713383D

 43 44  0  0  0  0  0  0  0  0999 V2000
    0.0000    0.0000    0.0000 O   0  0  0  0  0  0  0  0  0  0  0  0
    1.2125    0.0000    0.0000 C   0  0  0  0  0  0  0  0  0  0  0  0
    1.9994    0.0000    1.1522 N   0  0  0  0  0  0  0  0  0  0  0  0
    1.4765    0.4189    2.4553 C   0  0  0  0  0  0  0  0  0  0  0  0
    2.2942   -0.2294    3.5797 C   0  0  0  0  0  0  0  0  0  0  0  0
    1.4716    1.9500    2.5953 C   0  0  0  0  0  0  0  0  0  0  0  0
    3.4237    0.1807    0.7880 C   0  0  0  0  0  0  0  0  0  0  0  0
    3.4094    0.1218   -0.7309 C   0  0  0  0  0  0  0  0  0  0  0  0
    2.1408   -0.0061   -1.1725 C   0  0  0  0  0  0  0  0  0  0  0  0
    1.6218   -0.0958   -2.5475 C   0  0  0  0  0  0  0  0  0  0  0  0
    1.1511    1.2780   -3.0180 C   0  0  0  0  0  0  0  0  0  0  0  0
    1.7394    1.8963   -3.8758 O   0  0  0  0  0  0  0  0  0  0  0  0
    0.0011    1.7330   -2.3896 N   0  0  0  0  0  0  0  0  0  0  0  0
   -0.5931    2.9974   -2.5947 C   0  0  0  0  0  0  0  0  0  0  0  0
   -0.2879    3.8138   -3.6914 C   0  0  0  0  0  0  0  0  0  0  0  0
   -0.9353    5.0377   -3.8321 C   0  0  0  0  0  0  0  0  0  0  0  0
   -1.8812    5.4549   -2.8982 C   0  0  0  0  0  0  0  0  0  0  0  0
   -2.1835    4.6391   -1.8081 C   0  0  0  0  0  0  0  0  0  0  0  0
   -1.5481    3.4142   -1.6481 C   0  0  0  0  0  0  0  0  0  0  0  0
    4.6604    0.2361   -1.5087 C   0  0  0  0  0  0  0  0  0  0  0  0
    4.7849    1.6576   -2.0682 C   0  0  0  0  0  0  0  0  0  0  0  0
    0.4123    0.0418    2.5010 H   0  0  0  0  0  0  0  0  0  0  0  0
    3.3118    0.1691    3.6345 H   0  0  0  0  0  0  0  0  0  0  0  0
    2.3681   -1.3153    3.4392 H   0  0  0  0  0  0  0  0  0  0  0  0
    1.8188   -0.0559    4.5521 H   0  0  0  0  0  0  0  0  0  0  0  0
    2.4790    2.3736    2.5566 H   0  0  0  0  0  0  0  0  0  0  0  0
    1.0223    2.2517    3.5479 H   0  0  0  0  0  0  0  0  0  0  0  0
    0.8829    2.4172    1.7947 H   0  0  0  0  0  0  0  0  0  0  0  0
    4.0314   -0.6384    1.2286 H   0  0  0  0  0  0  0  0  0  0  0  0
    3.8290    1.1456    1.1581 H   0  0  0  0  0  0  0  0  0  0  0  0
    0.7895   -0.8342   -2.6168 H   0  0  0  0  0  0  0  0  0  0  0  0
    2.4019   -0.4597   -3.2557 H   0  0  0  0  0  0  0  0  0  0  0  0
   -0.3714    1.1716   -1.6111 H   0  0  0  0  0  0  0  0  0  0  0  0
    0.4478    3.5007   -4.4341 H   0  0  0  0  0  0  0  0  0  0  0  0
   -0.6980    5.6731   -4.6845 H   0  0  0  0  0  0  0  0  0  0  0  0
   -2.3814    6.4112   -3.0182 H   0  0  0  0  0  0  0  0  0  0  0  0
   -2.9231    4.9626   -1.0775 H   0  0  0  0  0  0  0  0  0  0  0  0
   -1.7902    2.7814   -0.7973 H   0  0  0  0  0  0  0  0  0  0  0  0
    4.6711   -0.4957   -2.3477 H   0  0  0  0  0  0  0  0  0  0  0  0
    5.5501   -0.0111   -0.8942 H   0  0  0  0  0  0  0  0  0  0  0  0
    3.9715    1.8813   -2.7787 H   0  0  0  0  0  0  0  0  0  0  0  0
    5.7287    1.7921   -2.6067 H   0  0  0  0  0  0  0  0  0  0  0  0
    4.7409    2.4134   -1.2774 H   0  0  0  0  0  0  0  0  0  0  0  0
  1  2  2  0  0  0  0
  2  3  1  0  0  0  0
  3  4  1  0  0  0  0
  4 22  1  0  0  0  0
  4  6  1  0  0  0  0
  4  5  1  0  0  0  0
  5 23  1  0  0  0  0
  5 25  1  0  0  0  0
  6 27  1  0  0  0  0
  7  3  1  0  0  0  0
  7 30  1  0  0  0  0
  7 29  1  0  0  0  0
  8  7  1  0  0  0  0
  9  8  2  0  0  0  0
  9  2  1  0  0  0  0
 10  9  1  0  0  0  0
 11 10  1  0  0  0  0
 11 13  1  0  0  0  0
 12 11  2  0  0  0  0
 13 33  1  0  0  0  0
 14 13  1  0  0  0  0
 14 19  2  0  0  0  0
 15 14  1  0  0  0  0
 16 15  2  0  0  0  0
 16 17  1  0  0  0  0
 17 18  2  0  0  0  0
 18 19  1  0  0  0  0
 18 37  1  0  0  0  0
 19 38  1  0  0  0  0
 20 40  1  0  0  0  0
 20  8  1  0  0  0  0
 21 20  1  0  0  0  0
 21 43  1  0  0  0  0
 24  5  1  0  0  0  0
 26  6  1  0  0  0  0
 28  6  1  0  0  0  0
 31 10  1  0  0  0  0
 32 10  1  0  0  0  0
 34 15  1  0  0  0  0
 35 16  1  0  0  0  0
 36 17  1  0  0  0  0
 39 20  1  0  0  0  0
 41 21  1  0  0  0  0
 42 21  1  0  0  0  0
M  END
$$$$
