54
rmsd54.gzmat
O          0.00000        0.00000        0.00000
C          1.35850        0.00000        0.00000
C          2.08450        0.00000        1.18470
C          3.48470       -0.01450        1.09230
O          4.12830       -0.01530        2.26120
C          4.13630       -0.05240       -0.15580
C          3.36120       -0.04500       -1.31380
C          1.97070       -0.00860       -1.26220
C          1.16120       -0.01430       -2.52360
N          1.02760       -1.37750       -3.08450
C          2.07400       -1.82280       -3.87800
O          2.92840       -1.02400       -4.23250
C          2.10670       -3.23170       -4.42910
C          1.94660       -4.30810       -3.35710
C          0.47300       -4.65510       -3.10690
C         -0.42380       -3.41270       -3.06670
C          0.20430       -2.27280       -2.25250
C          5.62770       -0.13010       -0.25820
N          6.27390        1.19940       -0.19600
C          6.75190        1.63490        1.00930
O          6.62950        0.89060        1.98850
C          7.46960        2.94580        1.22080
C          8.06360        3.60470       -0.01920
C          7.00020        4.34520       -0.84030
C          5.74760        3.49220       -1.06540
C          6.10640        2.03600       -1.39390
H         -0.37080        0.06900        0.91340
H          1.61270        0.01450        2.15950
H          5.11940        0.22570        2.18040
H          3.84590       -0.08470       -2.29860
H          1.63190        0.64450       -3.29660
H          0.13680        0.39400       -2.35380
H          1.33270       -3.33360       -5.21670
H          3.07720       -3.36240       -4.95890
H          2.49330       -5.22290       -3.65960
H          2.42970       -3.98040       -2.41500
H          0.11020       -5.34370       -3.89420
H          0.38520       -5.21570       -2.15620
H         -0.64770       -3.06050       -4.09270
H         -1.40570       -3.67840       -2.63020
H         -0.60640       -1.65730       -1.79050
H          0.80340       -2.67550       -1.40400
H          5.93570       -0.61610       -1.21660
H          6.05140       -0.78340        0.54820
H          6.76600        3.64100        1.73220
H          8.27290        2.75880        1.97320
H          8.85680        4.31790        0.28310
H          8.57970        2.84920       -0.64390
H          6.72080        5.28950       -0.33480
H          7.43240        4.64780       -1.81350
H          5.08560        3.52980       -0.17750
H          5.14440        3.92080       -1.88940
H          5.30060        1.59680       -2.03210
H          7.04380        1.98630       -1.99540
