54
rmsd89.gzmat
O          0.00000        0.00000        0.00000
C          1.33670        0.00000        0.00000
C          1.94530        0.00000        1.26390
C          3.33350        0.06470        1.31150
O          4.00320        0.13380        2.49120
C          4.12850        0.10120        0.15620
C          3.49110        0.01910       -1.07840
C          2.10290       -0.00980       -1.18070
C          1.46130       -0.02850       -2.53240
N          1.22690        1.33920       -3.05040
C          0.01380        1.92310       -2.77110
O         -0.85260        1.25160       -2.20790
C         -0.34270        3.30900       -3.25010
C          0.68460        4.36330       -2.84000
C          1.81500        4.50100       -3.86870
C          2.27780        3.15050       -4.42520
C          2.45960        2.10000       -3.32300
C          5.61100        0.30560        0.22220
N          5.95220        1.73710        0.03310
C          5.96450        2.19750       -1.27470
O          5.90780        1.39010       -2.19070
C          6.17770        3.65960       -1.60430
C          5.21270        4.59360       -0.87690
C          5.76030        5.02750        0.49000
C          6.40030        3.86790        1.26240
C          5.56520        2.58320        1.17690
H         -0.39330        0.36220       -0.87230
H          1.33100       -0.02900        2.15540
H          3.40050        0.03360        3.26790
H          4.10610       -0.00160       -1.98750
H          0.49190       -0.58900       -2.51970
H          2.09910       -0.57030       -3.27260
H         -0.48810        3.29570       -4.34990
H         -1.34420        3.56610       -2.83330
H          0.18240        5.34280       -2.71240
H          1.09940        4.12080       -1.84140
H          1.48410        5.14650       -4.70500
H          2.66990        5.03050       -3.40520
H          1.56930        2.77770       -5.18980
H          3.23810        3.28240       -4.96330
H          3.25340        1.37630       -3.63510
H          2.83270        2.57200       -2.38510
H          6.13310       -0.29060       -0.56750
H          6.03350       -0.03110        1.19750
H          7.23200        3.93110       -1.39320
H          6.06850        3.77590       -2.70580
H          5.01910        5.49070       -1.49740
H          4.22570        4.10470       -0.75680
H          6.50730        5.83380        0.35710
H          4.94290        5.47440        1.08810
H          7.42640        3.67220        0.89290
H          6.52410        4.15500        2.32460
H          5.71270        1.98290        2.10840
H          4.47730        2.81940        1.13740
