
     RDKit          3D

 54 56  0  0  0  0  0  0  0  0999 V2000
   -0.1326   -0.1132    0.1489 O   0  0  0  0  0  0  0  0  0  0  0  0
    1.2294   -0.0507    0.0839 C   0  0  0  0  0  0  0  0  0  0  0  0
    2.0085    0.0083    1.2405 C   0  0  0  0  0  0  0  0  0  0  0  0
    3.4101    0.0632    1.1731 C   0  0  0  0  0  0  0  0  0  0  0  0
    4.0741    0.1010    2.3339 O   0  0  0  0  0  0  0  0  0  0  0  0
    4.0359    0.0469   -0.0992 C   0  0  0  0  0  0  0  0  0  0  0  0
    3.2252   -0.0098   -1.2387 C   0  0  0  0  0  0  0  0  0  0  0  0
    1.8280   -0.0497   -1.1888 C   0  0  0  0  0  0  0  0  0  0  0  0
    1.0110   -0.1541   -2.4554 C   0  0  0  0  0  0  0  0  0  0  0  0
    0.9872   -1.5160   -3.0106 N   0  0  0  0  0  0  0  0  0  0  0  0
    1.9473   -1.8101   -3.9481 C   0  0  0  0  0  0  0  0  0  0  0  0
    2.7140   -0.9460   -4.3646 O   0  0  0  0  0  0  0  0  0  0  0  0
    2.0682   -3.2252   -4.5153 C   0  0  0  0  0  0  0  0  0  0  0  0
    1.9661   -4.3802   -3.5129 C   0  0  0  0  0  0  0  0  0  0  0  0
    0.5233   -4.8097   -3.2309 C   0  0  0  0  0  0  0  0  0  0  0  0
   -0.4314   -3.6186   -3.0913 C   0  0  0  0  0  0  0  0  0  0  0  0
    0.1358   -2.4566   -2.2769 C   0  0  0  0  0  0  0  0  0  0  0  0
    5.5379    0.0698   -0.2383 C   0  0  0  0  0  0  0  0  0  0  0  0
    6.1522    1.4077   -0.1198 N   0  0  0  0  0  0  0  0  0  0  0  0
    6.6836    1.7539    1.0803 C   0  0  0  0  0  0  0  0  0  0  0  0
    6.5140    1.0378    2.0782 O   0  0  0  0  0  0  0  0  0  0  0  0
    7.5492    2.9959    1.2459 C   0  0  0  0  0  0  0  0  0  0  0  0
    8.2989    3.5040    0.0144 C   0  0  0  0  0  0  0  0  0  0  0  0
    7.4219    4.3441   -0.9183 C   0  0  0  0  0  0  0  0  0  0  0  0
    6.0243    3.7456   -1.1050 C   0  0  0  0  0  0  0  0  0  0  0  0
    6.0122    2.2358   -1.3232 C   0  0  0  0  0  0  0  0  0  0  0  0
   -0.4044   -0.0946    1.0755 H   0  0  0  0  0  0  0  0  0  0  0  0
    1.5448    0.0120    2.2306 H   0  0  0  0  0  0  0  0  0  0  0  0
    5.0318    0.3496    2.2300 H   0  0  0  0  0  0  0  0  0  0  0  0
    3.6931   -0.0493   -2.2262 H   0  0  0  0  0  0  0  0  0  0  0  0
    1.4354    0.4947   -3.2289 H   0  0  0  0  0  0  0  0  0  0  0  0
   -0.0258    0.1513   -2.2619 H   0  0  0  0  0  0  0  0  0  0  0  0
    1.3224   -3.3463   -5.3206 H   0  0  0  0  0  0  0  0  0  0  0  0
    3.0496   -3.2216   -5.0071 H   0  0  0  0  0  0  0  0  0  0  0  0
    2.5374   -5.2418   -3.8935 H   0  0  0  0  0  0  0  0  0  0  0  0
    2.4649   -4.0844   -2.5743 H   0  0  0  0  0  0  0  0  0  0  0  0
    0.1633   -5.4652   -4.0422 H   0  0  0  0  0  0  0  0  0  0  0  0
    0.4972   -5.4171   -2.3102 H   0  0  0  0  0  0  0  0  0  0  0  0
   -0.7276   -3.2350   -4.0814 H   0  0  0  0  0  0  0  0  0  0  0  0
   -1.3624   -3.9546   -2.6072 H   0  0  0  0  0  0  0  0  0  0  0  0
   -0.6969   -1.8567   -1.8848 H   0  0  0  0  0  0  0  0  0  0  0  0
    0.6660   -2.8401   -1.3838 H   0  0  0  0  0  0  0  0  0  0  0  0
    5.8120   -0.3188   -1.2306 H   0  0  0  0  0  0  0  0  0  0  0  0
    6.0134   -0.5704    0.5155 H   0  0  0  0  0  0  0  0  0  0  0  0
    6.9167    3.7901    1.6806 H   0  0  0  0  0  0  0  0  0  0  0  0
    8.2485    2.7129    2.0454 H   0  0  0  0  0  0  0  0  0  0  0  0
    9.1675    4.0978    0.3400 H   0  0  0  0  0  0  0  0  0  0  0  0
    8.7147    2.6401   -0.5313 H   0  0  0  0  0  0  0  0  0  0  0  0
    7.3229    5.3674   -0.5181 H   0  0  0  0  0  0  0  0  0  0  0  0
    7.9193    4.4428   -1.8978 H   0  0  0  0  0  0  0  0  0  0  0  0
    5.3794    3.9759   -0.2410 H   0  0  0  0  0  0  0  0  0  0  0  0
    5.5371    4.2146   -1.9746 H   0  0  0  0  0  0  0  0  0  0  0  0
    5.0384    1.9628   -1.7553 H   0  0  0  0  0  0  0  0  0  0  0  0
    6.7775    1.9451   -2.0677 H   0  0  0  0  0  0  0  0  0  0  0  0
  1  2  1  0
  1 27  1  0
  2  3  2  0
  2  8  1  0
  3  4  1  0
  3 28  1  0
  4  5  1  0
  4  6  2  0
  5 29  1  0
  6  7  1  0
  6 18  1  0
  7  8  2  0
  7 30  1  0
  8  9  1  0
  9 10  1  0
  9 31  1  0
  9 32  1  0
 10 11  1  0
 10 17  1  0
 11 12  2  0
 11 13  1  0
 13 14  1  0
 13 33  1  0
 13 34  1  0
 14 15  1  0
 14 35  1  0
 14 36  1  0
 15 16  1  0
 15 37  1  0
 15 38  1  0
 16 17  1  0
 16 39  1  0
 16 40  1  0
 17 41  1  0
 17 42  1  0
 18 19  1  0
 18 43  1  0
 18 44  1  0
 19 20  1  0
 19 26  1  0
 20 21  2  0
 20 22  1  0
 22 23  1  0
 22 45  1  0
 22 46  1  0
 23 24  1  0
 23 47  1  0
 23 48  1  0
 24 25  1  0
 24 49  1  0
 24 50  1  0
 25 26  1  0
 25 51  1  0
 25 52  1  0
 26 53  1  0
 26 54  1  0
M  END

