rmsd42.gzmat
 OpenBabel08211713373D

 54 55  0  0  0  0  0  0  0  0999 V2000
    0.0000    0.0000    0.0000 O   0  0  0  0  0  0  0  0  0  0  0  0
    1.3586    0.0000    0.0000 C   0  0  0  0  0  0  0  0  0  0  0  0
    2.0850    0.0000    1.1854 C   0  0  0  0  0  0  0  0  0  0  0  0
    3.4843    0.0128    1.0920 C   0  0  0  0  0  0  0  0  0  0  0  0
    4.1400   -0.0083    2.2562 O   0  0  0  0  0  0  0  0  0  0  0  0
    4.1348    0.0678   -0.1552 C   0  0  0  0  0  0  0  0  0  0  0  0
    3.3615    0.0405   -1.3133 C   0  0  0  0  0  0  0  0  0  0  0  0
    1.9710   -0.0050   -1.2625 C   0  0  0  0  0  0  0  0  0  0  0  0
    1.1674   -0.0360   -2.5278 C   0  0  0  0  0  0  0  0  0  0  0  0
    1.1661    1.2795   -3.2028 N   0  0  0  0  0  0  0  0  0  0  0  0
    2.2110    1.5448   -4.0615 C   0  0  0  0  0  0  0  0  0  0  0  0
    2.9787    0.6325   -4.3444 O   0  0  0  0  0  0  0  0  0  0  0  0
    2.4407    2.8920   -4.7118 C   0  0  0  0  0  0  0  0  0  0  0  0
    1.2256    3.8052   -4.8277 C   0  0  0  0  0  0  0  0  0  0  0  0
    0.9462    4.5552   -3.5189 C   0  0  0  0  0  0  0  0  0  0  0  0
    0.9940    3.6262   -2.3013 C   0  0  0  0  0  0  0  0  0  0  0  0
    0.2953    2.2873   -2.5814 C   0  0  0  0  0  0  0  0  0  0  0  0
    5.6243    0.1833   -0.2519 C   0  0  0  0  0  0  0  0  0  0  0  0
    6.2946   -1.1322   -0.3436 N   0  0  0  0  0  0  0  0  0  0  0  0
    6.6777   -1.7376    0.8284 C   0  0  0  0  0  0  0  0  0  0  0  0
    6.5470   -1.1162    1.8852 O   0  0  0  0  0  0  0  0  0  0  0  0
    7.3752   -3.0757    0.8646 C   0  0  0  0  0  0  0  0  0  0  0  0
    6.6673   -4.1546    0.0475 C   0  0  0  0  0  0  0  0  0  0  0  0
    7.1162   -4.1581   -1.4195 C   0  0  0  0  0  0  0  0  0  0  0  0
    7.2371   -2.7464   -2.0023 C   0  0  0  0  0  0  0  0  0  0  0  0
    6.0541   -1.8531   -1.6054 C   0  0  0  0  0  0  0  0  0  0  0  0
   -0.3714   -0.0484    0.9148 H   0  0  0  0  0  0  0  0  0  0  0  0
    1.6140   -0.0188    2.1604 H   0  0  0  0  0  0  0  0  0  0  0  0
    5.1067   -0.3291    2.1591 H   0  0  0  0  0  0  0  0  0  0  0  0
    3.8496    0.0628   -2.2960 H   0  0  0  0  0  0  0  0  0  0  0  0
    0.1099   -0.3362   -2.3378 H   0  0  0  0  0  0  0  0  0  0  0  0
    1.5839   -0.8017   -3.2325 H   0  0  0  0  0  0  0  0  0  0  0  0
    3.2591    3.3996   -4.1562 H   0  0  0  0  0  0  0  0  0  0  0  0
    2.8622    2.6964   -5.7249 H   0  0  0  0  0  0  0  0  0  0  0  0
    1.3865    4.5372   -5.6440 H   0  0  0  0  0  0  0  0  0  0  0  0
    0.3375    3.2181   -5.1344 H   0  0  0  0  0  0  0  0  0  0  0  0
    1.6789    5.3743   -3.3888 H   0  0  0  0  0  0  0  0  0  0  0  0
   -0.0437    5.0467   -3.5821 H   0  0  0  0  0  0  0  0  0  0  0  0
    2.0410    3.4474   -1.9879 H   0  0  0  0  0  0  0  0  0  0  0  0
    0.5131    4.1195   -1.4348 H   0  0  0  0  0  0  0  0  0  0  0  0
   -0.1014    1.8760   -1.6199 H   0  0  0  0  0  0  0  0  0  0  0  0
   -0.5884    2.4390   -3.2437 H   0  0  0  0  0  0  0  0  0  0  0  0
    6.0441    0.7456    0.6221 H   0  0  0  0  0  0  0  0  0  0  0  0
    5.9190    0.7824   -1.1481 H   0  0  0  0  0  0  0  0  0  0  0  0
    8.4282   -2.9505    0.5368 H   0  0  0  0  0  0  0  0  0  0  0  0
    7.4449   -3.3897    1.9326 H   0  0  0  0  0  0  0  0  0  0  0  0
    6.8636   -5.1499    0.4937 H   0  0  0  0  0  0  0  0  0  0  0  0
    5.5686   -4.0223    0.1131 H   0  0  0  0  0  0  0  0  0  0  0  0
    8.0884   -4.6792   -1.5149 H   0  0  0  0  0  0  0  0  0  0  0  0
    6.4013   -4.7545   -2.0197 H   0  0  0  0  0  0  0  0  0  0  0  0
    8.1881   -2.2739   -1.6884 H   0  0  0  0  0  0  0  0  0  0  0  0
    7.2966   -2.8068   -3.1069 H   0  0  0  0  0  0  0  0  0  0  0  0
    5.8802   -1.0981   -2.4104 H   0  0  0  0  0  0  0  0  0  0  0  0
    5.1140   -2.4474   -1.5323 H   0  0  0  0  0  0  0  0  0  0  0  0
  1  2  1  0  0  0  0
  1 27  1  0  0  0  0
  2  3  2  0  0  0  0
  3 28  1  0  0  0  0
  4  3  1  0  0  0  0
  4  5  1  0  0  0  0
  6  4  2  0  0  0  0
  7  8  2  0  0  0  0
  7  6  1  0  0  0  0
  8  2  1  0  0  0  0
  9 31  1  0  0  0  0
  9  8  1  0  0  0  0
 10 17  1  0  0  0  0
 10  9  1  0  0  0  0
 11 10  1  0  0  0  0
 12 11  2  0  0  0  0
 13 33  1  0  0  0  0
 13 11  1  0  0  0  0
 14 13  1  0  0  0  0
 14 15  1  0  0  0  0
 15 37  1  0  0  0  0
 15 16  1  0  0  0  0
 16 39  1  0  0  0  0
 16 40  1  0  0  0  0
 17 16  1  0  0  0  0
 17 41  1  0  0  0  0
 18  6  1  0  0  0  0
 18 43  1  0  0  0  0
 19 18  1  0  0  0  0
 19 20  1  0  0  0  0
 20 22  1  0  0  0  0
 20 21  2  0  0  0  0
 22 46  1  0  0  0  0
 23 48  1  0  0  0  0
 23 47  1  0  0  0  0
 23 22  1  0  0  0  0
 24 23  1  0  0  0  0
 25 51  1  0  0  0  0
 25 26  1  0  0  0  0
 25 24  1  0  0  0  0
 26 54  1  0  0  0  0
 26 19  1  0  0  0  0
 29  5  1  0  0  0  0
 30  7  1  0  0  0  0
 32  9  1  0  0  0  0
 34 13  1  0  0  0  0
 35 14  1  0  0  0  0
 36 14  1  0  0  0  0
 38 15  1  0  0  0  0
 42 17  1  0  0  0  0
 44 18  1  0  0  0  0
 45 22  1  0  0  0  0
 49 24  1  0  0  0  0
 50 24  1  0  0  0  0
 53 26  1  0  0  0  0
M  RAD  2  25   2  52   2
M  END
$$$$
