rmsd27.gzmat
 OpenBabel08211713373D

 54 56  0  0  0  0  0  0  0  0999 V2000
    0.0000    0.0000    0.0000 O   0  0  0  0  0  0  0  0  0  0  0  0
    1.3583    0.0000    0.0000 C   0  0  0  0  0  0  0  0  0  0  0  0
    2.0855    0.0000    1.1844 C   0  0  0  0  0  0  0  0  0  0  0  0
    3.4848   -0.0141    1.0897 C   0  0  0  0  0  0  0  0  0  0  0  0
    4.1361   -0.0014    2.2557 O   0  0  0  0  0  0  0  0  0  0  0  0
    4.1362   -0.0668   -0.1582 C   0  0  0  0  0  0  0  0  0  0  0  0
    3.3611   -0.0554   -1.3155 C   0  0  0  0  0  0  0  0  0  0  0  0
    1.9709   -0.0046   -1.2623 C   0  0  0  0  0  0  0  0  0  0  0  0
    1.1632    0.0198   -2.5245 C   0  0  0  0  0  0  0  0  0  0  0  0
    1.0858   -1.3162   -3.1558 N   0  0  0  0  0  0  0  0  0  0  0  0
    2.1123   -1.6518   -4.0254 C   0  0  0  0  0  0  0  0  0  0  0  0
    2.9116   -0.7898   -4.3596 O   0  0  0  0  0  0  0  0  0  0  0  0
    2.1791   -3.0157   -4.6771 C   0  0  0  0  0  0  0  0  0  0  0  0
    2.1457   -4.1691   -3.6762 C   0  0  0  0  0  0  0  0  0  0  0  0
    0.7127   -4.6128   -3.3518 C   0  0  0  0  0  0  0  0  0  0  0  0
   -0.2467   -3.4297   -3.1817 C   0  0  0  0  0  0  0  0  0  0  0  0
    0.3680   -2.3070   -2.3349 C   0  0  0  0  0  0  0  0  0  0  0  0
    5.6282   -0.1538   -0.2551 C   0  0  0  0  0  0  0  0  0  0  0  0
    6.2681    1.1787   -0.3156 N   0  0  0  0  0  0  0  0  0  0  0  0
    6.6532    1.7656    0.8596 C   0  0  0  0  0  0  0  0  0  0  0  0
    6.5396    1.1141    1.9035 O   0  0  0  0  0  0  0  0  0  0  0  0
    7.2589    3.1438    0.9756 C   0  0  0  0  0  0  0  0  0  0  0  0
    7.8163    3.7728   -0.2961 C   0  0  0  0  0  0  0  0  0  0  0  0
    6.7095    4.3251   -1.2039 C   0  0  0  0  0  0  0  0  0  0  0  0
    5.5880    3.3092   -1.4430 C   0  0  0  0  0  0  0  0  0  0  0  0
    6.1367    1.8841   -1.5995 C   0  0  0  0  0  0  0  0  0  0  0  0
   -0.3712    0.0456    0.9153 H   0  0  0  0  0  0  0  0  0  0  0  0
    1.6146    0.0194    2.1596 H   0  0  0  0  0  0  0  0  0  0  0  0
    5.1058    0.3154    2.1652 H   0  0  0  0  0  0  0  0  0  0  0  0
    3.8436   -0.0983   -2.3005 H   0  0  0  0  0  0  0  0  0  0  0  0
    1.6072    0.7399   -3.2582 H   0  0  0  0  0  0  0  0  0  0  0  0
    0.1214    0.3746   -2.3382 H   0  0  0  0  0  0  0  0  0  0  0  0
    1.3603   -3.1064   -5.4193 H   0  0  0  0  0  0  0  0  0  0  0  0
    3.1168   -3.0564   -5.2756 H   0  0  0  0  0  0  0  0  0  0  0  0
    2.7134   -5.0306   -4.0798 H   0  0  0  0  0  0  0  0  0  0  0  0
    2.6783   -3.8815   -2.7479 H   0  0  0  0  0  0  0  0  0  0  0  0
    0.3348   -5.2778   -4.1520 H   0  0  0  0  0  0  0  0  0  0  0  0
    0.7200   -5.2279   -2.4310 H   0  0  0  0  0  0  0  0  0  0  0  0
   -0.5524   -3.0302   -4.1687 H   0  0  0  0  0  0  0  0  0  0  0  0
   -1.1839   -3.7777   -2.7067 H   0  0  0  0  0  0  0  0  0  0  0  0
   -0.4428   -1.7692   -1.7847 H   0  0  0  0  0  0  0  0  0  0  0  0
    1.0425   -2.7258   -1.5533 H   0  0  0  0  0  0  0  0  0  0  0  0
    5.9354   -0.7270   -1.1636 H   0  0  0  0  0  0  0  0  0  0  0  0
    6.0562   -0.7264    0.6084 H   0  0  0  0  0  0  0  0  0  0  0  0
    6.4870    3.8091    1.4270 H   0  0  0  0  0  0  0  0  0  0  0  0
    8.0618    3.0816    1.7494 H   0  0  0  0  0  0  0  0  0  0  0  0
    8.5088    4.5963   -0.0258 H   0  0  0  0  0  0  0  0  0  0  0  0
    8.4415    3.0402   -0.8433 H   0  0  0  0  0  0  0  0  0  0  0  0
    6.2847    5.2482   -0.7635 H   0  0  0  0  0  0  0  0  0  0  0  0
    7.1512    4.6353   -2.1707 H   0  0  0  0  0  0  0  0  0  0  0  0
    4.8507    3.3414   -0.6161 H   0  0  0  0  0  0  0  0  0  0  0  0
    5.0136    3.5888   -2.3480 H   0  0  0  0  0  0  0  0  0  0  0  0
    5.4616    1.3008   -2.2710 H   0  0  0  0  0  0  0  0  0  0  0  0
    7.1320    1.8944   -2.1016 H   0  0  0  0  0  0  0  0  0  0  0  0
  1  2  1  0  0  0  0
  1 27  1  0  0  0  0
  2  3  2  0  0  0  0
  3 28  1  0  0  0  0
  4  3  1  0  0  0  0
  4  5  1  0  0  0  0
  6  4  2  0  0  0  0
  7  8  2  0  0  0  0
  7  6  1  0  0  0  0
  8  2  1  0  0  0  0
  9 32  1  0  0  0  0
  9  8  1  0  0  0  0
 10  9  1  0  0  0  0
 10 17  1  0  0  0  0
 11 10  1  0  0  0  0
 12 11  2  0  0  0  0
 13 11  1  0  0  0  0
 13 14  1  0  0  0  0
 14 15  1  0  0  0  0
 14 36  1  0  0  0  0
 15 16  1  0  0  0  0
 15 38  1  0  0  0  0
 16 40  1  0  0  0  0
 16 17  1  0  0  0  0
 17 41  1  0  0  0  0
 17 42  1  0  0  0  0
 18  6  1  0  0  0  0
 18 44  1  0  0  0  0
 19 18  1  0  0  0  0
 19 20  1  0  0  0  0
 20 22  1  0  0  0  0
 20 21  2  0  0  0  0
 22 45  1  0  0  0  0
 22 46  1  0  0  0  0
 23 47  1  0  0  0  0
 23 22  1  0  0  0  0
 24 49  1  0  0  0  0
 24 23  1  0  0  0  0
 25 24  1  0  0  0  0
 25 51  1  0  0  0  0
 26 25  1  0  0  0  0
 26 19  1  0  0  0  0
 29  5  1  0  0  0  0
 30  7  1  0  0  0  0
 31  9  1  0  0  0  0
 33 13  1  0  0  0  0
 34 13  1  0  0  0  0
 35 14  1  0  0  0  0
 37 15  1  0  0  0  0
 39 16  1  0  0  0  0
 43 18  1  0  0  0  0
 48 23  1  0  0  0  0
 50 24  1  0  0  0  0
 52 25  1  0  0  0  0
 53 26  1  0  0  0  0
 54 26  1  0  0  0  0
M  END
$$$$
