rmsd89.gzmat
 OpenBabel08211713373D

 54 55  0  0  0  0  0  0  0  0999 V2000
    0.0000    0.0000    0.0000 O   0  0  0  0  0  0  0  0  0  0  0  0
    1.3367    0.0000    0.0000 C   0  0  0  0  0  0  0  0  0  0  0  0
    1.9453    0.0000    1.2639 C   0  0  0  0  0  0  0  0  0  0  0  0
    3.3335    0.0647    1.3115 C   0  0  0  0  0  0  0  0  0  0  0  0
    4.0032    0.1338    2.4912 O   0  0  0  0  0  0  0  0  0  0  0  0
    4.1285    0.1012    0.1562 C   0  0  0  0  0  0  0  0  0  0  0  0
    3.4911    0.0191   -1.0784 C   0  0  0  0  0  0  0  0  0  0  0  0
    2.1029   -0.0098   -1.1807 C   0  0  0  0  0  0  0  0  0  0  0  0
    1.4613   -0.0285   -2.5324 C   0  0  0  0  0  0  0  0  0  0  0  0
    1.2269    1.3392   -3.0504 N   0  0  0  0  0  0  0  0  0  0  0  0
    0.0138    1.9231   -2.7711 C   0  0  0  0  0  0  0  0  0  0  0  0
   -0.8526    1.2516   -2.2079 O   0  0  0  0  0  0  0  0  0  0  0  0
   -0.3427    3.3090   -3.2501 C   0  0  0  0  0  0  0  0  0  0  0  0
    0.6846    4.3633   -2.8400 C   0  0  0  0  0  0  0  0  0  0  0  0
    1.8150    4.5010   -3.8687 C   0  0  0  0  0  0  0  0  0  0  0  0
    2.2778    3.1505   -4.4252 C   0  0  0  0  0  0  0  0  0  0  0  0
    2.4596    2.1000   -3.3230 C   0  0  0  0  0  0  0  0  0  0  0  0
    5.6110    0.3056    0.2222 C   0  0  0  0  0  0  0  0  0  0  0  0
    5.9522    1.7371    0.0331 N   0  0  0  0  0  0  0  0  0  0  0  0
    5.9645    2.1975   -1.2747 C   0  0  0  0  0  0  0  0  0  0  0  0
    5.9078    1.3901   -2.1907 O   0  0  0  0  0  0  0  0  0  0  0  0
    6.1777    3.6596   -1.6043 C   0  0  0  0  0  0  0  0  0  0  0  0
    5.2127    4.5936   -0.8769 C   0  0  0  0  0  0  0  0  0  0  0  0
    5.7603    5.0275    0.4900 C   0  0  0  0  0  0  0  0  0  0  0  0
    6.4003    3.8679    1.2624 C   0  0  0  0  0  0  0  0  0  0  0  0
    5.5652    2.5832    1.1769 C   0  0  0  0  0  0  0  0  0  0  0  0
   -0.3933    0.3622   -0.8723 H   0  0  0  0  0  0  0  0  0  0  0  0
    1.3310   -0.0290    2.1554 H   0  0  0  0  0  0  0  0  0  0  0  0
    3.4005    0.0336    3.2679 H   0  0  0  0  0  0  0  0  0  0  0  0
    4.1061   -0.0016   -1.9875 H   0  0  0  0  0  0  0  0  0  0  0  0
    0.4919   -0.5890   -2.5197 H   0  0  0  0  0  0  0  0  0  0  0  0
    2.0991   -0.5703   -3.2726 H   0  0  0  0  0  0  0  0  0  0  0  0
   -0.4881    3.2957   -4.3499 H   0  0  0  0  0  0  0  0  0  0  0  0
   -1.3442    3.5661   -2.8333 H   0  0  0  0  0  0  0  0  0  0  0  0
    0.1824    5.3428   -2.7124 H   0  0  0  0  0  0  0  0  0  0  0  0
    1.0994    4.1208   -1.8414 H   0  0  0  0  0  0  0  0  0  0  0  0
    1.4841    5.1465   -4.7050 H   0  0  0  0  0  0  0  0  0  0  0  0
    2.6699    5.0305   -3.4052 H   0  0  0  0  0  0  0  0  0  0  0  0
    1.5693    2.7777   -5.1898 H   0  0  0  0  0  0  0  0  0  0  0  0
    3.2381    3.2824   -4.9633 H   0  0  0  0  0  0  0  0  0  0  0  0
    3.2534    1.3763   -3.6351 H   0  0  0  0  0  0  0  0  0  0  0  0
    2.8327    2.5720   -2.3851 H   0  0  0  0  0  0  0  0  0  0  0  0
    6.1331   -0.2906   -0.5675 H   0  0  0  0  0  0  0  0  0  0  0  0
    6.0335   -0.0311    1.1975 H   0  0  0  0  0  0  0  0  0  0  0  0
    7.2320    3.9311   -1.3932 H   0  0  0  0  0  0  0  0  0  0  0  0
    6.0685    3.7759   -2.7058 H   0  0  0  0  0  0  0  0  0  0  0  0
    5.0191    5.4907   -1.4974 H   0  0  0  0  0  0  0  0  0  0  0  0
    4.2257    4.1047   -0.7568 H   0  0  0  0  0  0  0  0  0  0  0  0
    6.5073    5.8338    0.3571 H   0  0  0  0  0  0  0  0  0  0  0  0
    4.9429    5.4744    1.0881 H   0  0  0  0  0  0  0  0  0  0  0  0
    7.4264    3.6722    0.8929 H   0  0  0  0  0  0  0  0  0  0  0  0
    6.5241    4.1550    2.3246 H   0  0  0  0  0  0  0  0  0  0  0  0
    5.7127    1.9829    2.1084 H   0  0  0  0  0  0  0  0  0  0  0  0
    4.4773    2.8194    1.1374 H   0  0  0  0  0  0  0  0  0  0  0  0
  1  2  1  0  0  0  0
  2  3  2  0  0  0  0
  3  4  1  0  0  0  0
  3 28  1  0  0  0  0
  4  5  1  0  0  0  0
  5 29  1  0  0  0  0
  6 18  1  0  0  0  0
  6  4  2  0  0  0  0
  7  6  1  0  0  0  0
  8  7  2  0  0  0  0
  8  2  1  0  0  0  0
  9 31  1  0  0  0  0
  9  8  1  0  0  0  0
 10 11  1  0  0  0  0
 10  9  1  0  0  0  0
 11 12  2  0  0  0  0
 13 14  1  0  0  0  0
 13 34  1  0  0  0  0
 13 11  1  0  0  0  0
 14 35  1  0  0  0  0
 14 36  1  0  0  0  0
 15 38  1  0  0  0  0
 15 14  1  0  0  0  0
 16 15  1  0  0  0  0
 16 17  1  0  0  0  0
 17 10  1  0  0  0  0
 17 42  1  0  0  0  0
 18 44  1  0  0  0  0
 19 18  1  0  0  0  0
 19 26  1  0  0  0  0
 20 19  1  0  0  0  0
 21 20  2  0  0  0  0
 22 45  1  0  0  0  0
 22 20  1  0  0  0  0
 22 23  1  0  0  0  0
 23 48  1  0  0  0  0
 23 24  1  0  0  0  0
 24 50  1  0  0  0  0
 24 25  1  0  0  0  0
 25 52  1  0  0  0  0
 26 25  1  0  0  0  0
 26 53  1  0  0  0  0
 27  1  1  0  0  0  0
 30  7  1  0  0  0  0
 32  9  1  0  0  0  0
 37 15  1  0  0  0  0
 39 16  1  0  0  0  0
 40 16  1  0  0  0  0
 41 17  1  0  0  0  0
 43 18  1  0  0  0  0
 46 22  1  0  0  0  0
 47 23  1  0  0  0  0
 49 24  1  0  0  0  0
 51 25  1  0  0  0  0
 54 26  1  0  0  0  0
M  RAD  2  13   2  33   2
M  END
$$$$
