54

O         -0.13260       -0.11320        0.14890
C          1.22940       -0.05070        0.08390
C          2.00850        0.00830        1.24050
C          3.41010        0.06320        1.17310
O          4.07410        0.10100        2.33390
C          4.03590        0.04690       -0.09920
C          3.22520       -0.00980       -1.23870
C          1.82800       -0.04970       -1.18880
C          1.01100       -0.15410       -2.45540
N          0.98720       -1.51600       -3.01060
C          1.94730       -1.81010       -3.94810
O          2.71400       -0.94600       -4.36460
C          2.06820       -3.22520       -4.51530
C          1.96610       -4.38020       -3.51290
C          0.52330       -4.80970       -3.23090
C         -0.43140       -3.61860       -3.09130
C          0.13580       -2.45660       -2.27690
C          5.53790        0.06980       -0.23830
N          6.15220        1.40770       -0.11980
C          6.68360        1.75390        1.08030
O          6.51400        1.03780        2.07820
C          7.54920        2.99590        1.24590
C          8.29890        3.50400        0.01440
C          7.42190        4.34410       -0.91830
C          6.02430        3.74560       -1.10500
C          6.01220        2.23580       -1.32320
H         -0.40440       -0.09460        1.07550
H          1.54480        0.01200        2.23060
H          5.03180        0.34960        2.23000
H          3.69310       -0.04930       -2.22620
H          1.43540        0.49470       -3.22890
H         -0.02580        0.15130       -2.26190
H          1.32240       -3.34630       -5.32060
H          3.04960       -3.22160       -5.00710
H          2.53740       -5.24180       -3.89350
H          2.46490       -4.08440       -2.57430
H          0.16330       -5.46520       -4.04220
H          0.49720       -5.41710       -2.31020
H         -0.72760       -3.23500       -4.08140
H         -1.36240       -3.95460       -2.60720
H         -0.69690       -1.85670       -1.88480
H          0.66600       -2.84010       -1.38380
H          5.81200       -0.31880       -1.23060
H          6.01340       -0.57040        0.51550
H          6.91670        3.79010        1.68060
H          8.24850        2.71290        2.04540
H          9.16750        4.09780        0.34000
H          8.71470        2.64010       -0.53130
H          7.32290        5.36740       -0.51810
H          7.91930        4.44280       -1.89780
H          5.37940        3.97590       -0.24100
H          5.53710        4.21460       -1.97460
H          5.03840        1.96280       -1.75530
H          6.77750        1.94510       -2.06770
