54
rmsd2.gzmat
O          0.00000        0.00000        0.00000
C          1.35830        0.00000        0.00000
C          2.08570        0.00000        1.18420
C          3.48550       -0.02060        1.09030
O          4.13300       -0.02050        2.25700
C          4.13600       -0.07080       -0.15820
C          3.36070       -0.05160       -1.31540
C          1.97030       -0.00860       -1.26280
C          1.16080       -0.00270       -2.52420
N          1.14040       -1.33340       -3.17220
C          2.17380       -1.61060       -4.05470
O          2.93320       -0.71100       -4.38210
C          2.29190       -2.96110       -4.72720
C          2.33840       -4.12380       -3.73720
C          0.93560       -4.64440       -3.39510
C         -0.08260       -3.51460       -3.20310
C          0.48140       -2.36740       -2.35410
C          5.62550       -0.18240       -0.25550
N          6.30240        1.13280       -0.24070
C          6.78900        1.60100        0.94800
O          6.62060        0.91350        1.96120
C          7.57080        2.88310        1.10040
C          8.27620        3.38480       -0.15510
C          7.31960        4.14370       -1.08360
C          5.99080        3.40500       -1.27250
C          6.20130        1.90090       -1.49100
H         -0.37110        0.05070        0.91480
H          1.61610        0.01960        2.16010
H          5.11920        0.24560        2.17240
H          3.84360       -0.08560       -2.30060
H          1.57140        0.74560       -3.24890
H          0.10430        0.30330       -2.33350
H          1.46060       -3.08350       -5.45080
H          3.21510       -2.94840       -5.34870
H          2.94500       -4.95030       -4.15670
H          2.86950       -3.81560       -2.81460
H          0.58240       -5.32400       -4.19430
H          0.98830       -5.26380       -2.47870
H         -0.42210       -3.12430       -4.18260
H         -0.99380       -3.91560       -2.71880
H         -0.35120       -1.87590       -1.79300
H          1.18300       -2.75700       -1.58140
H          5.92330       -0.71200       -1.19370
H          6.03270       -0.81450        0.57660
H          6.88660        3.66180        1.50450
H          8.31630        2.71630        1.91480
H          9.11740        4.04820        0.12960
H          8.74630        2.53770       -0.69260
H          7.12680        5.15700       -0.68190
H          7.80850        4.30220       -2.06440
H          5.32090        3.57550       -0.40690
H          5.44870        3.82860       -2.14160
H          5.34440        1.50120       -2.08870
H          7.12040        1.71770       -2.09500
