rmsd183.gzmat
 OpenBabel08211713373D

 54 56  0  0  0  0  0  0  0  0999 V2000
    0.0000    0.0000    0.0000 O   0  0  0  0  0  0  0  0  0  0  0  0
    1.3366    0.0000    0.0000 C   0  0  0  0  0  0  0  0  0  0  0  0
    1.9403    0.0000    1.2657 C   0  0  0  0  0  0  0  0  0  0  0  0
    3.3294    0.0200    1.3174 C   0  0  0  0  0  0  0  0  0  0  0  0
    3.9957    0.0101    2.5014 O   0  0  0  0  0  0  0  0  0  0  0  0
    4.1296    0.0556    0.1653 C   0  0  0  0  0  0  0  0  0  0  0  0
    3.4945    0.0175   -1.0727 C   0  0  0  0  0  0  0  0  0  0  0  0
    2.1062   -0.0255   -1.1791 C   0  0  0  0  0  0  0  0  0  0  0  0
    1.4581   -0.1245   -2.5252 C   0  0  0  0  0  0  0  0  0  0  0  0
    1.1980    1.1985   -3.1329 N   0  0  0  0  0  0  0  0  0  0  0  0
   -0.0115    1.7955   -2.8759 C   0  0  0  0  0  0  0  0  0  0  0  0
   -0.8634    1.1612   -2.2499 O   0  0  0  0  0  0  0  0  0  0  0  0
   -0.3927    3.1431   -3.4392 C   0  0  0  0  0  0  0  0  0  0  0  0
    0.6688    4.2202   -3.2242 C   0  0  0  0  0  0  0  0  0  0  0  0
    1.7101    4.2385   -4.3507 C   0  0  0  0  0  0  0  0  0  0  0  0
    2.1530    2.8315   -4.7640 C   0  0  0  0  0  0  0  0  0  0  0  0
    2.4079    1.9268   -3.5510 C   0  0  0  0  0  0  0  0  0  0  0  0
    5.6245    0.1267    0.2511 C   0  0  0  0  0  0  0  0  0  0  0  0
    6.2645   -1.1448   -0.1454 N   0  0  0  0  0  0  0  0  0  0  0  0
    6.6072   -1.2972   -1.4709 C   0  0  0  0  0  0  0  0  0  0  0  0
    6.4328   -0.3534   -2.2326 O   0  0  0  0  0  0  0  0  0  0  0  0
    7.2464   -2.5521   -2.0275 C   0  0  0  0  0  0  0  0  0  0  0  0
    7.9278   -3.4689   -1.0173 C   0  0  0  0  0  0  0  0  0  0  0  0
    6.9164   -4.3650   -0.2910 C   0  0  0  0  0  0  0  0  0  0  0  0
    5.7004   -3.5732    0.2019 C   0  0  0  0  0  0  0  0  0  0  0  0
    6.1138   -2.2342    0.8303 C   0  0  0  0  0  0  0  0  0  0  0  0
   -0.3936    0.3401   -0.8813 H   0  0  0  0  0  0  0  0  0  0  0  0
    1.3213   -0.0054    2.1543 H   0  0  0  0  0  0  0  0  0  0  0  0
    3.3801    0.0431    3.2740 H   0  0  0  0  0  0  0  0  0  0  0  0
    4.1144    0.0174   -1.9782 H   0  0  0  0  0  0  0  0  0  0  0  0
    0.4950   -0.6953   -2.4685 H   0  0  0  0  0  0  0  0  0  0  0  0
    2.0980   -0.7077   -3.2317 H   0  0  0  0  0  0  0  0  0  0  0  0
   -0.6404    3.0349   -4.5157 H   0  0  0  0  0  0  0  0  0  0  0  0
   -1.3497    3.4503   -2.9554 H   0  0  0  0  0  0  0  0  0  0  0  0
    0.1839    5.2146   -3.1571 H   0  0  0  0  0  0  0  0  0  0  0  0
    1.1642    4.0766   -2.2430 H   0  0  0  0  0  0  0  0  0  0  0  0
    1.3022    4.7686   -5.2327 H   0  0  0  0  0  0  0  0  0  0  0  0
    2.5875    4.8320   -4.0284 H   0  0  0  0  0  0  0  0  0  0  0  0
    1.3993    2.3675   -5.4303 H   0  0  0  0  0  0  0  0  0  0  0  0
    3.0755    2.8974   -5.3738 H   0  0  0  0  0  0  0  0  0  0  0  0
    3.1935    1.1762   -3.8121 H   0  0  0  0  0  0  0  0  0  0  0  0
    2.8159    2.5140   -2.6954 H   0  0  0  0  0  0  0  0  0  0  0  0
    5.9650    0.3806    1.2832 H   0  0  0  0  0  0  0  0  0  0  0  0
    6.0083    0.9464   -0.4101 H   0  0  0  0  0  0  0  0  0  0  0  0
    6.4705   -3.1074   -2.5971 H   0  0  0  0  0  0  0  0  0  0  0  0
    7.9845   -2.2247   -2.7961 H   0  0  0  0  0  0  0  0  0  0  0  0
    8.6782   -4.1008   -1.5324 H   0  0  0  0  0  0  0  0  0  0  0  0
    8.5056   -2.8676   -0.2878 H   0  0  0  0  0  0  0  0  0  0  0  0
    6.5827   -5.1798   -0.9615 H   0  0  0  0  0  0  0  0  0  0  0  0
    7.4137   -4.8654    0.5618 H   0  0  0  0  0  0  0  0  0  0  0  0
    4.9868   -3.3971   -0.6265 H   0  0  0  0  0  0  0  0  0  0  0  0
    5.1379   -4.1721    0.9435 H   0  0  0  0  0  0  0  0  0  0  0  0
    5.3464   -1.9340    1.5870 H   0  0  0  0  0  0  0  0  0  0  0  0
    7.0741   -2.3419    1.3854 H   0  0  0  0  0  0  0  0  0  0  0  0
  1  2  1  0  0  0  0
  2  3  2  0  0  0  0
  3  4  1  0  0  0  0
  3 28  1  0  0  0  0
  4  5  1  0  0  0  0
  5 29  1  0  0  0  0
  6 18  1  0  0  0  0
  6  4  2  0  0  0  0
  7  6  1  0  0  0  0
  8  7  2  0  0  0  0
  8  2  1  0  0  0  0
  9 31  1  0  0  0  0
  9  8  1  0  0  0  0
 10 11  1  0  0  0  0
 10  9  1  0  0  0  0
 11 12  2  0  0  0  0
 13 14  1  0  0  0  0
 13 34  1  0  0  0  0
 13 11  1  0  0  0  0
 14 35  1  0  0  0  0
 14 36  1  0  0  0  0
 15 38  1  0  0  0  0
 15 14  1  0  0  0  0
 16 15  1  0  0  0  0
 16 17  1  0  0  0  0
 17 10  1  0  0  0  0
 17 42  1  0  0  0  0
 18 43  1  0  0  0  0
 19 18  1  0  0  0  0
 19 26  1  0  0  0  0
 20 19  1  0  0  0  0
 21 20  2  0  0  0  0
 22 20  1  0  0  0  0
 22 23  1  0  0  0  0
 23 24  1  0  0  0  0
 23 48  1  0  0  0  0
 24 25  1  0  0  0  0
 24 50  1  0  0  0  0
 25 26  1  0  0  0  0
 25 52  1  0  0  0  0
 26 54  1  0  0  0  0
 26 53  1  0  0  0  0
 27  1  1  0  0  0  0
 30  7  1  0  0  0  0
 32  9  1  0  0  0  0
 33 13  1  0  0  0  0
 37 15  1  0  0  0  0
 39 16  1  0  0  0  0
 40 16  1  0  0  0  0
 41 17  1  0  0  0  0
 44 18  1  0  0  0  0
 45 22  1  0  0  0  0
 46 22  1  0  0  0  0
 47 23  1  0  0  0  0
 49 24  1  0  0  0  0
 51 25  1  0  0  0  0
M  END
$$$$
