
     RDKit          3D

 54 56  0  0  0  0  0  0  0  0999 V2000
   -0.1254   -0.1614    0.0670 O   0  0  0  0  0  0  0  0  0  0  0  0
    1.2175   -0.1264    0.0248 C   0  0  0  0  0  0  0  0  0  0  0  0
    1.9177   -0.0950    1.2419 C   0  0  0  0  0  0  0  0  0  0  0  0
    3.3077    0.0285    1.2673 C   0  0  0  0  0  0  0  0  0  0  0  0
    3.9933    0.1270    2.4451 O   0  0  0  0  0  0  0  0  0  0  0  0
    4.0479    0.0881    0.0716 C   0  0  0  0  0  0  0  0  0  0  0  0
    3.3396   -0.0344   -1.1256 C   0  0  0  0  0  0  0  0  0  0  0  0
    1.9470   -0.1299   -1.1867 C   0  0  0  0  0  0  0  0  0  0  0  0
    1.2607   -0.1275   -2.5317 C   0  0  0  0  0  0  0  0  0  0  0  0
    1.1575    1.2304   -3.1043 N   0  0  0  0  0  0  0  0  0  0  0  0
    0.1542    2.0055   -2.6169 C   0  0  0  0  0  0  0  0  0  0  0  0
   -0.7131    1.5271   -1.8717 O   0  0  0  0  0  0  0  0  0  0  0  0
    0.0712    3.4931   -2.9387 C   0  0  0  0  0  0  0  0  0  0  0  0
    1.4048    4.2496   -2.8817 C   0  0  0  0  0  0  0  0  0  0  0  0
    2.1824    4.1889   -4.2001 C   0  0  0  0  0  0  0  0  0  0  0  0
    2.0966    2.8136   -4.8677 C   0  0  0  0  0  0  0  0  0  0  0  0
    2.3167    1.6439   -3.9132 C   0  0  0  0  0  0  0  0  0  0  0  0
    5.5184    0.4294    0.0579 C   0  0  0  0  0  0  0  0  0  0  0  0
    5.7321    1.8933    0.0594 N   0  0  0  0  0  0  0  0  0  0  0  0
    5.5380    2.5293   -1.1385 C   0  0  0  0  0  0  0  0  0  0  0  0
    5.3928    1.8862   -2.1774 O   0  0  0  0  0  0  0  0  0  0  0  0
    5.4607    4.0545   -1.2190 C   0  0  0  0  0  0  0  0  0  0  0  0
    4.7003    4.7509   -0.0867 C   0  0  0  0  0  0  0  0  0  0  0  0
    5.5827    5.0309    1.1335 C   0  0  0  0  0  0  0  0  0  0  0  0
    6.5356    3.8721    1.4427 C   0  0  0  0  0  0  0  0  0  0  0  0
    5.8805    2.4947    1.3897 C   0  0  0  0  0  0  0  0  0  0  0  0
   -0.4808    0.3516   -0.7048 H   0  0  0  0  0  0  0  0  0  0  0  0
    1.3375   -0.1119    2.1685 H   0  0  0  0  0  0  0  0  0  0  0  0
    3.3704    0.0459    3.1790 H   0  0  0  0  0  0  0  0  0  0  0  0
    3.9134   -0.0107   -2.0520 H   0  0  0  0  0  0  0  0  0  0  0  0
    0.2516   -0.5509   -2.4611 H   0  0  0  0  0  0  0  0  0  0  0  0
    1.8338   -0.7340   -3.2459 H   0  0  0  0  0  0  0  0  0  0  0  0
   -0.4146    3.6299   -3.9200 H   0  0  0  0  0  0  0  0  0  0  0  0
   -0.6333    3.8808   -2.1918 H   0  0  0  0  0  0  0  0  0  0  0  0
    1.2153    5.2999   -2.6095 H   0  0  0  0  0  0  0  0  0  0  0  0
    2.0166    3.8334   -2.0630 H   0  0  0  0  0  0  0  0  0  0  0  0
    1.7967    4.9511   -4.8983 H   0  0  0  0  0  0  0  0  0  0  0  0
    3.2393    4.4438   -4.0141 H   0  0  0  0  0  0  0  0  0  0  0  0
    1.1283    2.6832   -5.3786 H   0  0  0  0  0  0  0  0  0  0  0  0
    2.8640    2.7453   -5.6549 H   0  0  0  0  0  0  0  0  0  0  0  0
    2.5846    0.7588   -4.5097 H   0  0  0  0  0  0  0  0  0  0  0  0
    3.1870    1.8458   -3.2641 H   0  0  0  0  0  0  0  0  0  0  0  0
    5.9893    0.0232   -0.8451 H   0  0  0  0  0  0  0  0  0  0  0  0
    6.0271    0.0219    0.9405 H   0  0  0  0  0  0  0  0  0  0  0  0
    6.4813    4.4642   -1.3143 H   0  0  0  0  0  0  0  0  0  0  0  0
    4.9739    4.2351   -2.1867 H   0  0  0  0  0  0  0  0  0  0  0  0
    4.2710    5.6946   -0.4592 H   0  0  0  0  0  0  0  0  0  0  0  0
    3.8394    4.1237    0.2020 H   0  0  0  0  0  0  0  0  0  0  0  0
    6.1746    5.9467    0.9646 H   0  0  0  0  0  0  0  0  0  0  0  0
    4.9452    5.2328    2.0110 H   0  0  0  0  0  0  0  0  0  0  0  0
    7.3991    3.8794    0.7575 H   0  0  0  0  0  0  0  0  0  0  0  0
    6.9538    4.0063    2.4533 H   0  0  0  0  0  0  0  0  0  0  0  0
    6.5002    1.7912    1.9652 H   0  0  0  0  0  0  0  0  0  0  0  0
    4.9050    2.5160    1.9083 H   0  0  0  0  0  0  0  0  0  0  0  0
  1  2  1  0
  1 27  1  0
  2  3  2  0
  2  8  1  0
  3  4  1  0
  3 28  1  0
  4  5  1  0
  4  6  2  0
  5 29  1  0
  6  7  1  0
  6 18  1  0
  7  8  2  0
  7 30  1  0
  8  9  1  0
  9 10  1  0
  9 31  1  0
  9 32  1  0
 10 11  1  0
 10 17  1  0
 11 12  2  0
 11 13  1  0
 13 14  1  0
 13 33  1  0
 13 34  1  0
 14 15  1  0
 14 35  1  0
 14 36  1  0
 15 16  1  0
 15 37  1  0
 15 38  1  0
 16 17  1  0
 16 39  1  0
 16 40  1  0
 17 41  1  0
 17 42  1  0
 18 19  1  0
 18 43  1  0
 18 44  1  0
 19 20  1  0
 19 26  1  0
 20 21  2  0
 20 22  1  0
 22 23  1  0
 22 45  1  0
 22 46  1  0
 23 24  1  0
 23 47  1  0
 23 48  1  0
 24 25  1  0
 24 49  1  0
 24 50  1  0
 25 26  1  0
 25 51  1  0
 25 52  1  0
 26 53  1  0
 26 54  1  0
M  END

