rmsd54.gzmat
 OpenBabel08211713373D

 54 56  0  0  0  0  0  0  0  0999 V2000
    0.0000    0.0000    0.0000 O   0  0  0  0  0  0  0  0  0  0  0  0
    1.3585    0.0000    0.0000 C   0  0  0  0  0  0  0  0  0  0  0  0
    2.0845    0.0000    1.1847 C   0  0  0  0  0  0  0  0  0  0  0  0
    3.4847   -0.0145    1.0923 C   0  0  0  0  0  0  0  0  0  0  0  0
    4.1283   -0.0153    2.2612 O   0  0  0  0  0  0  0  0  0  0  0  0
    4.1363   -0.0524   -0.1558 C   0  0  0  0  0  0  0  0  0  0  0  0
    3.3612   -0.0450   -1.3138 C   0  0  0  0  0  0  0  0  0  0  0  0
    1.9707   -0.0086   -1.2622 C   0  0  0  0  0  0  0  0  0  0  0  0
    1.1612   -0.0143   -2.5236 C   0  0  0  0  0  0  0  0  0  0  0  0
    1.0276   -1.3775   -3.0845 N   0  0  0  0  0  0  0  0  0  0  0  0
    2.0740   -1.8228   -3.8780 C   0  0  0  0  0  0  0  0  0  0  0  0
    2.9284   -1.0240   -4.2325 O   0  0  0  0  0  0  0  0  0  0  0  0
    2.1067   -3.2317   -4.4291 C   0  0  0  0  0  0  0  0  0  0  0  0
    1.9466   -4.3081   -3.3571 C   0  0  0  0  0  0  0  0  0  0  0  0
    0.4730   -4.6551   -3.1069 C   0  0  0  0  0  0  0  0  0  0  0  0
   -0.4238   -3.4127   -3.0667 C   0  0  0  0  0  0  0  0  0  0  0  0
    0.2043   -2.2728   -2.2525 C   0  0  0  0  0  0  0  0  0  0  0  0
    5.6277   -0.1301   -0.2582 C   0  0  0  0  0  0  0  0  0  0  0  0
    6.2739    1.1994   -0.1960 N   0  0  0  0  0  0  0  0  0  0  0  0
    6.7519    1.6349    1.0093 C   0  0  0  0  0  0  0  0  0  0  0  0
    6.6295    0.8906    1.9885 O   0  0  0  0  0  0  0  0  0  0  0  0
    7.4696    2.9458    1.2208 C   0  0  0  0  0  0  0  0  0  0  0  0
    8.0636    3.6047   -0.0192 C   0  0  0  0  0  0  0  0  0  0  0  0
    7.0002    4.3452   -0.8403 C   0  0  0  0  0  0  0  0  0  0  0  0
    5.7476    3.4922   -1.0654 C   0  0  0  0  0  0  0  0  0  0  0  0
    6.1064    2.0360   -1.3939 C   0  0  0  0  0  0  0  0  0  0  0  0
   -0.3708    0.0690    0.9134 H   0  0  0  0  0  0  0  0  0  0  0  0
    1.6127    0.0145    2.1595 H   0  0  0  0  0  0  0  0  0  0  0  0
    5.1194    0.2257    2.1804 H   0  0  0  0  0  0  0  0  0  0  0  0
    3.8459   -0.0847   -2.2986 H   0  0  0  0  0  0  0  0  0  0  0  0
    1.6319    0.6445   -3.2966 H   0  0  0  0  0  0  0  0  0  0  0  0
    0.1368    0.3940   -2.3538 H   0  0  0  0  0  0  0  0  0  0  0  0
    1.3327   -3.3336   -5.2167 H   0  0  0  0  0  0  0  0  0  0  0  0
    3.0772   -3.3624   -4.9589 H   0  0  0  0  0  0  0  0  0  0  0  0
    2.4933   -5.2229   -3.6596 H   0  0  0  0  0  0  0  0  0  0  0  0
    2.4297   -3.9804   -2.4150 H   0  0  0  0  0  0  0  0  0  0  0  0
    0.1102   -5.3437   -3.8942 H   0  0  0  0  0  0  0  0  0  0  0  0
    0.3852   -5.2157   -2.1562 H   0  0  0  0  0  0  0  0  0  0  0  0
   -0.6477   -3.0605   -4.0927 H   0  0  0  0  0  0  0  0  0  0  0  0
   -1.4057   -3.6784   -2.6302 H   0  0  0  0  0  0  0  0  0  0  0  0
   -0.6064   -1.6573   -1.7905 H   0  0  0  0  0  0  0  0  0  0  0  0
    0.8034   -2.6755   -1.4040 H   0  0  0  0  0  0  0  0  0  0  0  0
    5.9357   -0.6161   -1.2166 H   0  0  0  0  0  0  0  0  0  0  0  0
    6.0514   -0.7834    0.5482 H   0  0  0  0  0  0  0  0  0  0  0  0
    6.7660    3.6410    1.7322 H   0  0  0  0  0  0  0  0  0  0  0  0
    8.2729    2.7588    1.9732 H   0  0  0  0  0  0  0  0  0  0  0  0
    8.8568    4.3179    0.2831 H   0  0  0  0  0  0  0  0  0  0  0  0
    8.5797    2.8492   -0.6439 H   0  0  0  0  0  0  0  0  0  0  0  0
    6.7208    5.2895   -0.3348 H   0  0  0  0  0  0  0  0  0  0  0  0
    7.4324    4.6478   -1.8135 H   0  0  0  0  0  0  0  0  0  0  0  0
    5.0856    3.5298   -0.1775 H   0  0  0  0  0  0  0  0  0  0  0  0
    5.1444    3.9208   -1.8894 H   0  0  0  0  0  0  0  0  0  0  0  0
    5.3006    1.5968   -2.0321 H   0  0  0  0  0  0  0  0  0  0  0  0
    7.0438    1.9863   -1.9954 H   0  0  0  0  0  0  0  0  0  0  0  0
  1  2  1  0  0  0  0
  1 27  1  0  0  0  0
  2  3  2  0  0  0  0
  3 28  1  0  0  0  0
  4  3  1  0  0  0  0
  4  5  1  0  0  0  0
  6  4  2  0  0  0  0
  7  8  2  0  0  0  0
  7  6  1  0  0  0  0
  8  2  1  0  0  0  0
  9 32  1  0  0  0  0
  9  8  1  0  0  0  0
 10  9  1  0  0  0  0
 10 17  1  0  0  0  0
 11 10  1  0  0  0  0
 12 11  2  0  0  0  0
 13 11  1  0  0  0  0
 13 14  1  0  0  0  0
 14 15  1  0  0  0  0
 14 36  1  0  0  0  0
 15 16  1  0  0  0  0
 15 38  1  0  0  0  0
 16 40  1  0  0  0  0
 16 17  1  0  0  0  0
 17 41  1  0  0  0  0
 17 42  1  0  0  0  0
 18 19  1  0  0  0  0
 18  6  1  0  0  0  0
 18 44  1  0  0  0  0
 19 20  1  0  0  0  0
 20 22  1  0  0  0  0
 20 21  2  0  0  0  0
 22 45  1  0  0  0  0
 22 46  1  0  0  0  0
 23 47  1  0  0  0  0
 23 22  1  0  0  0  0
 24 49  1  0  0  0  0
 24 23  1  0  0  0  0
 25 24  1  0  0  0  0
 25 51  1  0  0  0  0
 26 25  1  0  0  0  0
 26 19  1  0  0  0  0
 29  5  1  0  0  0  0
 30  7  1  0  0  0  0
 31  9  1  0  0  0  0
 33 13  1  0  0  0  0
 34 13  1  0  0  0  0
 35 14  1  0  0  0  0
 37 15  1  0  0  0  0
 39 16  1  0  0  0  0
 43 18  1  0  0  0  0
 48 23  1  0  0  0  0
 50 24  1  0  0  0  0
 52 25  1  0  0  0  0
 53 26  1  0  0  0  0
 54 26  1  0  0  0  0
M  END
$$$$
