rmsd2.gzmat
 OpenBabel08211713373D

 54 56  0  0  0  0  0  0  0  0999 V2000
    0.0000    0.0000    0.0000 O   0  0  0  0  0  0  0  0  0  0  0  0
    1.3583    0.0000    0.0000 C   0  0  0  0  0  0  0  0  0  0  0  0
    2.0857    0.0000    1.1842 C   0  0  0  0  0  0  0  0  0  0  0  0
    3.4855   -0.0206    1.0903 C   0  0  0  0  0  0  0  0  0  0  0  0
    4.1330   -0.0205    2.2570 O   0  0  0  0  0  0  0  0  0  0  0  0
    4.1360   -0.0708   -0.1582 C   0  0  0  0  0  0  0  0  0  0  0  0
    3.3607   -0.0516   -1.3154 C   0  0  0  0  0  0  0  0  0  0  0  0
    1.9703   -0.0086   -1.2628 C   0  0  0  0  0  0  0  0  0  0  0  0
    1.1608   -0.0027   -2.5242 C   0  0  0  0  0  0  0  0  0  0  0  0
    1.1404   -1.3334   -3.1722 N   0  0  0  0  0  0  0  0  0  0  0  0
    2.1738   -1.6106   -4.0547 C   0  0  0  0  0  0  0  0  0  0  0  0
    2.9332   -0.7110   -4.3821 O   0  0  0  0  0  0  0  0  0  0  0  0
    2.2919   -2.9611   -4.7272 C   0  0  0  0  0  0  0  0  0  0  0  0
    2.3384   -4.1238   -3.7372 C   0  0  0  0  0  0  0  0  0  0  0  0
    0.9356   -4.6444   -3.3951 C   0  0  0  0  0  0  0  0  0  0  0  0
   -0.0826   -3.5146   -3.2031 C   0  0  0  0  0  0  0  0  0  0  0  0
    0.4814   -2.3674   -2.3541 C   0  0  0  0  0  0  0  0  0  0  0  0
    5.6255   -0.1824   -0.2555 C   0  0  0  0  0  0  0  0  0  0  0  0
    6.3024    1.1328   -0.2407 N   0  0  0  0  0  0  0  0  0  0  0  0
    6.7890    1.6010    0.9480 C   0  0  0  0  0  0  0  0  0  0  0  0
    6.6206    0.9135    1.9612 O   0  0  0  0  0  0  0  0  0  0  0  0
    7.5708    2.8831    1.1004 C   0  0  0  0  0  0  0  0  0  0  0  0
    8.2762    3.3848   -0.1551 C   0  0  0  0  0  0  0  0  0  0  0  0
    7.3196    4.1437   -1.0836 C   0  0  0  0  0  0  0  0  0  0  0  0
    5.9908    3.4050   -1.2725 C   0  0  0  0  0  0  0  0  0  0  0  0
    6.2013    1.9009   -1.4910 C   0  0  0  0  0  0  0  0  0  0  0  0
   -0.3711    0.0507    0.9148 H   0  0  0  0  0  0  0  0  0  0  0  0
    1.6161    0.0196    2.1601 H   0  0  0  0  0  0  0  0  0  0  0  0
    5.1192    0.2456    2.1724 H   0  0  0  0  0  0  0  0  0  0  0  0
    3.8436   -0.0856   -2.3006 H   0  0  0  0  0  0  0  0  0  0  0  0
    1.5714    0.7456   -3.2489 H   0  0  0  0  0  0  0  0  0  0  0  0
    0.1043    0.3033   -2.3335 H   0  0  0  0  0  0  0  0  0  0  0  0
    1.4606   -3.0835   -5.4508 H   0  0  0  0  0  0  0  0  0  0  0  0
    3.2151   -2.9484   -5.3487 H   0  0  0  0  0  0  0  0  0  0  0  0
    2.9450   -4.9503   -4.1567 H   0  0  0  0  0  0  0  0  0  0  0  0
    2.8695   -3.8156   -2.8146 H   0  0  0  0  0  0  0  0  0  0  0  0
    0.5824   -5.3240   -4.1943 H   0  0  0  0  0  0  0  0  0  0  0  0
    0.9883   -5.2638   -2.4787 H   0  0  0  0  0  0  0  0  0  0  0  0
   -0.4221   -3.1243   -4.1826 H   0  0  0  0  0  0  0  0  0  0  0  0
   -0.9938   -3.9156   -2.7188 H   0  0  0  0  0  0  0  0  0  0  0  0
   -0.3512   -1.8759   -1.7930 H   0  0  0  0  0  0  0  0  0  0  0  0
    1.1830   -2.7570   -1.5814 H   0  0  0  0  0  0  0  0  0  0  0  0
    5.9233   -0.7120   -1.1937 H   0  0  0  0  0  0  0  0  0  0  0  0
    6.0327   -0.8145    0.5766 H   0  0  0  0  0  0  0  0  0  0  0  0
    6.8866    3.6618    1.5045 H   0  0  0  0  0  0  0  0  0  0  0  0
    8.3163    2.7163    1.9148 H   0  0  0  0  0  0  0  0  0  0  0  0
    9.1174    4.0482    0.1296 H   0  0  0  0  0  0  0  0  0  0  0  0
    8.7463    2.5377   -0.6926 H   0  0  0  0  0  0  0  0  0  0  0  0
    7.1268    5.1570   -0.6819 H   0  0  0  0  0  0  0  0  0  0  0  0
    7.8085    4.3022   -2.0644 H   0  0  0  0  0  0  0  0  0  0  0  0
    5.3209    3.5755   -0.4069 H   0  0  0  0  0  0  0  0  0  0  0  0
    5.4487    3.8286   -2.1416 H   0  0  0  0  0  0  0  0  0  0  0  0
    5.3444    1.5012   -2.0887 H   0  0  0  0  0  0  0  0  0  0  0  0
    7.1204    1.7177   -2.0950 H   0  0  0  0  0  0  0  0  0  0  0  0
  1  2  1  0  0  0  0
  1 27  1  0  0  0  0
  2  3  2  0  0  0  0
  3 28  1  0  0  0  0
  4  3  1  0  0  0  0
  4  5  1  0  0  0  0
  6  4  2  0  0  0  0
  7  8  2  0  0  0  0
  7  6  1  0  0  0  0
  8  2  1  0  0  0  0
  9 32  1  0  0  0  0
  9  8  1  0  0  0  0
 10  9  1  0  0  0  0
 10 17  1  0  0  0  0
 11 10  1  0  0  0  0
 12 11  2  0  0  0  0
 13 11  1  0  0  0  0
 13 14  1  0  0  0  0
 14 15  1  0  0  0  0
 14 36  1  0  0  0  0
 15 16  1  0  0  0  0
 15 38  1  0  0  0  0
 16 40  1  0  0  0  0
 16 17  1  0  0  0  0
 17 41  1  0  0  0  0
 17 42  1  0  0  0  0
 18 19  1  0  0  0  0
 18  6  1  0  0  0  0
 18 44  1  0  0  0  0
 19 20  1  0  0  0  0
 20 22  1  0  0  0  0
 20 21  2  0  0  0  0
 22 45  1  0  0  0  0
 22 46  1  0  0  0  0
 23 47  1  0  0  0  0
 23 22  1  0  0  0  0
 24 49  1  0  0  0  0
 24 23  1  0  0  0  0
 25 24  1  0  0  0  0
 25 51  1  0  0  0  0
 26 25  1  0  0  0  0
 26 19  1  0  0  0  0
 29  5  1  0  0  0  0
 30  7  1  0  0  0  0
 31  9  1  0  0  0  0
 33 13  1  0  0  0  0
 34 13  1  0  0  0  0
 35 14  1  0  0  0  0
 37 15  1  0  0  0  0
 39 16  1  0  0  0  0
 43 18  1  0  0  0  0
 48 23  1  0  0  0  0
 50 24  1  0  0  0  0
 52 25  1  0  0  0  0
 53 26  1  0  0  0  0
 54 26  1  0  0  0  0
M  END
$$$$
