rmsd165.gzmat
 OpenBabel08211713373D

 46 48  0  0  1  0  0  0  0  0999 V2000
    0.0000    0.0000    0.0000 C   0  0  0  0  0  0  0  0  0  0  0  0
    1.3588    0.0000    0.0000 N   0  0  0  0  0  0  0  0  0  0  0  0
    2.0166    0.0000    1.2005 C   0  0  0  0  0  0  0  0  0  0  0  0
    1.3782   -0.0046    2.4211 N   0  0  0  0  0  0  0  0  0  0  0  0
    0.0443    0.0399    2.3870 C   0  0  0  0  0  0  0  0  0  0  0  0
   -0.7288    0.0627    1.2236 C   0  0  1  0  0  0  0  0  0  0  0  0
   -2.4643    0.2594    1.3230 S   0  0  0  0  0  0  0  0  0  0  0  0
   -2.6949    1.9521    0.6852 C   0  0  0  0  0  0  0  0  0  0  0  0
   -0.6639    0.0973    3.9391 Cl  0  0  0  0  0  0  0  0  0  0  0  0
    3.3824   -0.0893    1.1500 N   0  0  0  0  0  0  0  0  0  0  0  0
    4.1768    0.1683    2.3612 C   0  0  0  0  0  0  0  0  0  0  0  0
    4.3198    1.6459    2.6160 C   0  0  0  0  0  0  0  0  0  0  0  0
    3.3989    2.2950    3.4389 C   0  0  0  0  0  0  0  0  0  0  0  0
    3.5112    3.6654    3.6604 C   0  0  0  0  0  0  0  0  0  0  0  0
    4.5437    4.3861    3.0624 C   0  0  0  0  0  0  0  0  0  0  0  0
    5.4654    3.7358    2.2431 C   0  0  0  0  0  0  0  0  0  0  0  0
    5.3544    2.3654    2.0180 C   0  0  0  0  0  0  0  0  0  0  0  0
   -0.6300    0.0957   -1.2489 N   0  0  0  0  0  0  0  0  0  0  0  0
    0.2270    0.4474   -2.4051 C   0  0  0  0  0  0  0  0  0  0  0  0
    0.9318   -0.7831   -3.0224 C   0  0  0  0  0  0  0  0  0  0  0  0
    0.0108   -1.8807   -3.3758 N   0  0  0  0  0  0  0  0  0  0  0  0
   -0.8427   -2.2106   -2.2191 C   0  0  0  0  0  0  0  0  0  0  0  0
   -1.5705   -0.9920   -1.5955 C   0  0  0  0  0  0  0  0  0  0  0  0
   -0.7842   -1.5770   -4.5830 C   0  0  0  0  0  0  0  0  0  0  0  0
   -2.2690    2.0652   -0.3190 H   0  0  0  0  0  0  0  0  0  0  0  0
   -2.2346    2.6974    1.3409 H   0  0  0  0  0  0  0  0  0  0  0  0
   -3.7701    2.1522    0.6303 H   0  0  0  0  0  0  0  0  0  0  0  0
    3.8271    0.1092    0.2580 H   0  0  0  0  0  0  0  0  0  0  0  0
    5.1682   -0.3235    2.2240 H   0  0  0  0  0  0  0  0  0  0  0  0
    3.6940   -0.3415    3.2357 H   0  0  0  0  0  0  0  0  0  0  0  0
    2.5842    1.7283    3.8984 H   0  0  0  0  0  0  0  0  0  0  0  0
    2.7898    4.1723    4.2985 H   0  0  0  0  0  0  0  0  0  0  0  0
    4.6295    5.4569    3.2341 H   0  0  0  0  0  0  0  0  0  0  0  0
    6.2713    4.2994    1.7783 H   0  0  0  0  0  0  0  0  0  0  0  0
    6.0747    1.8626    1.3772 H   0  0  0  0  0  0  0  0  0  0  0  0
    0.9824    1.2045   -2.0981 H   0  0  0  0  0  0  0  0  0  0  0  0
   -0.4373    0.9373   -3.1507 H   0  0  0  0  0  0  0  0  0  0  0  0
    1.5135   -0.4849   -3.9171 H   0  0  0  0  0  0  0  0  0  0  0  0
    1.6686   -1.1953   -2.2904 H   0  0  0  0  0  0  0  0  0  0  0  0
   -1.5845   -2.9801   -2.5166 H   0  0  0  0  0  0  0  0  0  0  0  0
   -0.1848   -2.6875   -1.4553 H   0  0  0  0  0  0  0  0  0  0  0  0
   -2.3104   -0.5669   -2.3097 H   0  0  0  0  0  0  0  0  0  0  0  0
   -2.1496   -1.3257   -0.7086 H   0  0  0  0  0  0  0  0  0  0  0  0
   -1.3808   -2.4650   -4.8492 H   0  0  0  0  0  0  0  0  0  0  0  0
   -0.0985   -1.3861   -5.4246 H   0  0  0  0  0  0  0  0  0  0  0  0
   -1.4621   -0.7176   -4.4860 H   0  0  0  0  0  0  0  0  0  0  0  0
  1  6  1  0  0  0  0
  2  1  2  0  0  0  0
  2  3  2  0  0  0  0
  3  4  2  0  0  0  0
  5  4  2  0  0  0  0
  5  9  1  0  0  0  0
  6  7  1  6  0  0  0
  6  5  1  0  0  0  0
  8  7  1  0  0  0  0
  8 26  1  0  0  0  0
 10  3  1  0  0  0  0
 10 11  1  0  0  0  0
 11 12  1  0  0  0  0
 11 30  1  0  0  0  0
 12 13  2  0  0  0  0
 13 14  1  0  0  0  0
 13 31  1  0  0  0  0
 14 32  1  0  0  0  0
 15 33  1  0  0  0  0
 15 14  2  0  0  0  0
 16 15  1  0  0  0  0
 17 16  2  0  0  0  0
 17 12  1  0  0  0  0
 18  1  1  0  0  0  0
 19 36  1  0  0  0  0
 19 18  1  0  0  0  0
 20 19  1  0  0  0  0
 20 39  1  0  0  0  0
 21 20  1  0  0  0  0
 21 22  1  0  0  0  0
 22 23  1  0  0  0  0
 22 41  1  0  0  0  0
 23 18  1  0  0  0  0
 23 43  1  0  0  0  0
 24 46  1  0  0  0  0
 24 21  1  0  0  0  0
 25  8  1  0  0  0  0
 27  8  1  0  0  0  0
 28 10  1  0  0  0  0
 29 11  1  0  0  0  0
 34 16  1  0  0  0  0
 35 17  1  0  0  0  0
 37 19  1  0  0  0  0
 38 20  1  0  0  0  0
 40 22  1  0  0  0  0
 42 23  1  0  0  0  0
 44 24  1  0  0  0  0
 45 24  1  0  0  0  0
M  RAD  1   6   2
M  END
$$$$
