46

C          0.07200        0.06290        0.02030
N          1.40860        0.15710        0.05060
C          2.03860        0.05980        1.22510
N          1.44270       -0.18180        2.40490
C          0.12600       -0.20880        2.39080
C         -0.67460       -0.05170        1.24670
S         -2.44100        0.09160        1.39830
C         -2.69940        1.73620        0.64630
Cl        -0.62490       -0.48000        3.94870
N          3.39100        0.20690        1.21480
C          4.24210       -0.10020        2.35520
C          4.58330       -1.57280        2.47890
C          5.76290       -2.07950        1.91710
C          6.06060       -3.44320        1.98740
C          5.17650       -4.31750        2.62450
C          3.99840       -3.82060        3.19130
C          3.70210       -2.45780        3.12060
N         -0.51490        0.15350       -1.22370
C          0.32330        0.50690       -2.37440
C          0.85190       -0.75740       -3.06950
N         -0.21090       -1.67850       -3.45740
C         -1.07700       -1.97100       -2.32370
C         -1.62750       -0.71620       -1.62510
C         -0.91020       -1.31720       -4.67430
H         -2.34010        1.76030       -0.39180
H         -2.18770        2.50980        1.23630
H         -3.78350        1.91740        0.66640
H          3.80370        0.21270        0.28960
H          3.72010        0.24500        3.25660
H          5.16500        0.49080        2.25100
H          6.46100       -1.39680        1.42270
H          6.98630       -3.82280        1.54770
H          5.40680       -5.38410        2.68320
H          3.30600       -4.49980        3.69500
H          2.77970       -2.06540        3.55310
H          1.15000        1.14010       -2.03690
H         -0.30700        1.08930       -3.06820
H          1.44050       -0.48610       -3.96080
H          1.52840       -1.27110       -2.36620
H         -1.91140       -2.60930       -2.65720
H         -0.49800       -2.54880       -1.58050
H         -2.27840       -0.14700       -2.31070
H         -2.23060       -0.98590       -0.75150
H         -1.62190       -2.11450       -4.94200
H         -0.18790       -1.22450       -5.50110
H         -1.48440       -0.36480       -4.63150
