rmsd15.gzmat
 OpenBabel08211713373D

 46 48  0  0  1  0  0  0  0  0999 V2000
    0.0000    0.0000    0.0000 C   0  0  0  0  0  0  0  0  0  0  0  0
    1.3571    0.0000    0.0000 N   0  0  0  0  0  0  0  0  0  0  0  0
    2.0145    0.0000    1.2023 C   0  0  0  0  0  0  0  0  0  0  0  0
    1.3747   -0.0456    2.4215 N   0  0  0  0  0  0  0  0  0  0  0  0
    0.0399   -0.0761    2.3850 C   0  0  0  0  0  0  0  0  0  0  0  0
   -0.7330   -0.0492    1.2210 C   0  0  2  0  0  0  0  0  0  0  0  0
   -2.4781   -0.1328    1.3155 S   0  0  0  0  0  0  0  0  0  0  0  0
   -2.8500   -1.7663    0.5960 C   0  0  0  0  0  0  0  0  0  0  0  0
   -0.6713   -0.1766    3.9334 Cl  0  0  0  0  0  0  0  0  0  0  0  0
    3.3734    0.1446    1.1525 N   0  0  0  0  0  0  0  0  0  0  0  0
    4.1904   -0.0580    2.3580 C   0  0  0  0  0  0  0  0  0  0  0  0
    4.6151   -1.4968    2.4901 C   0  0  0  0  0  0  0  0  0  0  0  0
    3.7396   -2.4237    3.0568 C   0  0  0  0  0  0  0  0  0  0  0  0
    4.1201   -3.7585    3.1697 C   0  0  0  0  0  0  0  0  0  0  0  0
    5.3780   -4.1656    2.7264 C   0  0  0  0  0  0  0  0  0  0  0  0
    6.2539   -3.2375    2.1660 C   0  0  0  0  0  0  0  0  0  0  0  0
    5.8729   -1.9024    2.0447 C   0  0  0  0  0  0  0  0  0  0  0  0
   -0.6363   -0.1083   -1.2479 N   0  0  0  0  0  0  0  0  0  0  0  0
   -1.5141    1.0196   -1.6299 C   0  0  0  0  0  0  0  0  0  0  0  0
   -0.7320    2.1642   -2.3238 C   0  0  0  0  0  0  0  0  0  0  0  0
    0.0858    1.7301   -3.4719 N   0  0  0  0  0  0  0  0  0  0  0  0
    0.9601    0.6128   -3.0663 C   0  0  0  0  0  0  0  0  0  0  0  0
    0.2039   -0.5510   -2.3845 C   0  0  0  0  0  0  0  0  0  0  0  0
   -0.7432    1.3942   -4.6472 C   0  0  0  0  0  0  0  0  0  0  0  0
   -2.5487   -2.5791    1.2635 H   0  0  0  0  0  0  0  0  0  0  0  0
   -2.3491   -1.9080   -0.3699 H   0  0  0  0  0  0  0  0  0  0  0  0
   -3.9319   -1.8285    0.4344 H   0  0  0  0  0  0  0  0  0  0  0  0
    3.8289   -0.0149    0.2577 H   0  0  0  0  0  0  0  0  0  0  0  0
    3.6187    0.2701    3.2665 H   0  0  0  0  0  0  0  0  0  0  0  0
    5.0682    0.6277    2.2838 H   0  0  0  0  0  0  0  0  0  0  0  0
    2.7568   -2.0991    3.4086 H   0  0  0  0  0  0  0  0  0  0  0  0
    3.4346   -4.4841    3.6042 H   0  0  0  0  0  0  0  0  0  0  0  0
    5.6764   -5.2080    2.8176 H   0  0  0  0  0  0  0  0  0  0  0  0
    7.2363   -3.5557    1.8231 H   0  0  0  0  0  0  0  0  0  0  0  0
    6.5591   -1.1827    1.6044 H   0  0  0  0  0  0  0  0  0  0  0  0
   -2.0520    1.4282   -0.7477 H   0  0  0  0  0  0  0  0  0  0  0  0
   -2.2923    0.6064   -2.3096 H   0  0  0  0  0  0  0  0  0  0  0  0
   -1.4365    2.9559   -2.6526 H   0  0  0  0  0  0  0  0  0  0  0  0
   -0.0385    2.6434   -1.5940 H   0  0  0  0  0  0  0  0  0  0  0  0
    1.5220    0.2429   -3.9470 H   0  0  0  0  0  0  0  0  0  0  0  0
    1.7194    1.0287   -2.3598 H   0  0  0  0  0  0  0  0  0  0  0  0
   -0.4824   -1.0505   -3.1040 H   0  0  0  0  0  0  0  0  0  0  0  0
    0.9271   -1.3230   -2.0395 H   0  0  0  0  0  0  0  0  0  0  0  0
   -0.0847    1.0912   -5.4775 H   0  0  0  0  0  0  0  0  0  0  0  0
   -1.2784    2.3012   -4.9736 H   0  0  0  0  0  0  0  0  0  0  0  0
   -1.4801    0.5957   -4.4807 H   0  0  0  0  0  0  0  0  0  0  0  0
  1  2  2  0  0  0  0
  1  6  1  0  0  0  0
  2  3  2  0  0  0  0
  3  4  2  0  0  0  0
  5  4  2  0  0  0  0
  5  9  1  0  0  0  0
  6  7  1  6  0  0  0
  6  5  1  0  0  0  0
  8 25  1  0  0  0  0
  8  7  1  0  0  0  0
 10  3  1  0  0  0  0
 10 11  1  0  0  0  0
 11 12  1  0  0  0  0
 11 29  1  0  0  0  0
 12 13  2  0  0  0  0
 13 14  1  0  0  0  0
 13 31  1  0  0  0  0
 14 32  1  0  0  0  0
 15 33  1  0  0  0  0
 15 14  2  0  0  0  0
 16 15  1  0  0  0  0
 17 16  2  0  0  0  0
 17 12  1  0  0  0  0
 18  1  1  0  0  0  0
 19 18  1  0  0  0  0
 19 36  1  0  0  0  0
 20 19  1  0  0  0  0
 20 39  1  0  0  0  0
 21 22  1  0  0  0  0
 21 20  1  0  0  0  0
 22 23  1  0  0  0  0
 22 41  1  0  0  0  0
 23 43  1  0  0  0  0
 23 18  1  0  0  0  0
 24 46  1  0  0  0  0
 24 21  1  0  0  0  0
 26  8  1  0  0  0  0
 27  8  1  0  0  0  0
 28 10  1  0  0  0  0
 30 11  1  0  0  0  0
 34 16  1  0  0  0  0
 35 17  1  0  0  0  0
 37 19  1  0  0  0  0
 38 20  1  0  0  0  0
 40 22  1  0  0  0  0
 42 23  1  0  0  0  0
 44 24  1  0  0  0  0
 45 24  1  0  0  0  0
M  RAD  1   6   2
M  END
$$$$
