46
rmsd149.gzmat
C          0.00000        0.00000        0.00000
N          1.35970        0.00000        0.00000
C          2.01610        0.00000        1.20100
N          1.37960       -0.10520        2.41870
C          0.04500       -0.08480        2.38660
C         -0.72810        0.00860        1.22680
S         -2.45870        0.23730        1.33520
C         -2.63160        1.98350        0.83580
Cl        -0.66830       -0.19410        3.93300
N          3.37480        0.16690        1.15970
C          4.18660       -0.12110        2.35340
C          4.52880       -1.58560        2.42800
C          5.73400       -2.05420        1.90580
C          6.02810       -3.41530        1.95800
C          5.11940       -4.30560        2.52760
C          3.91390       -3.83550        3.04720
C          3.62060       -2.47490        3.00420
N         -0.62990        0.13520       -1.24230
C          0.22190        0.52370       -2.38970
C          0.90350       -0.68920       -3.06500
N         -0.03790       -1.75590       -3.45660
C         -0.88190       -2.12450       -2.30480
C         -1.58850       -0.92490       -1.62220
C         -0.84430       -1.38490       -4.63690
H         -2.16790        2.17150       -0.13980
H         -2.17900        2.65900        1.56800
H         -3.69990        2.21210        0.76070
H          3.82980        0.03790        0.25910
H          3.63540        0.20640        3.27420
H          5.09990        0.51700        2.29880
H          6.44590       -1.36390        1.45920
H          6.96780       -3.78360        1.55270
H          5.35220       -5.36790        2.56820
H          3.20020       -4.53090        3.48540
H          2.67920       -2.10080        3.41600
H          0.99080        1.25650       -2.05830
H         -0.44140        1.05440       -3.10800
H          1.48100       -0.36120       -3.95210
H          1.64110       -1.14220       -2.35870
H         -1.63570       -2.87220       -2.62610
H         -0.22090       -2.64050       -1.56970
H         -2.33170       -0.46120       -2.30880
H         -2.16190       -1.28930       -0.74360
H         -1.41760       -2.26810       -4.96410
H         -0.16910       -1.11410       -5.46510
H         -1.54520       -0.55340       -4.47520
