46
rmsd86.gzmat
C          0.00000        0.00000        0.00000
N          1.35860        0.00000        0.00000
C          2.01560        0.00000        1.20150
N          1.37640        0.07910        2.41960
C          0.04160        0.06810        2.38610
C         -0.73130        0.00440        1.22440
S         -2.47040       -0.15740        1.32710
C         -2.72040       -1.87940        0.78240
Cl        -0.67060        0.15040        3.93480
N          3.37640       -0.13940        1.15660
C          4.18610        0.12230        2.35740
C          4.51010        1.58750        2.48590
C          3.56320        2.45500        3.03230
C          3.84210        3.81550        3.13050
C          5.07110        4.30850        2.69400
C          6.02020        3.43990        2.15780
C          5.74120        2.07870        2.05130
N         -0.63300       -0.15020       -1.24080
C         -1.55280        0.93280       -1.65020
C         -0.81110        2.08410       -2.37690
N          0.01880        1.64870       -3.51540
C          0.92640        0.56620       -3.08850
C          0.20860       -0.60110       -2.37240
C         -0.80020        1.26110       -4.68200
H         -2.25770       -2.59160        1.47180
H         -2.30490       -2.04710       -0.21820
H         -3.79720       -2.07510        0.74860
H          3.82970        0.01190        0.25880
H          5.10750       -0.50150        2.27910
H          3.64020       -0.24240        3.26750
H          2.60220        2.06440        3.37790
H          3.09870        4.49280        3.54690
H          5.28920        5.37160        2.77040
H          6.97940        3.82550        1.81980
H          6.48560        1.40660        1.63070
H         -2.10330        1.34650       -0.77860
H         -2.31670        0.47450       -2.31690
H         -1.54420        2.84130       -2.72430
H         -0.13410        2.60710       -1.66160
H          1.49120        0.18970       -3.96440
H          1.67830        1.02010       -2.39820
H         -0.46980       -1.13690       -3.07320
H          0.95470       -1.34490       -2.01450
H         -0.12950        1.01850       -5.52300
H         -1.40990        2.12450       -4.99570
H         -1.46820        0.40450       -4.51240
