rmsd145.gzmat
 OpenBabel08211713373D

 46 47  0  0  0  0  0  0  0  0999 V2000
    0.0000    0.0000    0.0000 C   0  0  0  0  0  0  0  0  0  0  0  0
    1.3576    0.0000    0.0000 N   0  0  0  0  0  0  0  0  0  0  0  0
    2.0171    0.0000    1.2002 C   0  0  0  0  0  0  0  0  0  0  0  0
    1.3797   -0.0260    2.4209 N   0  0  0  0  0  0  0  0  0  0  0  0
    0.0448   -0.0591    2.3859 C   0  0  0  0  0  0  0  0  0  0  0  0
   -0.7299   -0.0529    1.2230 C   0  0  0  0  0  0  0  0  0  0  0  0
   -2.4722   -0.1862    1.3198 S   0  0  0  0  0  0  0  0  0  0  0  0
   -2.7786   -1.8415    0.6197 C   0  0  0  0  0  0  0  0  0  0  0  0
   -0.6651   -0.1357    3.9362 Cl  0  0  0  0  0  0  0  0  0  0  0  0
    3.3791    0.1263    1.1444 N   0  0  0  0  0  0  0  0  0  0  0  0
    4.1947   -0.1187    2.3432 C   0  0  0  0  0  0  0  0  0  0  0  0
    4.4984   -1.5854    2.5015 C   0  0  0  0  0  0  0  0  0  0  0  0
    5.6489   -2.1299    1.9311 C   0  0  0  0  0  0  0  0  0  0  0  0
    5.9127   -3.4909    2.0698 C   0  0  0  0  0  0  0  0  0  0  0  0
    5.0317   -4.3042    2.7806 C   0  0  0  0  0  0  0  0  0  0  0  0
    3.8827   -3.7580    3.3509 C   0  0  0  0  0  0  0  0  0  0  0  0
    3.6129   -2.3992    3.2091 C   0  0  0  0  0  0  0  0  0  0  0  0
   -0.6321   -0.1041   -1.2498 N   0  0  0  0  0  0  0  0  0  0  0  0
   -1.5324    1.0110   -1.6186 C   0  0  0  0  0  0  0  0  0  0  0  0
   -0.7590    2.1960   -2.2513 C   0  0  0  0  0  0  0  0  0  0  0  0
    0.0929    1.8231   -3.3960 N   0  0  0  0  0  0  0  0  0  0  0  0
    0.9734    0.6995   -3.0221 C   0  0  0  0  0  0  0  0  0  0  0  0
    0.2230   -0.4981   -2.3941 C   0  0  0  0  0  0  0  0  0  0  0  0
   -0.6999    1.5327   -4.6078 C   0  0  0  0  0  0  0  0  0  0  0  0
   -2.3866   -2.6326    1.2660 H   0  0  0  0  0  0  0  0  0  0  0  0
   -2.3237   -1.9505   -0.3728 H   0  0  0  0  0  0  0  0  0  0  0  0
   -3.8611   -1.9744    0.5202 H   0  0  0  0  0  0  0  0  0  0  0  0
    3.8245   -0.0443    0.2462 H   0  0  0  0  0  0  0  0  0  0  0  0
    3.6636    0.2784    3.2479 H   0  0  0  0  0  0  0  0  0  0  0  0
    5.1265    0.4863    2.2421 H   0  0  0  0  0  0  0  0  0  0  0  0
    6.3415   -1.4984    1.3796 H   0  0  0  0  0  0  0  0  0  0  0  0
    6.8066   -3.9196    1.6226 H   0  0  0  0  0  0  0  0  0  0  0  0
    5.2411   -5.3663    2.8896 H   0  0  0  0  0  0  0  0  0  0  0  0
    3.1977   -4.3940    3.9089 H   0  0  0  0  0  0  0  0  0  0  0  0
    2.7072   -1.9683    3.6443 H   0  0  0  0  0  0  0  0  0  0  0  0
   -2.1056    1.3745   -0.7393 H   0  0  0  0  0  0  0  0  0  0  0  0
   -2.2795    0.6007   -2.3339 H   0  0  0  0  0  0  0  0  0  0  0  0
   -1.4709    2.9873   -2.5647 H   0  0  0  0  0  0  0  0  0  0  0  0
   -0.0913    2.6585   -1.4873 H   0  0  0  0  0  0  0  0  0  0  0  0
    1.5517    0.3692   -3.9076 H   0  0  0  0  0  0  0  0  0  0  0  0
    1.7188    1.0968   -2.2901 H   0  0  0  0  0  0  0  0  0  0  0  0
   -0.4505   -0.9769   -3.1388 H   0  0  0  0  0  0  0  0  0  0  0  0
    0.9508   -1.2748   -2.0695 H   0  0  0  0  0  0  0  0  0  0  0  0
   -0.0092    1.3383   -5.4453 H   0  0  0  0  0  0  0  0  0  0  0  0
   -1.2867    2.4271   -4.8751 H   0  0  0  0  0  0  0  0  0  0  0  0
   -1.3866    0.6790   -4.5183 H   0  0  0  0  0  0  0  0  0  0  0  0
  1  2  2  0  0  0  0
  1  6  1  0  0  0  0
  2  3  2  0  0  0  0
  3  4  2  0  0  0  0
  5  4  1  0  0  0  0
  6  7  1  0  0  0  0
  6  5  2  0  0  0  0
  8 25  1  0  0  0  0
  8  7  1  0  0  0  0
 10  3  1  0  0  0  0
 10 11  1  0  0  0  0
 11 12  1  0  0  0  0
 11 29  1  0  0  0  0
 12 17  2  0  0  0  0
 13 14  2  0  0  0  0
 13 12  1  0  0  0  0
 14 15  1  0  0  0  0
 15 33  1  0  0  0  0
 15 16  2  0  0  0  0
 16 34  1  0  0  0  0
 17 16  1  0  0  0  0
 17 35  1  0  0  0  0
 18  1  1  0  0  0  0
 19 18  1  0  0  0  0
 19 36  1  0  0  0  0
 20 19  1  0  0  0  0
 20 39  1  0  0  0  0
 21 22  1  0  0  0  0
 21 20  1  0  0  0  0
 22 23  1  0  0  0  0
 22 41  1  0  0  0  0
 23 43  1  0  0  0  0
 23 18  1  0  0  0  0
 24 46  1  0  0  0  0
 24 21  1  0  0  0  0
 26  8  1  0  0  0  0
 27  8  1  0  0  0  0
 28 10  1  0  0  0  0
 30 11  1  0  0  0  0
 31 13  1  0  0  0  0
 32 14  1  0  0  0  0
 37 19  1  0  0  0  0
 38 20  1  0  0  0  0
 40 22  1  0  0  0  0
 42 23  1  0  0  0  0
 44 24  1  0  0  0  0
 45 24  1  0  0  0  0
M  RAD  2   5   2   9   2
M  END
$$$$
