46
rmsd145.gzmat
C          0.00000        0.00000        0.00000
N          1.35760        0.00000        0.00000
C          2.01710        0.00000        1.20020
N          1.37970       -0.02600        2.42090
C          0.04480       -0.05910        2.38590
C         -0.72990       -0.05290        1.22300
S         -2.47220       -0.18620        1.31980
C         -2.77860       -1.84150        0.61970
Cl        -0.66510       -0.13570        3.93620
N          3.37910        0.12630        1.14440
C          4.19470       -0.11870        2.34320
C          4.49840       -1.58540        2.50150
C          5.64890       -2.12990        1.93110
C          5.91270       -3.49090        2.06980
C          5.03170       -4.30420        2.78060
C          3.88270       -3.75800        3.35090
C          3.61290       -2.39920        3.20910
N         -0.63210       -0.10410       -1.24980
C         -1.53240        1.01100       -1.61860
C         -0.75900        2.19600       -2.25130
N          0.09290        1.82310       -3.39600
C          0.97340        0.69950       -3.02210
C          0.22300       -0.49810       -2.39410
C         -0.69990        1.53270       -4.60780
H         -2.38660       -2.63260        1.26600
H         -2.32370       -1.95050       -0.37280
H         -3.86110       -1.97440        0.52020
H          3.82450       -0.04430        0.24620
H          3.66360        0.27840        3.24790
H          5.12650        0.48630        2.24210
H          6.34150       -1.49840        1.37960
H          6.80660       -3.91960        1.62260
H          5.24110       -5.36630        2.88960
H          3.19770       -4.39400        3.90890
H          2.70720       -1.96830        3.64430
H         -2.10560        1.37450       -0.73930
H         -2.27950        0.60070       -2.33390
H         -1.47090        2.98730       -2.56470
H         -0.09130        2.65850       -1.48730
H          1.55170        0.36920       -3.90760
H          1.71880        1.09680       -2.29010
H         -0.45050       -0.97690       -3.13880
H          0.95080       -1.27480       -2.06950
H         -0.00920        1.33830       -5.44530
H         -1.28670        2.42710       -4.87510
H         -1.38660        0.67900       -4.51830
