46
rmsd191.gzmat
C          0.00000        0.00000        0.00000
N          1.35750        0.00000        0.00000
C          2.01560        0.00000        1.20060
N          1.37760       -0.06400        2.41920
C          0.04240       -0.03980        2.38630
C         -0.73090        0.01150        1.22360
S         -2.47270        0.14850        1.32420
C         -2.77990        1.81130        0.64250
Cl        -0.66900       -0.09220        3.93660
N          3.37950        0.12360        1.15180
C          4.18670       -0.20320        2.33860
C          4.45720       -1.68320        2.41210
C          5.61960       -2.21400        1.85340
C          5.84650       -3.58800        1.90210
C          4.91390       -4.42960        2.50630
C          3.75440       -3.89690        3.06780
C          3.52630       -2.52370        3.02360
N         -0.63660        0.12190       -1.24560
C          0.20530        0.56220       -2.38230
C          0.96710       -0.60320       -3.05580
N          0.10030       -1.72940       -3.45290
C         -0.72620       -2.15230       -2.30690
C         -1.51740       -1.00160       -1.63470
C         -0.71840       -1.41200       -4.64060
H         -2.35320        1.92080       -0.36230
H         -2.36210        2.59490        1.28120
H         -3.86370        1.95510        0.57500
H          3.82290       -0.02700        0.24790
H          3.66030        0.15280        3.26310
H          5.13010        0.38850        2.27410
H          6.34990       -1.56150        1.38030
H          6.75240       -4.00440        1.46670
H          5.09100       -5.50270        2.54010
H          3.02610       -4.55270        3.54100
H          2.61770       -2.10230        3.46180
H          0.92430        1.33820       -2.03850
H         -0.48030        1.05520       -3.10650
H          1.52680       -0.23660       -3.93920
H          1.72840       -1.00950       -2.34590
H         -1.42470       -2.95060       -2.63150
H         -0.03760       -2.62020       -1.56470
H         -2.28070       -0.58890       -2.33110
H         -2.07430       -1.39950       -0.75980
H         -1.27620       -2.31450       -4.94080
H         -0.04850       -1.15380       -5.47750
H         -1.43460       -0.58960       -4.50270
