rmsd203.gzmat
 OpenBabel08211713373D

 46 48  0  0  1  0  0  0  0  0999 V2000
    0.0000    0.0000    0.0000 C   0  0  0  0  0  0  0  0  0  0  0  0
    1.3567    0.0000    0.0000 N   0  0  0  0  0  0  0  0  0  0  0  0
    2.0134    0.0000    1.2026 C   0  0  0  0  0  0  0  0  0  0  0  0
    1.3734   -0.0262    2.4216 N   0  0  0  0  0  0  0  0  0  0  0  0
    0.0386   -0.0572    2.3857 C   0  0  0  0  0  0  0  0  0  0  0  0
   -0.7330   -0.0503    1.2209 C   0  0  2  0  0  0  0  0  0  0  0  0
   -2.4764   -0.1762    1.3119 S   0  0  0  0  0  0  0  0  0  0  0  0
   -2.7885   -1.8293    0.6095 C   0  0  0  0  0  0  0  0  0  0  0  0
   -0.6728   -0.1330    3.9350 Cl  0  0  0  0  0  0  0  0  0  0  0  0
    3.3756    0.1247    1.1540 N   0  0  0  0  0  0  0  0  0  0  0  0
    4.1832   -0.1392    2.3551 C   0  0  0  0  0  0  0  0  0  0  0  0
    4.5005   -1.6063    2.4773 C   0  0  0  0  0  0  0  0  0  0  0  0
    5.7021   -2.1073    1.9773 C   0  0  0  0  0  0  0  0  0  0  0  0
    5.9817   -3.4684    2.0796 C   0  0  0  0  0  0  0  0  0  0  0  0
    5.0605   -4.3275    2.6760 C   0  0  0  0  0  0  0  0  0  0  0  0
    3.8581   -3.8257    3.1719 C   0  0  0  0  0  0  0  0  0  0  0  0
    3.5779   -2.4649    3.0754 C   0  0  0  0  0  0  0  0  0  0  0  0
   -0.6407   -0.1015   -1.2474 N   0  0  0  0  0  0  0  0  0  0  0  0
   -1.4953    1.0480   -1.6204 C   0  0  0  0  0  0  0  0  0  0  0  0
   -0.6754    2.1884   -2.2751 C   0  0  0  0  0  0  0  0  0  0  0  0
    0.1318    1.7615   -3.4333 N   0  0  0  0  0  0  0  0  0  0  0  0
    0.9740    0.6092   -3.0587 C   0  0  0  0  0  0  0  0  0  0  0  0
    0.1928   -0.5458   -2.3882 C   0  0  0  0  0  0  0  0  0  0  0  0
   -0.7026    1.4807   -4.6191 C   0  0  0  0  0  0  0  0  0  0  0  0
   -2.3363   -2.6197    1.2153 H   0  0  0  0  0  0  0  0  0  0  0  0
   -2.3975   -1.9112   -0.4121 H   0  0  0  0  0  0  0  0  0  0  0  0
   -3.8719   -1.9878    0.5799 H   0  0  0  0  0  0  0  0  0  0  0  0
    3.8253   -0.0398    0.2568 H   0  0  0  0  0  0  0  0  0  0  0  0
    3.6412    0.2284    3.2660 H   0  0  0  0  0  0  0  0  0  0  0  0
    5.1082    0.4800    2.2778 H   0  0  0  0  0  0  0  0  0  0  0  0
    6.4227   -1.4414    1.5089 H   0  0  0  0  0  0  0  0  0  0  0  0
    6.9198   -3.8610    1.6934 H   0  0  0  0  0  0  0  0  0  0  0  0
    5.2810   -5.3901    2.7542 H   0  0  0  0  0  0  0  0  0  0  0  0
    3.1364   -4.4966    3.6341 H   0  0  0  0  0  0  0  0  0  0  0  0
    2.6361   -2.0681    3.4639 H   0  0  0  0  0  0  0  0  0  0  0  0
   -2.0419    1.4452   -0.7388 H   0  0  0  0  0  0  0  0  0  0  0  0
   -2.2677    0.6628   -2.3226 H   0  0  0  0  0  0  0  0  0  0  0  0
   -1.3498    3.0141   -2.5806 H   0  0  0  0  0  0  0  0  0  0  0  0
    0.0314    2.6208   -1.5284 H   0  0  0  0  0  0  0  0  0  0  0  0
    1.5133    0.2386   -3.9530 H   0  0  0  0  0  0  0  0  0  0  0  0
    1.7533    0.9882   -2.3535 H   0  0  0  0  0  0  0  0  0  0  0  0
   -0.5018   -1.0249   -3.1137 H   0  0  0  0  0  0  0  0  0  0  0  0
    0.8998   -1.3353   -2.0498 H   0  0  0  0  0  0  0  0  0  0  0  0
   -0.0402    1.2630   -5.4735 H   0  0  0  0  0  0  0  0  0  0  0  0
   -1.2762    2.3859   -4.8774 H   0  0  0  0  0  0  0  0  0  0  0  0
   -1.4051    0.6431   -4.5023 H   0  0  0  0  0  0  0  0  0  0  0  0
  1  2  2  0  0  0  0
  1  6  1  0  0  0  0
  2  3  2  0  0  0  0
  3  4  2  0  0  0  0
  5  4  2  0  0  0  0
  5  9  1  0  0  0  0
  6  7  1  6  0  0  0
  6  5  1  0  0  0  0
  8 25  1  0  0  0  0
  8  7  1  0  0  0  0
 10  3  1  0  0  0  0
 10 11  1  0  0  0  0
 11 12  1  0  0  0  0
 11 29  1  0  0  0  0
 12 17  2  0  0  0  0
 13 14  2  0  0  0  0
 13 12  1  0  0  0  0
 14 15  1  0  0  0  0
 15 33  1  0  0  0  0
 15 16  2  0  0  0  0
 16 34  1  0  0  0  0
 17 16  1  0  0  0  0
 17 35  1  0  0  0  0
 18  1  1  0  0  0  0
 19 18  1  0  0  0  0
 19 36  1  0  0  0  0
 20 19  1  0  0  0  0
 20 39  1  0  0  0  0
 21 22  1  0  0  0  0
 21 20  1  0  0  0  0
 22 23  1  0  0  0  0
 22 41  1  0  0  0  0
 23 43  1  0  0  0  0
 23 18  1  0  0  0  0
 24 46  1  0  0  0  0
 24 21  1  0  0  0  0
 26  8  1  0  0  0  0
 27  8  1  0  0  0  0
 28 10  1  0  0  0  0
 30 11  1  0  0  0  0
 31 13  1  0  0  0  0
 32 14  1  0  0  0  0
 37 19  1  0  0  0  0
 38 20  1  0  0  0  0
 40 22  1  0  0  0  0
 42 23  1  0  0  0  0
 44 24  1  0  0  0  0
 45 24  1  0  0  0  0
M  RAD  1   6   2
M  END
$$$$
