46

C          0.14130        0.04430       -0.08630
N          1.48070        0.09250       -0.09230
C          2.13330        0.09140        1.07380
N          1.55590        0.01040        2.28430
C          0.23970        0.04590        2.29870
C         -0.58100        0.09760        1.15910
S         -2.33390        0.34950        1.32200
C         -2.52390        1.92060        0.40920
Cl        -0.48030        0.05080        3.89470
N          3.49120        0.13760        1.02460
C          4.33090        0.33360        2.19720
C          4.44230        1.78280        2.63150
C          3.48820        2.34610        3.49350
C          3.57070        3.69300        3.85350
C          4.60500        4.49400        3.35960
C          5.56090        3.94040        2.50380
C          5.47740        2.59270        2.14440
N         -0.47150        0.02600       -1.32070
C          0.35060        0.22110       -2.51950
C          0.81120       -1.13050       -3.08660
N         -0.29690       -2.04160       -3.35240
C         -1.14640       -2.17590       -2.17700
C         -1.62820       -0.83240       -1.60380
C         -1.01080       -1.78140       -4.58650
H         -2.18540        1.81880       -0.63130
H         -1.96080        2.72170        0.90850
H         -3.59660        2.16050        0.42710
H          3.87560        0.32710        0.10710
H          5.32930       -0.06440        1.95980
H          3.90980       -0.27240        3.00980
H          2.67590        1.72020        3.86790
H          2.82310        4.12000        4.52680
H          4.66850        5.54700        3.64480
H          6.37630        4.55810        2.11900
H          6.23170        2.16120        1.47920
H          1.20960        0.85150       -2.26860
H         -0.27360        0.75270       -3.25810
H          1.38780       -0.98010       -4.01370
H          1.48420       -1.59490       -2.34660
H         -2.01380       -2.80930       -2.42440
H         -0.57330       -2.69670       -1.38840
H         -2.27320       -0.31090       -2.33160
H         -2.21920       -0.98230       -0.69410
H         -1.76040       -2.57140       -4.75330
H         -0.30580       -1.80740       -5.43300
H         -1.54480       -0.80610       -4.63390
