46
rmsd165.gzmat
C          0.00000        0.00000        0.00000
N          1.35880        0.00000        0.00000
C          2.01660        0.00000        1.20050
N          1.37820       -0.00460        2.42110
C          0.04430        0.03990        2.38700
C         -0.72880        0.06270        1.22360
S         -2.46430        0.25940        1.32300
C         -2.69490        1.95210        0.68520
Cl        -0.66390        0.09730        3.93910
N          3.38240       -0.08930        1.15000
C          4.17680        0.16830        2.36120
C          4.31980        1.64590        2.61600
C          3.39890        2.29500        3.43890
C          3.51120        3.66540        3.66040
C          4.54370        4.38610        3.06240
C          5.46540        3.73580        2.24310
C          5.35440        2.36540        2.01800
N         -0.63000        0.09570       -1.24890
C          0.22700        0.44740       -2.40510
C          0.93180       -0.78310       -3.02240
N          0.01080       -1.88070       -3.37580
C         -0.84270       -2.21060       -2.21910
C         -1.57050       -0.99200       -1.59550
C         -0.78420       -1.57700       -4.58300
H         -2.26900        2.06520       -0.31900
H         -2.23460        2.69740        1.34090
H         -3.77010        2.15220        0.63030
H          3.82710        0.10920        0.25800
H          5.16820       -0.32350        2.22400
H          3.69400       -0.34150        3.23570
H          2.58420        1.72830        3.89840
H          2.78980        4.17230        4.29850
H          4.62950        5.45690        3.23410
H          6.27130        4.29940        1.77830
H          6.07470        1.86260        1.37720
H          0.98240        1.20450       -2.09810
H         -0.43730        0.93730       -3.15070
H          1.51350       -0.48490       -3.91710
H          1.66860       -1.19530       -2.29040
H         -1.58450       -2.98010       -2.51660
H         -0.18480       -2.68750       -1.45530
H         -2.31040       -0.56690       -2.30970
H         -2.14960       -1.32570       -0.70860
H         -1.38080       -2.46500       -4.84920
H         -0.09850       -1.38610       -5.42460
H         -1.46210       -0.71760       -4.48600
