39
rmsd172.gzmat
N          0.00000        0.00000        0.00000
H          0.99850        0.00000        0.00000
C         -0.77730        0.00000       -1.16330
C         -2.13410        0.00560       -0.79260
C         -2.17380        0.01610        0.62320
C         -3.33330        0.03660        1.53890
C         -2.89510       -0.40270        2.94960
C         -1.62450        0.34010        3.39290
C         -0.42060       -0.03130        2.50300
C         -0.84420        0.00610        1.08560
C         -3.27930       -0.01480       -1.68260
C         -3.40980       -1.03070       -2.63490
C         -4.52200       -1.05930       -3.47230
C         -5.50210       -0.07370       -3.36670
C         -5.36910        0.94410       -2.42370
C         -4.26230        0.97430       -1.57960
C         -0.11400        0.01090       -2.45400
O          1.08650        0.02400       -2.61860
O         -1.00440        0.00980       -3.47220
C         -0.46880       -0.03020       -4.79850
C         -0.05290       -1.45280       -5.13500
H         -3.77280        1.05610        1.57730
H         -4.14580       -0.62240        1.16880
H         -3.71170       -0.22030        3.67000
H         -2.71400       -1.49420        2.95670
H         -1.39610        0.10790        4.44800
H         -1.79790        1.43230        3.34560
H         -0.05690       -1.04800        2.76750
H          0.42510        0.65680        2.70160
H         -2.63520       -1.79120       -2.72330
H         -4.62330       -1.85120       -4.21060
H         -6.37010       -0.09750       -4.02000
H         -6.12940        1.71750       -2.34870
H         -4.15300        1.76920       -0.84480
H          0.36440        0.68880       -4.89200
H         -1.33820        0.31610       -5.38950
H          0.80950       -1.76330       -4.52670
H          0.23060       -1.54910       -6.18840
H         -0.86360       -2.16440       -4.93640
