39
rmsd140.gzmat
N          0.00000        0.00000        0.00000
H          0.99820        0.00000        0.00000
C         -0.78000        0.00000       -1.16120
C         -2.13600        0.01440       -0.78780
C         -2.17220        0.02610        0.62770
C         -3.33160        0.05520        1.54270
C         -2.89320       -0.35240        2.96280
C         -1.61570        0.39060        3.38490
C         -0.41780       -0.01910        2.50420
C         -0.84190        0.01180        1.08730
C         -3.28030        0.01340       -1.67960
C         -3.44200       -1.01630       -2.61200
C         -4.54330       -1.01470       -3.46410
C         -5.48320        0.01230       -3.39110
C         -5.32280        1.03950       -2.46230
C         -4.22490        1.04170       -1.60580
C         -0.12500        0.01020       -2.45630
O          1.07180        0.07820       -2.63170
O         -1.02330       -0.06510       -3.46480
C         -0.50370       -0.06980       -4.79710
C          0.04420       -1.44610       -5.13450
H         -3.77920        1.07170        1.55750
H         -4.13750       -0.61840        1.18390
H         -3.70600       -0.14690        3.68100
H         -2.71940       -1.44450        2.99630
H         -1.38920        0.18760        4.44640
H         -1.77790        1.48280        3.30360
H         -0.07760       -1.04090        2.78000
H          0.44210        0.65200        2.69800
H         -2.69900       -1.81010       -2.67240
H         -4.66760       -1.81550       -4.18890
H         -6.33970        0.01300       -4.06020
H         -6.05250        1.84360       -2.40950
H         -4.09050        1.84610       -0.88570
H          0.25480        0.72570       -4.90690
H         -1.41110        0.18630       -5.37720
H          0.95650       -1.65870       -4.55790
H          0.29880       -1.52520       -6.19630
H         -0.68030       -2.23520       -4.90080
