39
rmsd171.gzmat
N          0.00000        0.00000        0.00000
H          0.99860        0.00000        0.00000
C         -0.77860        0.00000       -1.16260
C         -2.13510        0.00000       -0.79120
C         -2.17310        0.00690        0.62480
C         -3.33220        0.01990        1.54090
C         -2.89120       -0.41670        2.95150
C         -1.62460        0.33310        3.39470
C         -0.41860       -0.02870        2.50360
C         -0.84330        0.00170        1.08640
C         -3.28390       -0.01960       -1.67670
C         -3.41660       -1.02870       -2.63600
C         -4.53410       -1.05490       -3.46650
C         -5.51900       -0.07570       -3.34540
C         -5.38450        0.93430       -2.39410
C         -4.27050        0.96390       -1.55950
C         -0.11730        0.01680       -2.45390
O          1.08260        0.00190       -2.62210
O         -1.00990        0.05970       -3.46920
C         -0.47580        0.01980       -4.79610
C         -0.13160       -1.41610       -5.15630
H         -3.77810        1.03660        1.57910
H         -4.14020       -0.64430        1.17020
H         -3.70940       -0.23990        3.67180
H         -2.70260       -1.50700        2.95840
H         -1.39350        0.10000        4.44890
H         -1.80530        1.42420        3.35080
H         -0.04310       -1.04010        2.77120
H          0.42010        0.66920        2.69820
H         -2.64050       -1.78620       -2.73320
H         -4.63730       -1.84050       -4.21110
H         -6.39100       -0.09900       -3.99410
H         -6.14900        1.70210       -2.30410
H         -4.15800        1.75400       -0.82000
H          0.39220        0.69800       -4.87700
H         -1.32550        0.41950       -5.38150
H          0.71510       -1.77990       -4.55580
H          0.14600       -1.50930       -6.21120
H         -0.97790       -2.08820       -4.96750
