rmsd158.gzmat
 OpenBabel08211713373D

 39 41  0  0  0  0  0  0  0  0999 V2000
    0.0000    0.0000    0.0000 N   0  0  0  0  0  0  0  0  0  0  0  0
    0.9983    0.0000    0.0000 H   0  0  0  0  0  0  0  0  0  0  0  0
   -0.7806    0.0000   -1.1607 C   0  0  0  0  0  0  0  0  0  0  0  0
   -2.1357   -0.0298   -0.7866 C   0  0  0  0  0  0  0  0  0  0  0  0
   -2.1722   -0.0415    0.6293 C   0  0  0  0  0  0  0  0  0  0  0  0
   -3.3317   -0.0296    1.5450 C   0  0  0  0  0  0  0  0  0  0  0  0
   -2.8853   -0.3846    2.9768 C   0  0  0  0  0  0  0  0  0  0  0  0
   -1.6207    0.3932    3.3747 C   0  0  0  0  0  0  0  0  0  0  0  0
   -0.4169   -0.0231    2.5049 C   0  0  0  0  0  0  0  0  0  0  0  0
   -0.8416   -0.0194    1.0876 C   0  0  0  0  0  0  0  0  0  0  0  0
   -3.2818   -0.0466   -1.6763 C   0  0  0  0  0  0  0  0  0  0  0  0
   -4.1787   -1.1188   -1.6361 C   0  0  0  0  0  0  0  0  0  0  0  0
   -5.2915   -1.1240   -2.4728 C   0  0  0  0  0  0  0  0  0  0  0  0
   -5.5108   -0.0636   -3.3512 C   0  0  0  0  0  0  0  0  0  0  0  0
   -4.6105    0.9991   -3.4006 C   0  0  0  0  0  0  0  0  0  0  0  0
   -3.4959    1.0105   -2.5656 C   0  0  0  0  0  0  0  0  0  0  0  0
   -0.1285    0.0057   -2.4573 C   0  0  0  0  0  0  0  0  0  0  0  0
    1.0639   -0.1055   -2.6397 O   0  0  0  0  0  0  0  0  0  0  0  0
   -1.0211    0.1791   -3.4593 O   0  0  0  0  0  0  0  0  0  0  0  0
   -0.5139    0.0888   -4.7945 C   0  0  0  0  0  0  0  0  0  0  0  0
   -0.3666   -1.3736   -5.1789 C   0  0  0  0  0  0  0  0  0  0  0  0
   -3.8119    0.9725    1.5316 H   0  0  0  0  0  0  0  0  0  0  0  0
   -4.1166   -0.7352    1.2047 H   0  0  0  0  0  0  0  0  0  0  0  0
   -3.7024   -0.1696    3.6879 H   0  0  0  0  0  0  0  0  0  0  0  0
   -2.6923   -1.4714    3.0467 H   0  0  0  0  0  0  0  0  0  0  0  0
   -1.3900    0.2277    4.4415 H   0  0  0  0  0  0  0  0  0  0  0  0
   -1.8024    1.4792    3.2589 H   0  0  0  0  0  0  0  0  0  0  0  0
   -0.0674   -1.0354    2.8018 H   0  0  0  0  0  0  0  0  0  0  0  0
    0.4370    0.6597    2.6841 H   0  0  0  0  0  0  0  0  0  0  0  0
   -3.9964   -1.9489   -0.9567 H   0  0  0  0  0  0  0  0  0  0  0  0
   -5.9893   -1.9575   -2.4429 H   0  0  0  0  0  0  0  0  0  0  0  0
   -6.3842   -0.0663   -3.9981 H   0  0  0  0  0  0  0  0  0  0  0  0
   -4.7763    1.8208   -4.0936 H   0  0  0  0  0  0  0  0  0  0  0  0
   -2.7857    1.8350   -2.6039 H   0  0  0  0  0  0  0  0  0  0  0  0
    0.4357    0.6471   -4.8774 H   0  0  0  0  0  0  0  0  0  0  0  0
   -1.3110    0.6040   -5.3629 H   0  0  0  0  0  0  0  0  0  0  0  0
    0.4429   -1.8518   -4.6090 H   0  0  0  0  0  0  0  0  0  0  0  0
   -0.1363   -1.4884   -6.2429 H   0  0  0  0  0  0  0  0  0  0  0  0
   -1.2867   -1.9341   -4.9680 H   0  0  0  0  0  0  0  0  0  0  0  0
  1  2  1  0  0  0  0
  1 10  1  0  0  0  0
  3  4  2  0  0  0  0
  3  1  1  0  0  0  0
  4  5  1  0  0  0  0
  5 10  2  0  0  0  0
  5  6  1  0  0  0  0
  6  7  1  0  0  0  0
  7 25  1  0  0  0  0
  7  8  1  0  0  0  0
  7 24  1  0  0  0  0
  8 26  1  0  0  0  0
  9 29  1  0  0  0  0
  9 28  1  0  0  0  0
  9  8  1  0  0  0  0
 10  9  1  0  0  0  0
 11 12  1  0  0  0  0
 11  4  1  0  0  0  0
 12 30  1  0  0  0  0
 13 31  1  0  0  0  0
 13 12  2  0  0  0  0
 14 13  1  0  0  0  0
 15 14  2  0  0  0  0
 15 16  1  0  0  0  0
 16 11  2  0  0  0  0
 17  3  1  0  0  0  0
 18 17  2  0  0  0  0
 19 17  1  0  0  0  0
 20 19  1  0  0  0  0
 21 39  1  0  0  0  0
 21 20  1  0  0  0  0
 21 37  1  0  0  0  0
 22  6  1  0  0  0  0
 23  6  1  0  0  0  0
 27  8  1  0  0  0  0
 32 14  1  0  0  0  0
 33 15  1  0  0  0  0
 34 16  1  0  0  0  0
 35 20  1  0  0  0  0
 36 20  1  0  0  0  0
 38 21  1  0  0  0  0
M  END
$$$$
