39

N         -0.06770       -0.05860       -0.04920
H          0.94530       -0.08570       -0.07940
C         -0.82560       -0.06330       -1.20300
C         -2.17750        0.01970       -0.82530
C         -2.19210        0.08180        0.60320
C         -3.34630        0.13860        1.56480
C         -2.89580       -0.29800        2.96830
C         -1.59110        0.39490        3.38590
C         -0.42030        0.00140        2.46890
C         -0.87070        0.02790        1.04320
C         -3.37770        0.00590       -1.68320
C         -3.54740       -0.95410       -2.69680
C         -4.70500       -0.97630       -3.47390
C         -5.72180       -0.04140       -3.25370
C         -5.56990        0.91460       -2.24660
C         -4.41070        0.93540       -1.46820
C         -0.08620       -0.06130       -2.46140
O          1.13110       -0.11090       -2.50790
O         -0.87090        0.01480       -3.54960
C         -0.22350        0.01450       -4.82970
C          0.09870       -1.39620       -5.29210
H         -3.75100        1.16610        1.62000
H         -4.17820       -0.48960        1.20700
H         -3.68930       -0.08320        3.70170
H         -2.74220       -1.39210        2.97950
H         -1.34110        0.15200        4.43050
H         -1.73560        1.48880        3.34070
H         -0.06700       -1.01440        2.72950
H          0.44050        0.67460        2.62500
H         -2.76020       -1.68860       -2.86800
H         -4.81780       -1.73280       -4.25480
H         -6.62870       -0.06050       -3.86290
H         -6.35640        1.65200       -2.06730
H         -4.29150        1.69530       -0.69360
H          0.68970        0.62470       -4.77060
H         -0.94180        0.50260       -5.50340
H          0.83070       -1.86470       -4.61840
H          0.52960       -1.37190       -6.30570
H         -0.81040       -2.01690       -5.31880
