39
rmsd73.gzmat
N          0.00000        0.00000        0.00000
H          0.99840        0.00000        0.00000
C         -0.77940        0.00000       -1.16200
C         -2.13490       -0.02260       -0.78950
C         -2.17280       -0.02860        0.62660
C         -3.33220       -0.01090        1.54210
C         -2.89040       -0.39070        2.96890
C         -1.62050        0.36970        3.38250
C         -0.41960       -0.03600        2.50430
C         -0.84240       -0.01440        1.08670
C         -3.28120       -0.04940       -1.67870
C         -4.18910       -1.11030       -1.60280
C         -5.30310       -1.13210       -2.43710
C         -5.51430       -0.09870       -3.34870
C         -4.60450        0.95400       -3.43220
C         -3.48820        0.98150       -2.59960
C         -0.12040       -0.00240       -2.45480
O          1.07850       -0.05630       -2.62340
O         -1.01040        0.08400       -3.47010
C         -0.48010       -0.01000       -4.79640
C         -0.21240       -1.46710       -5.13260
H         -3.79890        0.99780        1.54130
H         -4.12650       -0.70180        1.19310
H         -3.70670       -0.18050        3.68240
H         -2.70680       -1.48040        3.02140
H         -1.39040        0.17850        4.44540
H         -1.79380        1.45940        3.29370
H         -0.07300       -1.05390        2.78600
H          0.43590        0.64160        2.69420
H         -4.01670       -1.91830       -0.89450
H         -6.00920       -1.95650       -2.37460
H         -6.38910       -0.11440       -3.99350
H         -4.76600        1.75610       -4.14870
H         -2.77130        1.79880       -2.66430
H          0.42350        0.61910       -4.88630
H         -1.30750        0.42240       -5.38980
H          0.62450       -1.86160       -4.53820
H          0.04050       -1.59610       -6.18990
H         -1.08780       -2.09270       -4.91530
