39
rmsd139.gzmat
N          0.00000        0.00000        0.00000
H          0.99830        0.00000        0.00000
C         -0.77860        0.00000       -1.16220
C         -2.13490        0.01820       -0.79070
C         -2.17320        0.02720        0.62540
C         -3.33260        0.05390        1.54110
C         -2.89430       -0.34850        2.96290
C         -1.61920        0.39920        3.38470
C         -0.41950       -0.00650        2.50440
C         -0.84320        0.01310        1.08650
C         -3.27670        0.03670       -1.68550
C         -3.44630       -0.97260       -2.63830
C         -4.54940       -0.94660       -3.48810
C         -5.48230        0.08470       -3.39230
C         -5.31100        1.09450       -2.44670
C         -4.21210        1.07180       -1.59220
C         -0.12050        0.00240       -2.45560
O          1.07800        0.05490       -2.62660
O         -1.01600       -0.06050       -3.46780
C         -0.48790       -0.09490       -4.79680
C          0.02670       -1.49070       -5.10730
H         -3.78410        1.06850        1.55540
H         -4.13550       -0.62290        1.18210
H         -3.70890       -0.14320        3.67980
H         -2.71760       -1.43990        3.00230
H         -1.39190        0.19580        4.44600
H         -1.78490        1.49080        3.30700
H         -0.07050       -1.02250        2.78970
H          0.43570        0.67300        2.69100
H         -2.70790       -1.76950       -2.71810
H         -4.68000       -1.73060       -4.23030
H         -6.34280        0.10290       -4.05590
H         -6.03370        1.90360       -2.37700
H         -4.07090        1.86150       -0.85710
H          0.29070        0.67980       -4.91090
H         -1.38380        0.17560       -5.38800
H          0.95160       -1.70210       -4.55070
H          0.24600       -1.60840       -6.17320
H         -0.70530       -2.25750       -4.82480
