rmsd171.gzmat
 OpenBabel08211713373D

 39 41  0  0  0  0  0  0  0  0999 V2000
    0.0000    0.0000    0.0000 N   0  0  0  0  0  0  0  0  0  0  0  0
    0.9986    0.0000    0.0000 H   0  0  0  0  0  0  0  0  0  0  0  0
   -0.7786    0.0000   -1.1626 C   0  0  0  0  0  0  0  0  0  0  0  0
   -2.1351    0.0000   -0.7912 C   0  0  0  0  0  0  0  0  0  0  0  0
   -2.1731    0.0069    0.6248 C   0  0  0  0  0  0  0  0  0  0  0  0
   -3.3322    0.0199    1.5409 C   0  0  0  0  0  0  0  0  0  0  0  0
   -2.8912   -0.4167    2.9515 C   0  0  0  0  0  0  0  0  0  0  0  0
   -1.6246    0.3331    3.3947 C   0  0  0  0  0  0  0  0  0  0  0  0
   -0.4186   -0.0287    2.5036 C   0  0  0  0  0  0  0  0  0  0  0  0
   -0.8433    0.0017    1.0864 C   0  0  0  0  0  0  0  0  0  0  0  0
   -3.2839   -0.0196   -1.6767 C   0  0  0  0  0  0  0  0  0  0  0  0
   -3.4166   -1.0287   -2.6360 C   0  0  0  0  0  0  0  0  0  0  0  0
   -4.5341   -1.0549   -3.4665 C   0  0  0  0  0  0  0  0  0  0  0  0
   -5.5190   -0.0757   -3.3454 C   0  0  0  0  0  0  0  0  0  0  0  0
   -5.3845    0.9343   -2.3941 C   0  0  0  0  0  0  0  0  0  0  0  0
   -4.2705    0.9639   -1.5595 C   0  0  0  0  0  0  0  0  0  0  0  0
   -0.1173    0.0168   -2.4539 C   0  0  0  0  0  0  0  0  0  0  0  0
    1.0826    0.0019   -2.6221 O   0  0  0  0  0  0  0  0  0  0  0  0
   -1.0099    0.0597   -3.4692 O   0  0  0  0  0  0  0  0  0  0  0  0
   -0.4758    0.0198   -4.7961 C   0  0  0  0  0  0  0  0  0  0  0  0
   -0.1316   -1.4161   -5.1563 C   0  0  0  0  0  0  0  0  0  0  0  0
   -3.7781    1.0366    1.5791 H   0  0  0  0  0  0  0  0  0  0  0  0
   -4.1402   -0.6443    1.1702 H   0  0  0  0  0  0  0  0  0  0  0  0
   -3.7094   -0.2399    3.6718 H   0  0  0  0  0  0  0  0  0  0  0  0
   -2.7026   -1.5070    2.9584 H   0  0  0  0  0  0  0  0  0  0  0  0
   -1.3935    0.1000    4.4489 H   0  0  0  0  0  0  0  0  0  0  0  0
   -1.8053    1.4242    3.3508 H   0  0  0  0  0  0  0  0  0  0  0  0
   -0.0431   -1.0401    2.7712 H   0  0  0  0  0  0  0  0  0  0  0  0
    0.4201    0.6692    2.6982 H   0  0  0  0  0  0  0  0  0  0  0  0
   -2.6405   -1.7862   -2.7332 H   0  0  0  0  0  0  0  0  0  0  0  0
   -4.6373   -1.8405   -4.2111 H   0  0  0  0  0  0  0  0  0  0  0  0
   -6.3910   -0.0990   -3.9941 H   0  0  0  0  0  0  0  0  0  0  0  0
   -6.1490    1.7021   -2.3041 H   0  0  0  0  0  0  0  0  0  0  0  0
   -4.1580    1.7540   -0.8200 H   0  0  0  0  0  0  0  0  0  0  0  0
    0.3922    0.6980   -4.8770 H   0  0  0  0  0  0  0  0  0  0  0  0
   -1.3255    0.4195   -5.3815 H   0  0  0  0  0  0  0  0  0  0  0  0
    0.7151   -1.7799   -4.5558 H   0  0  0  0  0  0  0  0  0  0  0  0
    0.1460   -1.5093   -6.2112 H   0  0  0  0  0  0  0  0  0  0  0  0
   -0.9779   -2.0882   -4.9675 H   0  0  0  0  0  0  0  0  0  0  0  0
  1  2  1  0  0  0  0
  1 10  1  0  0  0  0
  3  4  2  0  0  0  0
  3  1  1  0  0  0  0
  4  5  1  0  0  0  0
  5 10  2  0  0  0  0
  5  6  1  0  0  0  0
  6 22  1  0  0  0  0
  6  7  1  0  0  0  0
  7 25  1  0  0  0  0
  7  8  1  0  0  0  0
  7 24  1  0  0  0  0
  8 26  1  0  0  0  0
  9 29  1  0  0  0  0
  9 28  1  0  0  0  0
  9  8  1  0  0  0  0
 10  9  1  0  0  0  0
 11 16  1  0  0  0  0
 11  4  1  0  0  0  0
 12 11  2  0  0  0  0
 13 14  2  0  0  0  0
 13 12  1  0  0  0  0
 14 15  1  0  0  0  0
 15 33  1  0  0  0  0
 15 16  2  0  0  0  0
 16 34  1  0  0  0  0
 17  3  1  0  0  0  0
 18 17  2  0  0  0  0
 19 17  1  0  0  0  0
 20 19  1  0  0  0  0
 21 39  1  0  0  0  0
 21 20  1  0  0  0  0
 21 37  1  0  0  0  0
 23  6  1  0  0  0  0
 27  8  1  0  0  0  0
 30 12  1  0  0  0  0
 31 13  1  0  0  0  0
 32 14  1  0  0  0  0
 35 20  1  0  0  0  0
 36 20  1  0  0  0  0
 38 21  1  0  0  0  0
M  END
$$$$
