
     RDKit          3D

 54 54  0  0  0  0  0  0  0  0999 V2000
    0.3921   -0.6685    0.3572 C   0  0  0  0  0  0  0  0  0  0  0  0
    1.5442   -0.8497    0.6664 O   0  0  0  0  0  0  0  0  0  0  0  0
   -0.0211   -0.6131   -0.9235 O   0  0  0  0  0  0  0  0  0  0  0  0
   -0.7449   -0.4217    1.3460 C   0  0  1  0  0  0  0  0  0  0  0  0
   -1.6135   -1.0010    0.9948 H   0  0  0  0  0  0  0  0  0  0  0  0
   -0.4114   -0.8360    2.6958 N   0  0  0  0  0  0  0  0  0  0  0  0
   -1.1549    1.0649    1.3005 C   0  0  0  0  0  0  0  0  0  0  0  0
   -0.0491    2.0224    1.7464 C   0  0  0  0  0  0  0  0  0  0  0  0
   -0.5898    3.3968    2.0793 C   0  0  0  0  0  0  0  0  0  0  0  0
   -1.6476    3.5209    2.7046 O   0  0  0  0  0  0  0  0  0  0  0  0
    0.1551    4.4523    1.6935 N   0  0  0  0  0  0  0  0  0  0  0  0
   -0.1566    5.8154    2.0492 C   0  0  1  0  0  0  0  0  0  0  0  0
   -1.2268    5.8733    2.2850 H   0  0  0  0  0  0  0  0  0  0  0  0
    0.6534    6.3137    3.2766 C   0  0  0  0  0  0  0  0  0  0  0  0
    0.7341    5.1591    4.6792 S   0  0  0  0  0  0  0  0  0  0  0  0
   -0.9479    5.4496    5.4734 C   0  0  2  0  0  0  0  0  0  0  0  0
   -0.9387    6.4673    5.8864 H   0  0  0  0  0  0  0  0  0  0  0  0
   -1.0454    4.5870    6.6587 N   0  0  0  0  0  0  0  0  0  0  0  0
   -0.5052    5.2780    7.7661 O   0  0  0  0  0  0  0  0  0  0  0  0
   -0.5849    3.2462    6.5908 C   0  0  0  0  0  0  0  0  0  0  0  0
    0.3963    2.7598    7.4682 C   0  0  0  0  0  0  0  0  0  0  0  0
    0.8625    1.4491    7.3494 C   0  0  0  0  0  0  0  0  0  0  0  0
    0.3548    0.6244    6.3448 C   0  0  0  0  0  0  0  0  0  0  0  0
   -0.6415    1.0829    5.4788 C   0  0  0  0  0  0  0  0  0  0  0  0
   -1.1203    2.3855    5.6173 C   0  0  0  0  0  0  0  0  0  0  0  0
    1.1186   -1.3524    6.1258 I   0  0  0  0  0  0  0  0  0  0  0  0
   -1.9935    5.3485    4.5961 O   0  0  0  0  0  0  0  0  0  0  0  0
    0.1893    6.7024    0.8506 C   0  0  0  0  0  0  0  0  0  0  0  0
    1.0530    6.3803    0.0471 O   0  0  0  0  0  0  0  0  0  0  0  0
   -0.4736    7.8805    0.7921 N   0  0  0  0  0  0  0  0  0  0  0  0
   -0.1823    8.8633   -0.2184 C   0  0  0  0  0  0  0  0  0  0  0  0
   -0.9756   10.1189    0.0652 C   0  0  0  0  0  0  0  0  0  0  0  0
   -1.7515   10.2403    0.9811 O   0  0  0  0  0  0  0  0  0  0  0  0
   -0.7185   11.0798   -0.8294 O   0  0  0  0  0  0  0  0  0  0  0  0
    0.7660   -0.7362   -1.4826 H   0  0  0  0  0  0  0  0  0  0  0  0
   -0.4956   -1.8458    2.7999 H   0  0  0  0  0  0  0  0  0  0  0  0
    0.5686   -0.6293    2.8970 H   0  0  0  0  0  0  0  0  0  0  0  0
   -2.0126    1.1917    1.9752 H   0  0  0  0  0  0  0  0  0  0  0  0
   -1.4883    1.3219    0.2826 H   0  0  0  0  0  0  0  0  0  0  0  0
    0.7691    2.0845    1.0117 H   0  0  0  0  0  0  0  0  0  0  0  0
    0.3925    1.6645    2.6928 H   0  0  0  0  0  0  0  0  0  0  0  0
    0.9731    4.3262    1.1043 H   0  0  0  0  0  0  0  0  0  0  0  0
    0.2682    7.2924    3.6029 H   0  0  0  0  0  0  0  0  0  0  0  0
    1.7024    6.4569    2.9734 H   0  0  0  0  0  0  0  0  0  0  0  0
   -1.2627    5.3718    8.3627 H   0  0  0  0  0  0  0  0  0  0  0  0
    0.8041    3.4224    8.2289 H   0  0  0  0  0  0  0  0  0  0  0  0
    1.6342    1.0867    8.0304 H   0  0  0  0  0  0  0  0  0  0  0  0
   -1.0284    0.4383    4.6865 H   0  0  0  0  0  0  0  0  0  0  0  0
   -1.9022    2.7313    4.9457 H   0  0  0  0  0  0  0  0  0  0  0  0
   -1.8783    4.6066    3.9510 H   0  0  0  0  0  0  0  0  0  0  0  0
   -1.2022    8.1185    1.4602 H   0  0  0  0  0  0  0  0  0  0  0  0
   -0.4335    8.5064   -1.2336 H   0  0  0  0  0  0  0  0  0  0  0  0
    0.8934    9.1075   -0.2490 H   0  0  0  0  0  0  0  0  0  0  0  0
   -1.2633   11.8509   -0.5943 H   0  0  0  0  0  0  0  0  0  0  0  0
  1  2  2  0
  1  3  1  0
  1  4  1  0
  3 35  1  0
  4  5  1  6
  4  6  1  0
  4  7  1  0
  6 36  1  0
  6 37  1  0
  7  8  1  0
  7 38  1  0
  7 39  1  0
  8  9  1  0
  8 40  1  0
  8 41  1  0
  9 10  2  0
  9 11  1  0
 11 12  1  0
 11 42  1  0
 12 13  1  1
 12 14  1  0
 12 28  1  0
 14 15  1  0
 14 43  1  0
 14 44  1  0
 15 16  1  0
 16 17  1  1
 16 18  1  0
 16 27  1  0
 18 19  1  0
 18 20  1  0
 19 45  1  0
 20 21  2  0
 20 25  1  0
 21 22  1  0
 21 46  1  0
 22 23  2  0
 22 47  1  0
 23 24  1  0
 23 26  1  0
 24 25  2  0
 24 48  1  0
 25 49  1  0
 27 50  1  0
 28 29  2  0
 28 30  1  0
 30 31  1  0
 30 51  1  0
 31 32  1  0
 31 52  1  0
 31 53  1  0
 32 33  2  0
 32 34  1  0
 34 54  1  0
M  END

