rmsd163.gzmat
 OpenBabel08211713423D

 54 54  0  0  1  0  0  0  0  0999 V2000
    0.0000    0.0000    0.0000 C   0  0  0  0  0  0  0  0  0  0  0  0
    1.2057    0.0000    0.0000 O   0  0  0  0  0  0  0  0  0  0  0  0
   -0.6886    0.0000   -1.1635 O   0  0  0  0  0  0  0  0  0  0  0  0
   -0.9315    0.0038    1.2078 C   0  0  1  0  0  0  0  0  0  0  0  0
   -0.5579    0.8094    1.9121 H   0  0  0  0  0  0  0  0  0  0  0  0
   -2.3290    0.3090    0.8929 N   0  0  0  0  0  0  0  0  0  0  0  0
   -0.8754   -1.3742    1.9053 C   0  0  0  0  0  0  0  0  0  0  0  0
    0.5225   -1.8018    2.3538 C   0  0  0  0  0  0  0  0  0  0  0  0
    1.0697   -0.8432    3.3852 C   0  0  0  0  0  0  0  0  0  0  0  0
    0.9345   -0.9908    4.5862 O   0  0  0  0  0  0  0  0  0  0  0  0
    1.7418    0.2491    2.8814 N   0  0  0  0  0  0  0  0  0  0  0  0
    2.1509    1.3274    3.7689 C   0  0  1  0  0  0  0  0  0  0  0  0
    2.0798    0.9743    4.8378 H   0  0  0  0  0  0  0  0  0  0  0  0
    3.5685    1.8093    3.4554 C   0  0  0  0  0  0  0  0  0  0  0  0
    4.8276    0.4985    3.6927 S   0  0  0  0  0  0  0  0  0  0  0  0
    4.4383   -0.1759    5.4116 C   0  0  2  0  0  0  0  0  0  0  0  0
    3.5646   -0.8800    5.3599 H   0  0  0  0  0  0  0  0  0  0  0  0
    4.1624    0.9820    6.2858 N   0  0  0  0  0  0  0  0  0  0  0  0
    5.4184    1.5358    6.6451 O   0  0  0  0  0  0  0  0  0  0  0  0
    3.4211    0.7412    7.4872 C   0  0  0  0  0  0  0  0  0  0  0  0
    3.7751    1.3814    8.6826 C   0  0  0  0  0  0  0  0  0  0  0  0
    2.9377    1.2977    9.7910 C   0  0  0  0  0  0  0  0  0  0  0  0
    1.7534    0.5725    9.6996 C   0  0  0  0  0  0  0  0  0  0  0  0
    1.4018   -0.0889    8.5262 C   0  0  0  0  0  0  0  0  0  0  0  0
    2.2391   -0.0092    7.4177 C   0  0  0  0  0  0  0  0  0  0  0  0
    0.4625    0.4801   11.3705 I   0  0  0  0  0  0  0  0  0  0  0  0
    5.4867   -0.9679    5.8292 O   0  0  0  0  0  0  0  0  0  0  0  0
    1.1766    2.4997    3.5238 C   0  0  0  0  0  0  0  0  0  0  0  0
    0.8881    2.8537    2.3972 O   0  0  0  0  0  0  0  0  0  0  0  0
    0.6262    3.1689    4.5910 N   0  0  0  0  0  0  0  0  0  0  0  0
    0.7797    2.7507    5.9821 C   0  0  0  0  0  0  0  0  0  0  0  0
   -0.1618    3.5522    6.8499 C   0  0  0  0  0  0  0  0  0  0  0  0
   -0.9292    4.4132    6.5127 O   0  0  0  0  0  0  0  0  0  0  0  0
   -0.0355    3.1623    8.1378 O   0  0  0  0  0  0  0  0  0  0  0  0
   -0.1099    0.0281   -1.9689 H   0  0  0  0  0  0  0  0  0  0  0  0
   -2.4479    1.2598    0.5741 H   0  0  0  0  0  0  0  0  0  0  0  0
   -2.7183   -0.3184    0.2050 H   0  0  0  0  0  0  0  0  0  0  0  0
   -1.3074   -2.1510    1.2424 H   0  0  0  0  0  0  0  0  0  0  0  0
   -1.5602   -1.3355    2.7853 H   0  0  0  0  0  0  0  0  0  0  0  0
    1.2119   -1.9021    1.4884 H   0  0  0  0  0  0  0  0  0  0  0  0
    0.4742   -2.8178    2.8070 H   0  0  0  0  0  0  0  0  0  0  0  0
    1.8440    0.3962    1.8777 H   0  0  0  0  0  0  0  0  0  0  0  0
    3.8174    2.6938    4.0712 H   0  0  0  0  0  0  0  0  0  0  0  0
    3.6546    2.1309    2.3938 H   0  0  0  0  0  0  0  0  0  0  0  0
    5.4310    2.3982    6.1320 H   0  0  0  0  0  0  0  0  0  0  0  0
    4.7056    1.9451    8.7523 H   0  0  0  0  0  0  0  0  0  0  0  0
    3.2286    1.8063   10.7115 H   0  0  0  0  0  0  0  0  0  0  0  0
    0.4813   -0.6723    8.4480 H   0  0  0  0  0  0  0  0  0  0  0  0
    1.9555   -0.5462    6.5065 H   0  0  0  0  0  0  0  0  0  0  0  0
    6.2888   -0.4445    6.0749 H   0  0  0  0  0  0  0  0  0  0  0  0
   -0.0293    3.9312    4.4138 H   0  0  0  0  0  0  0  0  0  0  0  0
    1.8347    2.8998    6.3326 H   0  0  0  0  0  0  0  0  0  0  0  0
    0.5554    1.6557    6.1114 H   0  0  0  0  0  0  0  0  0  0  0  0
   -0.6395    3.6427    8.7621 H   0  0  0  0  0  0  0  0  0  0  0  0
  1  4  1  0  0  0  0
  2  1  2  0  0  0  0
  3  1  1  0  0  0  0
  4  7  1  0  0  0  0
  4  5  1  1  0  0  0
  6  4  1  0  0  0  0
  7  8  1  0  0  0  0
  7 39  1  0  0  0  0
  8 41  1  0  0  0  0
  8  9  1  0  0  0  0
  9 10  2  0  0  0  0
 11  9  1  0  0  0  0
 11 12  1  0  0  0  0
 12 13  1  1  0  0  0
 14 15  1  0  0  0  0
 14 12  1  0  0  0  0
 14 43  1  0  0  0  0
 15 16  1  0  0  0  0
 16 17  1  6  0  0  0
 16 27  1  0  0  0  0
 16 18  1  0  0  0  0
 18 19  1  0  0  0  0
 18 20  1  0  0  0  0
 20 21  1  0  0  0  0
 21 46  1  0  0  0  0
 21 22  2  0  0  0  0
 22 47  1  0  0  0  0
 23 22  1  0  0  0  0
 23 26  1  0  0  0  0
 24 23  2  0  0  0  0
 25 20  2  0  0  0  0
 25 24  1  0  0  0  0
 27 50  1  0  0  0  0
 28 12  1  0  0  0  0
 28 30  1  0  0  0  0
 29 28  2  0  0  0  0
 30 31  1  0  0  0  0
 31 53  1  0  0  0  0
 31 52  1  0  0  0  0
 31 32  1  0  0  0  0
 32 34  1  0  0  0  0
 33 32  2  0  0  0  0
 34 54  1  0  0  0  0
 35  3  1  0  0  0  0
 36  6  1  0  0  0  0
 37  6  1  0  0  0  0
 38  7  1  0  0  0  0
 40  8  1  0  0  0  0
 42 11  1  0  0  0  0
 44 14  1  0  0  0  0
 45 19  1  0  0  0  0
 48 24  1  0  0  0  0
 49 25  1  0  0  0  0
 51 30  1  0  0  0  0
M  END
$$$$
