54

C         -0.00390       -1.03400        0.70160
O          0.76350       -1.87620        1.09350
O         -0.31950       -0.87390       -0.60170
C         -0.82000       -0.08280        1.57080
H         -0.92330        0.86310        1.01290
N         -2.16620       -0.63730        1.74130
C         -0.13790        0.18010        2.91790
C         -0.59220        1.43810        3.68260
C         -1.91990        1.39660        4.43570
O         -1.97870        1.67900        5.63630
N         -3.00730        1.08980        3.69590
C         -4.35040        1.02540        4.24870
H         -4.44700        1.83730        4.98630
C         -5.38200        1.15140        3.13080
S         -4.86220        2.43060        1.92650
C         -6.31440        2.31170        0.79780
H         -7.20870        2.68040        1.32750
N         -6.69850        0.96770        0.36820
O         -7.68150        0.44640        1.22820
C         -5.74440        0.00940       -0.03770
C         -5.91380       -1.34890        0.27470
C         -5.01060       -2.30330       -0.19510
C         -3.92470       -1.90710       -0.97750
C         -3.72870       -0.55360       -1.27680
C         -4.63230        0.40090       -0.80890
I         -2.58280       -3.38340       -1.71470
O         -5.96220        3.10920       -0.29250
C         -4.52240       -0.33420        4.96250
O         -5.20210       -1.24290        4.51410
N         -3.77120       -0.45220        6.09590
C         -3.46110       -1.77110        6.56650
C         -2.53260       -2.52120        5.61590
O         -2.04230       -2.06640        4.61030
O         -2.31360       -3.77520        6.03550
H          0.09290       -1.60230       -1.09780
H         -2.62620       -0.82070        0.85090
H         -2.14330       -1.49530        2.29590
H          0.93920        0.29130        2.72110
H         -0.23990       -0.71470        3.55000
H         -0.63100        2.29560        2.98750
H          0.15770        1.67840        4.44790
H         -2.84680        0.53870        2.82490
H         -6.36970        1.39050        3.54890
H         -5.47030        0.18200        2.62390
H         -8.46530        0.34740        0.66680
H         -6.74940       -1.65410        0.90080
H         -5.16050       -3.35370        0.05850
H         -2.86540       -0.23560       -1.86220
H         -4.48320        1.45280       -1.04420
H         -6.68650        3.05720       -0.93350
H         -3.10120        0.30630        6.26910
H         -4.37610       -2.37410        6.66900
H         -2.98350       -1.72860        7.55720
H         -1.71660       -4.19600        5.39250
