
     RDKit          3D

 54 54  0  0  0  0  0  0  0  0999 V2000
   -0.2751    0.0616   -0.3291 C   0  0  0  0  0  0  0  0  0  0  0  0
    0.9043   -0.1650   -0.4075 O   0  0  0  0  0  0  0  0  0  0  0  0
   -1.0347    0.3659   -1.4098 O   0  0  0  0  0  0  0  0  0  0  0  0
   -1.0935    0.0619    0.9525 C   0  0  1  0  0  0  0  0  0  0  0  0
   -2.0653   -0.3946    0.7207 H   0  0  0  0  0  0  0  0  0  0  0  0
   -0.4795   -0.7283    2.0155 N   0  0  0  0  0  0  0  0  0  0  0  0
   -1.3306    1.5045    1.4549 C   0  0  0  0  0  0  0  0  0  0  0  0
   -2.2965    2.3649    0.6239 C   0  0  0  0  0  0  0  0  0  0  0  0
   -3.6904    1.7638    0.6327 C   0  0  0  0  0  0  0  0  0  0  0  0
   -4.5183    2.0293    1.5031 O   0  0  0  0  0  0  0  0  0  0  0  0
   -3.9266    0.8564   -0.3450 N   0  0  0  0  0  0  0  0  0  0  0  0
   -5.1594    0.0885   -0.4116 C   0  0  1  0  0  0  0  0  0  0  0  0
   -5.9917    0.7607   -0.1669 H   0  0  0  0  0  0  0  0  0  0  0  0
   -5.3610   -0.5285   -1.7937 C   0  0  0  0  0  0  0  0  0  0  0  0
   -5.0346    0.5590   -3.2196 S   0  0  0  0  0  0  0  0  0  0  0  0
   -6.5715    1.6067   -3.3327 C   0  0  2  0  0  0  0  0  0  0  0  0
   -7.1248    1.2574   -4.2185 H   0  0  0  0  0  0  0  0  0  0  0  0
   -6.2786    3.0051   -3.6291 N   0  0  0  0  0  0  0  0  0  0  0  0
   -6.0180    3.1119   -5.0116 O   0  0  0  0  0  0  0  0  0  0  0  0
   -5.3399    3.7269   -2.8415 C   0  0  0  0  0  0  0  0  0  0  0  0
   -4.3094    4.4666   -3.4397 C   0  0  0  0  0  0  0  0  0  0  0  0
   -3.4281    5.2153   -2.6573 C   0  0  0  0  0  0  0  0  0  0  0  0
   -3.5710    5.2267   -1.2688 C   0  0  0  0  0  0  0  0  0  0  0  0
   -4.5923    4.4937   -0.6594 C   0  0  0  0  0  0  0  0  0  0  0  0
   -5.4715    3.7479   -1.4426 C   0  0  0  0  0  0  0  0  0  0  0  0
   -2.2279    6.3629   -0.0766 I   0  0  0  0  0  0  0  0  0  0  0  0
   -7.3097    1.4663   -2.1611 O   0  0  0  0  0  0  0  0  0  0  0  0
   -5.0765   -1.0428    0.6412 C   0  0  0  0  0  0  0  0  0  0  0  0
   -4.6620   -2.1576    0.3584 O   0  0  0  0  0  0  0  0  0  0  0  0
   -5.4477   -0.6779    1.8967 N   0  0  0  0  0  0  0  0  0  0  0  0
   -5.1701   -1.5841    2.9921 C   0  0  0  0  0  0  0  0  0  0  0  0
   -3.6783   -1.8044    3.2563 C   0  0  0  0  0  0  0  0  0  0  0  0
   -3.2064   -2.8495    3.6269 O   0  0  0  0  0  0  0  0  0  0  0  0
   -2.9773   -0.6879    3.0477 O   0  0  0  0  0  0  0  0  0  0  0  0
   -0.4512    0.3799   -2.1889 H   0  0  0  0  0  0  0  0  0  0  0  0
   -0.2729   -1.6728    1.6863 H   0  0  0  0  0  0  0  0  0  0  0  0
    0.4188   -0.3234    2.2860 H   0  0  0  0  0  0  0  0  0  0  0  0
   -0.3574    2.0190    1.5303 H   0  0  0  0  0  0  0  0  0  0  0  0
   -1.7359    1.4175    2.4728 H   0  0  0  0  0  0  0  0  0  0  0  0
   -1.9356    2.4954   -0.4060 H   0  0  0  0  0  0  0  0  0  0  0  0
   -2.3620    3.3586    1.0842 H   0  0  0  0  0  0  0  0  0  0  0  0
   -3.2245    0.7149   -1.0650 H   0  0  0  0  0  0  0  0  0  0  0  0
   -6.3716   -0.9496   -1.8649 H   0  0  0  0  0  0  0  0  0  0  0  0
   -4.6565   -1.3652   -1.9140 H   0  0  0  0  0  0  0  0  0  0  0  0
   -6.6883    3.7351   -5.3300 H   0  0  0  0  0  0  0  0  0  0  0  0
   -4.1965    4.4445   -4.5216 H   0  0  0  0  0  0  0  0  0  0  0  0
   -2.6299    5.7829   -3.1384 H   0  0  0  0  0  0  0  0  0  0  0  0
   -4.7110    4.4806    0.4240 H   0  0  0  0  0  0  0  0  0  0  0  0
   -6.2578    3.1751   -0.9574 H   0  0  0  0  0  0  0  0  0  0  0  0
   -8.1266    1.9762   -2.2701 H   0  0  0  0  0  0  0  0  0  0  0  0
   -5.4508    0.3288    2.0763 H   0  0  0  0  0  0  0  0  0  0  0  0
   -5.6055   -2.5715    2.7928 H   0  0  0  0  0  0  0  0  0  0  0  0
   -5.6280   -1.1815    3.9090 H   0  0  0  0  0  0  0  0  0  0  0  0
   -1.9935   -0.8652    3.0188 H   0  0  0  0  0  0  0  0  0  0  0  0
  1  2  2  0
  1  3  1  0
  1  4  1  0
  3 35  1  0
  4  5  1  6
  4  6  1  0
  4  7  1  0
  6 36  1  0
  6 37  1  0
  7  8  1  0
  7 38  1  0
  7 39  1  0
  8  9  1  0
  8 40  1  0
  8 41  1  0
  9 10  2  0
  9 11  1  0
 11 12  1  0
 11 42  1  0
 12 13  1  1
 12 14  1  0
 12 28  1  0
 14 15  1  0
 14 43  1  0
 14 44  1  0
 15 16  1  0
 16 17  1  6
 16 18  1  0
 16 27  1  0
 18 19  1  0
 18 20  1  0
 19 45  1  0
 20 21  2  0
 20 25  1  0
 21 22  1  0
 21 46  1  0
 22 23  2  0
 22 47  1  0
 23 24  1  0
 23 26  1  0
 24 25  2  0
 24 48  1  0
 25 49  1  0
 27 50  1  0
 28 29  2  0
 28 30  1  0
 30 31  1  0
 30 51  1  0
 31 32  1  0
 31 52  1  0
 31 53  1  0
 32 33  2  0
 32 34  1  0
 34 54  1  0
M  END

