
     RDKit          3D

 54 54  0  0  0  0  0  0  0  0999 V2000
   -0.1024    0.6804    0.1401 C   0  0  0  0  0  0  0  0  0  0  0  0
    1.0853    0.4396    0.0661 O   0  0  0  0  0  0  0  0  0  0  0  0
   -0.8113    1.1036   -0.9154 O   0  0  0  0  0  0  0  0  0  0  0  0
   -0.9339    0.5052    1.4068 C   0  0  1  0  0  0  0  0  0  0  0  0
   -0.2740    0.8540    2.2097 H   0  0  0  0  0  0  0  0  0  0  0  0
   -2.1577    1.2788    1.4857 N   0  0  0  0  0  0  0  0  0  0  0  0
   -1.2377   -0.9959    1.6202 C   0  0  0  0  0  0  0  0  0  0  0  0
   -0.0102   -1.9079    1.8105 C   0  0  0  0  0  0  0  0  0  0  0  0
    0.7571   -1.4501    3.0398 C   0  0  0  0  0  0  0  0  0  0  0  0
    0.4120   -1.7807    4.1711 O   0  0  0  0  0  0  0  0  0  0  0  0
    1.7548   -0.5565    2.7983 N   0  0  0  0  0  0  0  0  0  0  0  0
    2.2763    0.2954    3.8712 C   0  0  1  0  0  0  0  0  0  0  0  0
    2.4227   -0.3256    4.7639 H   0  0  0  0  0  0  0  0  0  0  0  0
    3.5907    0.9399    3.4364 C   0  0  0  0  0  0  0  0  0  0  0  0
    4.6932    1.4992    4.7809 S   0  0  0  0  0  0  0  0  0  0  0  0
    3.5660    2.6926    5.6484 C   0  0  2  0  0  0  0  0  0  0  0  0
    3.0826    3.3055    4.8746 H   0  0  0  0  0  0  0  0  0  0  0  0
    4.3155    3.6298    6.4710 N   0  0  0  0  0  0  0  0  0  0  0  0
    4.7651    4.6996    5.6738 O   0  0  0  0  0  0  0  0  0  0  0  0
    5.2882    3.1796    7.3904 C   0  0  0  0  0  0  0  0  0  0  0  0
    5.0934    1.9783    8.1010 C   0  0  0  0  0  0  0  0  0  0  0  0
    6.0315    1.5586    9.0417 C   0  0  0  0  0  0  0  0  0  0  0  0
    7.1682    2.3323    9.2927 C   0  0  0  0  0  0  0  0  0  0  0  0
    7.3713    3.5249    8.5982 C   0  0  0  0  0  0  0  0  0  0  0  0
    6.4368    3.9448    7.6502 C   0  0  0  0  0  0  0  0  0  0  0  0
    8.5907    1.6892   10.7362 I   0  0  0  0  0  0  0  0  0  0  0  0
    2.6433    1.9637    6.3862 O   0  0  0  0  0  0  0  0  0  0  0  0
    1.1863    1.3500    4.1442 C   0  0  0  0  0  0  0  0  0  0  0  0
    1.1802    2.4539    3.6076 O   0  0  0  0  0  0  0  0  0  0  0  0
    0.1568    0.9302    4.9210 N   0  0  0  0  0  0  0  0  0  0  0  0
   -1.0068    1.7616    5.0641 C   0  0  0  0  0  0  0  0  0  0  0  0
   -0.6830    3.1129    5.6784 C   0  0  0  0  0  0  0  0  0  0  0  0
    0.2627    3.3716    6.3892 O   0  0  0  0  0  0  0  0  0  0  0  0
   -1.6262    4.0134    5.3878 O   0  0  0  0  0  0  0  0  0  0  0  0
   -0.1976    1.1636   -1.6691 H   0  0  0  0  0  0  0  0  0  0  0  0
   -1.9598    2.2722    1.3705 H   0  0  0  0  0  0  0  0  0  0  0  0
   -2.8001    1.0219    0.7358 H   0  0  0  0  0  0  0  0  0  0  0  0
   -1.8411   -1.3619    0.7717 H   0  0  0  0  0  0  0  0  0  0  0  0
   -1.8735   -1.0548    2.5162 H   0  0  0  0  0  0  0  0  0  0  0  0
    0.6281   -1.9068    0.9156 H   0  0  0  0  0  0  0  0  0  0  0  0
   -0.3554   -2.9347    1.9935 H   0  0  0  0  0  0  0  0  0  0  0  0
    1.8424   -0.2074    1.8413 H   0  0  0  0  0  0  0  0  0  0  0  0
    3.3774    1.7725    2.7489 H   0  0  0  0  0  0  0  0  0  0  0  0
    4.1888    0.1901    2.8985 H   0  0  0  0  0  0  0  0  0  0  0  0
    4.2446    5.4542    5.9876 H   0  0  0  0  0  0  0  0  0  0  0  0
    4.2052    1.3791    7.9129 H   0  0  0  0  0  0  0  0  0  0  0  0
    5.8674    0.6239    9.5801 H   0  0  0  0  0  0  0  0  0  0  0  0
    8.2597    4.1311    8.7829 H   0  0  0  0  0  0  0  0  0  0  0  0
    6.6016    4.8639    7.0919 H   0  0  0  0  0  0  0  0  0  0  0  0
    1.8337    2.5031    6.5148 H   0  0  0  0  0  0  0  0  0  0  0  0
    0.1360   -0.0501    5.1988 H   0  0  0  0  0  0  0  0  0  0  0  0
   -1.7224    1.2647    5.7380 H   0  0  0  0  0  0  0  0  0  0  0  0
   -1.5317    1.9302    4.1078 H   0  0  0  0  0  0  0  0  0  0  0  0
   -1.3843    4.8407    5.8399 H   0  0  0  0  0  0  0  0  0  0  0  0
  1  2  2  0
  1  3  1  0
  1  4  1  0
  3 35  1  0
  4  5  1  1
  4  6  1  0
  4  7  1  0
  6 36  1  0
  6 37  1  0
  7  8  1  0
  7 38  1  0
  7 39  1  0
  8  9  1  0
  8 40  1  0
  8 41  1  0
  9 10  2  0
  9 11  1  0
 11 12  1  0
 11 42  1  0
 12 13  1  1
 12 14  1  0
 12 28  1  0
 14 15  1  0
 14 43  1  0
 14 44  1  0
 15 16  1  0
 16 17  1  6
 16 18  1  0
 16 27  1  0
 18 19  1  0
 18 20  1  0
 19 45  1  0
 20 21  2  0
 20 25  1  0
 21 22  1  0
 21 46  1  0
 22 23  2  0
 22 47  1  0
 23 24  1  0
 23 26  1  0
 24 25  2  0
 24 48  1  0
 25 49  1  0
 27 50  1  0
 28 29  2  0
 28 30  1  0
 30 31  1  0
 30 51  1  0
 31 32  1  0
 31 52  1  0
 31 53  1  0
 32 33  2  0
 32 34  1  0
 34 54  1  0
M  END

