54
rmsd80.gzmat
C          0.00000        0.00000        0.00000
O          1.20480        0.00000        0.00000
O         -0.68480        0.00000       -1.16630
C         -0.93650        0.01640        1.20320
H         -0.45880        0.67540        1.99450
N         -2.26760        0.55200        0.91970
C         -1.08350       -1.41510        1.76150
C          0.24860       -2.12560        1.99440
C          1.16700       -1.27570        2.83890
O          0.74920       -0.42430        3.61260
N          2.51290       -1.46310        2.64380
C          3.50130       -0.65210        3.35290
H          3.00630        0.26330        3.79940
C          4.23000       -1.44870        4.43960
S          3.08680       -2.35690        5.53700
C          2.35120       -0.96850        6.61470
H          3.10610       -0.63530        7.37150
N          1.13820       -1.43120        7.31850
O          1.54890       -2.52910        8.11400
C          0.02250       -1.82970        6.51180
C         -0.36900       -3.16650        6.37810
C         -1.54070       -3.47970        5.69500
C         -2.30610       -2.45290        5.15080
C         -1.92060       -1.11910        5.26240
C         -0.75160       -0.80380        5.94840
I         -4.10560       -2.93410        4.14630
O          2.06070        0.14600        5.87860
C          4.54810       -0.14850        2.33390
O          5.73240       -0.13280        2.59260
N          4.05080        0.35540        1.15030
C          4.98290        0.65740        0.07560
C          5.15970       -0.48240       -0.90430
O          5.76960       -0.44890       -1.93930
O          4.53070       -1.61580       -0.50120
H         -0.10870        0.00360       -1.97220
H         -2.24230        1.50760        0.60270
H         -2.78160       -0.00380        0.25320
H         -1.72910       -2.02640        1.10120
H         -1.63450       -1.33030        2.72790
H          0.72120       -2.39670        1.02750
H          0.06810       -3.09070        2.52230
H          2.87410       -2.21550        2.07270
H          4.88860       -0.77160        5.02250
H          4.91190       -2.20470        3.99560
H          1.19830       -2.27520        9.01910
H          0.24120       -3.96190        6.81030
H         -1.83530       -4.52550        5.60540
H         -2.51100       -0.30870        4.82820
H         -0.44150        0.23940        6.05380
H          1.50020       -0.02820        5.05770
H          3.08170        0.21400        0.87550
H          5.99470        0.92160        0.49620
H          4.62760        1.56160       -0.48220
H          4.66840       -2.37460       -1.12310
