
     RDKit          3D

 54 54  0  0  0  0  0  0  0  0999 V2000
   -0.2377   -0.0566    0.1368 C   0  0  0  0  0  0  0  0  0  0  0  0
    0.9450    0.0695   -0.0508 O   0  0  0  0  0  0  0  0  0  0  0  0
   -1.1253   -0.1976   -0.8714 O   0  0  0  0  0  0  0  0  0  0  0  0
   -0.9268   -0.0384    1.4970 C   0  0  1  0  0  0  0  0  0  0  0  0
   -1.2271    1.0178    1.6101 H   0  0  0  0  0  0  0  0  0  0  0  0
   -2.1449   -0.8505    1.5829 N   0  0  0  0  0  0  0  0  0  0  0  0
    0.0714   -0.3791    2.6093 C   0  0  0  0  0  0  0  0  0  0  0  0
   -0.5606   -0.4665    4.0101 C   0  0  0  0  0  0  0  0  0  0  0  0
   -1.3362    0.7925    4.3596 C   0  0  0  0  0  0  0  0  0  0  0  0
   -0.7933    1.7354    4.9486 O   0  0  0  0  0  0  0  0  0  0  0  0
   -2.6144    0.7959    3.9262 N   0  0  0  0  0  0  0  0  0  0  0  0
   -3.6102    1.8670    3.9601 C   0  0  1  0  0  0  0  0  0  0  0  0
   -4.4518    1.4558    3.3864 H   0  0  0  0  0  0  0  0  0  0  0  0
   -4.2137    2.1778    5.3509 C   0  0  0  0  0  0  0  0  0  0  0  0
   -3.4946    3.4881    6.4061 S   0  0  0  0  0  0  0  0  0  0  0  0
   -2.2457    2.5568    7.4529 C   0  0  2  0  0  0  0  0  0  0  0  0
   -1.4306    2.2627    6.7891 H   0  0  0  0  0  0  0  0  0  0  0  0
   -2.8918    1.3817    7.9896 N   0  0  0  0  0  0  0  0  0  0  0  0
   -3.8359    1.7834    8.9667 O   0  0  0  0  0  0  0  0  0  0  0  0
   -2.1589    0.2488    8.3891 C   0  0  0  0  0  0  0  0  0  0  0  0
   -0.9214   -0.0624    7.7938 C   0  0  0  0  0  0  0  0  0  0  0  0
   -0.2521   -1.2381    8.1317 C   0  0  0  0  0  0  0  0  0  0  0  0
   -0.8000   -2.1136    9.0720 C   0  0  0  0  0  0  0  0  0  0  0  0
   -2.0184   -1.8079    9.6818 C   0  0  0  0  0  0  0  0  0  0  0  0
   -2.6927   -0.6346    9.3438 C   0  0  0  0  0  0  0  0  0  0  0  0
    0.2245   -3.9044    9.5783 I   0  0  0  0  0  0  0  0  0  0  0  0
   -1.7730    3.4225    8.4192 O   0  0  0  0  0  0  0  0  0  0  0  0
   -3.2621    3.1360    3.1553 C   0  0  0  0  0  0  0  0  0  0  0  0
   -4.1089    3.6513    2.4427 O   0  0  0  0  0  0  0  0  0  0  0  0
   -2.0036    3.6168    3.3037 N   0  0  0  0  0  0  0  0  0  0  0  0
   -1.5349    4.7019    2.4974 C   0  0  0  0  0  0  0  0  0  0  0  0
   -0.8563    4.2267    1.2205 C   0  0  0  0  0  0  0  0  0  0  0  0
   -0.7960    3.0833    0.8391 O   0  0  0  0  0  0  0  0  0  0  0  0
   -0.3252    5.2542    0.5413 O   0  0  0  0  0  0  0  0  0  0  0  0
   -0.6199   -0.1394   -1.7002 H   0  0  0  0  0  0  0  0  0  0  0  0
   -2.7568   -0.6295    0.7969 H   0  0  0  0  0  0  0  0  0  0  0  0
   -1.9191   -1.8432    1.4947 H   0  0  0  0  0  0  0  0  0  0  0  0
    0.8608    0.3853    2.5976 H   0  0  0  0  0  0  0  0  0  0  0  0
    0.5691   -1.3372    2.3843 H   0  0  0  0  0  0  0  0  0  0  0  0
    0.2328   -0.5820    4.7601 H   0  0  0  0  0  0  0  0  0  0  0  0
   -1.2213   -1.3426    4.0772 H   0  0  0  0  0  0  0  0  0  0  0  0
   -2.8162    0.0362    3.2622 H   0  0  0  0  0  0  0  0  0  0  0  0
   -4.2599    1.2463    5.9353 H   0  0  0  0  0  0  0  0  0  0  0  0
   -5.2419    2.5264    5.1787 H   0  0  0  0  0  0  0  0  0  0  0  0
   -4.5744    2.1186    8.4285 H   0  0  0  0  0  0  0  0  0  0  0  0
   -0.4694    0.6013    7.0588 H   0  0  0  0  0  0  0  0  0  0  0  0
    0.7061   -1.4604    7.6592 H   0  0  0  0  0  0  0  0  0  0  0  0
   -2.4507   -2.4801   10.4247 H   0  0  0  0  0  0  0  0  0  0  0  0
   -3.6409   -0.3927    9.8198 H   0  0  0  0  0  0  0  0  0  0  0  0
   -2.4610    3.4673    9.1043 H   0  0  0  0  0  0  0  0  0  0  0  0
   -1.3781    3.1525    3.9677 H   0  0  0  0  0  0  0  0  0  0  0  0
   -0.8310    5.3402    3.0535 H   0  0  0  0  0  0  0  0  0  0  0  0
   -2.3882    5.3315    2.1986 H   0  0  0  0  0  0  0  0  0  0  0  0
    0.0812    4.8895   -0.2638 H   0  0  0  0  0  0  0  0  0  0  0  0
  1  2  2  0
  1  3  1  0
  1  4  1  0
  3 35  1  0
  4  5  1  1
  4  6  1  0
  4  7  1  0
  6 36  1  0
  6 37  1  0
  7  8  1  0
  7 38  1  0
  7 39  1  0
  8  9  1  0
  8 40  1  0
  8 41  1  0
  9 10  2  0
  9 11  1  0
 11 12  1  0
 11 42  1  0
 12 13  1  6
 12 14  1  0
 12 28  1  0
 14 15  1  0
 14 43  1  0
 14 44  1  0
 15 16  1  0
 16 17  1  6
 16 18  1  0
 16 27  1  0
 18 19  1  0
 18 20  1  0
 19 45  1  0
 20 21  2  0
 20 25  1  0
 21 22  1  0
 21 46  1  0
 22 23  2  0
 22 47  1  0
 23 24  1  0
 23 26  1  0
 24 25  2  0
 24 48  1  0
 25 49  1  0
 27 50  1  0
 28 29  2  0
 28 30  1  0
 30 31  1  0
 30 51  1  0
 31 32  1  0
 31 52  1  0
 31 53  1  0
 32 33  2  0
 32 34  1  0
 34 54  1  0
M  END

