rmsd96.gzmat
 OpenBabel08211713423D

 54 54  0  0  1  0  0  0  0  0999 V2000
    0.0000    0.0000    0.0000 C   0  0  0  0  0  0  0  0  0  0  0  0
    1.2056    0.0000    0.0000 O   0  0  0  0  0  0  0  0  0  0  0  0
   -0.6931    0.0000   -1.1595 O   0  0  0  0  0  0  0  0  0  0  0  0
   -0.9321    0.0042    1.2085 C   0  0  1  0  0  0  0  0  0  0  0  0
   -0.5009    0.7226    1.9689 H   0  0  0  0  0  0  0  0  0  0  0  0
   -2.2973    0.4464    0.9155 N   0  0  0  0  0  0  0  0  0  0  0  0
   -0.9829   -1.4197    1.8056 C   0  0  0  0  0  0  0  0  0  0  0  0
    0.3799   -1.9526    2.2500 C   0  0  0  0  0  0  0  0  0  0  0  0
    0.9650   -1.0487    3.3120 C   0  0  0  0  0  0  0  0  0  0  0  0
    0.6936   -1.1510    4.4945 O   0  0  0  0  0  0  0  0  0  0  0  0
    1.8205   -0.0664    2.8567 N   0  0  0  0  0  0  0  0  0  0  0  0
    2.3369    0.9452    3.7828 C   0  0  1  0  0  0  0  0  0  0  0  0
    2.5686    0.4460    4.7734 H   0  0  0  0  0  0  0  0  0  0  0  0
    3.5774    1.6165    3.1911 C   0  0  0  0  0  0  0  0  0  0  0  0
    4.6914    2.3060    4.4683 S   0  0  0  0  0  0  0  0  0  0  0  0
    3.5419    3.3747    5.4957 C   0  0  2  0  0  0  0  0  0  0  0  0
    3.0821    4.1900    4.8825 H   0  0  0  0  0  0  0  0  0  0  0  0
    4.1957    3.9348    6.6905 N   0  0  0  0  0  0  0  0  0  0  0  0
    4.8172    5.1355    6.2687 O   0  0  0  0  0  0  0  0  0  0  0  0
    5.1532    3.1073    7.3589 C   0  0  0  0  0  0  0  0  0  0  0  0
    4.7091    1.8720    7.8581 C   0  0  0  0  0  0  0  0  0  0  0  0
    5.5735    1.0765    8.6008 C   0  0  0  0  0  0  0  0  0  0  0  0
    6.8706    1.5221    8.8467 C   0  0  0  0  0  0  0  0  0  0  0  0
    7.3214    2.7456    8.3628 C   0  0  0  0  0  0  0  0  0  0  0  0
    6.4588    3.5424    7.6133 C   0  0  0  0  0  0  0  0  0  0  0  0
    8.1822    0.3071    9.9766 I   0  0  0  0  0  0  0  0  0  0  0  0
    2.5786    2.4788    5.9419 O   0  0  0  0  0  0  0  0  0  0  0  0
    1.2285    2.0080    3.9896 C   0  0  0  0  0  0  0  0  0  0  0  0
    1.2344    3.1011    3.4613 O   0  0  0  0  0  0  0  0  0  0  0  0
    0.1623    1.6021    4.7692 N   0  0  0  0  0  0  0  0  0  0  0  0
   -0.9301    2.5143    5.0385 C   0  0  0  0  0  0  0  0  0  0  0  0
   -0.7176    3.2495    6.3471 C   0  0  0  0  0  0  0  0  0  0  0  0
    0.2944    3.4572    6.9691 O   0  0  0  0  0  0  0  0  0  0  0  0
   -1.9059    3.7146    6.7980 O   0  0  0  0  0  0  0  0  0  0  0  0
   -0.1212    0.0049   -1.9706 H   0  0  0  0  0  0  0  0  0  0  0  0
   -2.3283    1.3980    0.5808 H   0  0  0  0  0  0  0  0  0  0  0  0
   -2.7636   -0.1489    0.2465 H   0  0  0  0  0  0  0  0  0  0  0  0
   -1.4419   -2.1216    1.0814 H   0  0  0  0  0  0  0  0  0  0  0  0
   -1.6818   -1.3998    2.6751 H   0  0  0  0  0  0  0  0  0  0  0  0
    1.0673   -2.0798    1.3891 H   0  0  0  0  0  0  0  0  0  0  0  0
    0.2601   -2.9720    2.6828 H   0  0  0  0  0  0  0  0  0  0  0  0
    1.9731    0.0719    1.8612 H   0  0  0  0  0  0  0  0  0  0  0  0
    3.2929    2.4124    2.4695 H   0  0  0  0  0  0  0  0  0  0  0  0
    4.1915    0.8842    2.6249 H   0  0  0  0  0  0  0  0  0  0  0  0
    4.4131    5.8118    6.8892 H   0  0  0  0  0  0  0  0  0  0  0  0
    3.6884    1.5333    7.6579 H   0  0  0  0  0  0  0  0  0  0  0  0
    5.2170    0.1154    8.9733 H   0  0  0  0  0  0  0  0  0  0  0  0
    8.3361    3.0986    8.5497 H   0  0  0  0  0  0  0  0  0  0  0  0
    6.8090    4.4957    7.2166 H   0  0  0  0  0  0  0  0  0  0  0  0
    1.8183    2.9125    6.4179 H   0  0  0  0  0  0  0  0  0  0  0  0
    0.1594    0.6905    5.2240 H   0  0  0  0  0  0  0  0  0  0  0  0
   -1.9036    1.9619    5.0557 H   0  0  0  0  0  0  0  0  0  0  0  0
   -1.0187    3.2819    4.2175 H   0  0  0  0  0  0  0  0  0  0  0  0
   -1.8435    4.2346    7.6401 H   0  0  0  0  0  0  0  0  0  0  0  0
  1  4  1  0  0  0  0
  2  1  2  0  0  0  0
  3  1  1  0  0  0  0
  4  7  1  0  0  0  0
  4  5  1  1  0  0  0
  6  4  1  0  0  0  0
  7  8  1  0  0  0  0
  7 39  1  0  0  0  0
  8 41  1  0  0  0  0
  8  9  1  0  0  0  0
  9 10  2  0  0  0  0
 11  9  1  0  0  0  0
 11 12  1  0  0  0  0
 12 28  1  0  0  0  0
 12 13  1  1  0  0  0
 14 12  1  0  0  0  0
 14 15  1  0  0  0  0
 15 16  1  0  0  0  0
 16 17  1  6  0  0  0
 16 27  1  0  0  0  0
 16 18  1  0  0  0  0
 18 20  1  0  0  0  0
 19 18  1  0  0  0  0
 19 45  1  0  0  0  0
 20 25  2  0  0  0  0
 20 21  1  0  0  0  0
 21 22  2  0  0  0  0
 22 23  1  0  0  0  0
 22 47  1  0  0  0  0
 23 26  1  0  0  0  0
 24 48  1  0  0  0  0
 24 23  2  0  0  0  0
 25 24  1  0  0  0  0
 27 50  1  0  0  0  0
 28 30  1  0  0  0  0
 29 28  2  0  0  0  0
 30 31  1  0  0  0  0
 30 51  1  0  0  0  0
 31 52  1  0  0  0  0
 31 32  1  0  0  0  0
 32 34  1  0  0  0  0
 32 33  2  0  0  0  0
 34 54  1  0  0  0  0
 35  3  1  0  0  0  0
 36  6  1  0  0  0  0
 37  6  1  0  0  0  0
 38  7  1  0  0  0  0
 40  8  1  0  0  0  0
 42 11  1  0  0  0  0
 43 14  1  0  0  0  0
 44 14  1  0  0  0  0
 46 21  1  0  0  0  0
 49 25  1  0  0  0  0
 53 31  1  0  0  0  0
M  END
$$$$
