54

C          0.49240        0.23360        0.07520
O          1.50750        0.80540        0.42410
O          0.39750       -0.39520       -1.10110
C         -0.76770        0.15300        0.92910
H         -0.58310        0.85160        1.75640
N         -1.98130        0.54890        0.23310
C         -0.96040       -1.25280        1.53160
C          0.31060       -1.96440        2.00240
C          1.21910       -1.11980        2.87790
O          0.77050       -0.25570        3.63230
N          2.53850       -1.38020        2.75690
C          3.59120       -0.61300        3.40780
H          3.13670        0.33360        3.72950
C          4.21820       -1.31820        4.61690
S          3.04690       -2.20970        5.68610
C          2.29840       -0.79600        6.69820
H          3.04640       -0.51220        7.45210
N          1.15810       -1.33600        7.45640
O          1.66470       -2.32590        8.33520
C          0.05980       -1.83050        6.69450
C         -0.14850       -3.20240        6.48600
C         -1.20120       -3.63910        5.68310
C         -2.04440       -2.69960        5.08020
C         -1.86660       -1.33320        5.30400
C         -0.82270       -0.90440        6.12480
I         -3.61180       -3.36640        3.80580
O          1.97810        0.30330        5.95570
C          4.62840       -0.34770        2.29480
O          5.71710       -0.88920        2.26100
N          4.14230        0.45490        1.29960
C          4.61120        0.31810       -0.05960
C          3.71310       -0.63260       -0.84010
O          3.14640       -0.37870       -1.87990
O          3.56760       -1.82610       -0.22920
H          1.25500       -0.30050       -1.57580
H         -1.93680        1.52570       -0.05460
H         -2.10000       -0.00700       -0.61450
H         -1.45330       -1.89480        0.78420
H         -1.66730       -1.14680        2.36430
H          0.88640       -2.34110        1.14110
H          0.02070       -2.84470        2.60100
H          2.82790       -2.09750        2.10150
H          4.80520       -0.59410        5.20170
H          4.92510       -2.08020        4.25780
H          1.38790       -2.00970        9.20740
H          0.52660       -3.91850        6.95220
H         -1.35290       -4.70700        5.51790
H         -2.53490       -0.60080        4.84970
H         -0.67250        0.15810        6.31470
H          1.47140        0.06470        5.13870
H          3.17370        0.76200        1.37350
H          5.63340       -0.08970       -0.02950
H          4.61200        1.27850       -0.59050
H          2.99530       -2.36990       -0.79830
