54

C          0.39210       -0.66850        0.35720
O          1.54420       -0.84970        0.66640
O         -0.02110       -0.61310       -0.92350
C         -0.74490       -0.42170        1.34600
H         -1.61350       -1.00100        0.99480
N         -0.41140       -0.83600        2.69580
C         -1.15490        1.06490        1.30050
C         -0.04910        2.02240        1.74640
C         -0.58980        3.39680        2.07930
O         -1.64760        3.52090        2.70460
N          0.15510        4.45230        1.69350
C         -0.15660        5.81540        2.04920
H         -1.22680        5.87330        2.28500
C          0.65340        6.31370        3.27660
S          0.73410        5.15910        4.67920
C         -0.94790        5.44960        5.47340
H         -0.93870        6.46730        5.88640
N         -1.04540        4.58700        6.65870
O         -0.50520        5.27800        7.76610
C         -0.58490        3.24620        6.59080
C          0.39630        2.75980        7.46820
C          0.86250        1.44910        7.34940
C          0.35480        0.62440        6.34480
C         -0.64150        1.08290        5.47880
C         -1.12030        2.38550        5.61730
I          1.11860       -1.35240        6.12580
O         -1.99350        5.34850        4.59610
C          0.18930        6.70240        0.85060
O          1.05300        6.38030        0.04710
N         -0.47360        7.88050        0.79210
C         -0.18230        8.86330       -0.21840
C         -0.97560       10.11890        0.06520
O         -1.75150       10.24030        0.98110
O         -0.71850       11.07980       -0.82940
H          0.76600       -0.73620       -1.48260
H         -0.49560       -1.84580        2.79990
H          0.56860       -0.62930        2.89700
H         -2.01260        1.19170        1.97520
H         -1.48830        1.32190        0.28260
H          0.76910        2.08450        1.01170
H          0.39250        1.66450        2.69280
H          0.97310        4.32620        1.10430
H          0.26820        7.29240        3.60290
H          1.70240        6.45690        2.97340
H         -1.26270        5.37180        8.36270
H          0.80410        3.42240        8.22890
H          1.63420        1.08670        8.03040
H         -1.02840        0.43830        4.68650
H         -1.90220        2.73130        4.94570
H         -1.87830        4.60660        3.95100
H         -1.20220        8.11850        1.46020
H         -0.43350        8.50640       -1.23360
H          0.89340        9.10750       -0.24900
H         -1.26330       11.85090       -0.59430
