54
rmsd96.gzmat
C          0.00000        0.00000        0.00000
O          1.20560        0.00000        0.00000
O         -0.69310        0.00000       -1.15950
C         -0.93210        0.00420        1.20850
H         -0.50090        0.72260        1.96890
N         -2.29730        0.44640        0.91550
C         -0.98290       -1.41970        1.80560
C          0.37990       -1.95260        2.25000
C          0.96500       -1.04870        3.31200
O          0.69360       -1.15100        4.49450
N          1.82050       -0.06640        2.85670
C          2.33690        0.94520        3.78280
H          2.56860        0.44600        4.77340
C          3.57740        1.61650        3.19110
S          4.69140        2.30600        4.46830
C          3.54190        3.37470        5.49570
H          3.08210        4.19000        4.88250
N          4.19570        3.93480        6.69050
O          4.81720        5.13550        6.26870
C          5.15320        3.10730        7.35890
C          4.70910        1.87200        7.85810
C          5.57350        1.07650        8.60080
C          6.87060        1.52210        8.84670
C          7.32140        2.74560        8.36280
C          6.45880        3.54240        7.61330
I          8.18220        0.30710        9.97660
O          2.57860        2.47880        5.94190
C          1.22850        2.00800        3.98960
O          1.23440        3.10110        3.46130
N          0.16230        1.60210        4.76920
C         -0.93010        2.51430        5.03850
C         -0.71760        3.24950        6.34710
O          0.29440        3.45720        6.96910
O         -1.90590        3.71460        6.79800
H         -0.12120        0.00490       -1.97060
H         -2.32830        1.39800        0.58080
H         -2.76360       -0.14890        0.24650
H         -1.44190       -2.12160        1.08140
H         -1.68180       -1.39980        2.67510
H          1.06730       -2.07980        1.38910
H          0.26010       -2.97200        2.68280
H          1.97310        0.07190        1.86120
H          3.29290        2.41240        2.46950
H          4.19150        0.88420        2.62490
H          4.41310        5.81180        6.88920
H          3.68840        1.53330        7.65790
H          5.21700        0.11540        8.97330
H          8.33610        3.09860        8.54970
H          6.80900        4.49570        7.21660
H          1.81830        2.91250        6.41790
H          0.15940        0.69050        5.22400
H         -1.90360        1.96190        5.05570
H         -1.01870        3.28190        4.21750
H         -1.84350        4.23460        7.64010
