rmsd5.gzmat
 OpenBabel08211713423D

 54 54  0  0  1  0  0  0  0  0999 V2000
    0.0000    0.0000    0.0000 C   0  0  0  0  0  0  0  0  0  0  0  0
    1.1991    0.0000    0.0000 O   0  0  0  0  0  0  0  0  0  0  0  0
   -0.7093    0.0000   -1.1593 O   0  0  0  0  0  0  0  0  0  0  0  0
   -0.9390   -0.0257    1.1990 C   0  0  1  0  0  0  0  0  0  0  0  0
   -1.9081   -0.5332    0.9165 H   0  0  0  0  0  0  0  0  0  0  0  0
   -0.3546   -0.7809    2.3195 N   0  0  0  0  0  0  0  0  0  0  0  0
   -1.2140    1.4218    1.6540 C   0  0  0  0  0  0  0  0  0  0  0  0
   -1.9648    2.2511    0.6126 C   0  0  0  0  0  0  0  0  0  0  0  0
   -3.3841    1.7506    0.4713 C   0  0  0  0  0  0  0  0  0  0  0  0
   -4.3067    2.1620    1.1542 O   0  0  0  0  0  0  0  0  0  0  0  0
   -3.5901    0.7733   -0.4767 N   0  0  0  0  0  0  0  0  0  0  0  0
   -4.9212    0.2007   -0.6644 C   0  0  1  0  0  0  0  0  0  0  0  0
   -5.7052    0.9926   -0.4704 H   0  0  0  0  0  0  0  0  0  0  0  0
   -5.0855   -0.3965   -2.0599 C   0  0  0  0  0  0  0  0  0  0  0  0
   -5.0173    0.8629   -3.3795 S   0  0  0  0  0  0  0  0  0  0  0  0
   -6.7294    1.6130   -3.3322 C   0  0  2  0  0  0  0  0  0  0  0  0
   -7.3470    1.2043   -4.1716 H   0  0  0  0  0  0  0  0  0  0  0  0
   -6.7625    3.0865   -3.3514 N   0  0  0  0  0  0  0  0  0  0  0  0
   -6.8742    3.4493   -4.7165 O   0  0  0  0  0  0  0  0  0  0  0  0
   -5.6360    3.7663   -2.7743 C   0  0  0  0  0  0  0  0  0  0  0  0
   -4.7014    4.4618   -3.5473 C   0  0  0  0  0  0  0  0  0  0  0  0
   -3.6762    5.1657   -2.9214 C   0  0  0  0  0  0  0  0  0  0  0  0
   -3.6028    5.1683   -1.5318 C   0  0  0  0  0  0  0  0  0  0  0  0
   -4.5345    4.4885   -0.7520 C   0  0  0  0  0  0  0  0  0  0  0  0
   -5.5572    3.7803   -1.3755 C   0  0  0  0  0  0  0  0  0  0  0  0
   -2.0314    6.2213   -0.5862 I   0  0  0  0  0  0  0  0  0  0  0  0
   -7.2779    1.2075   -2.1114 O   0  0  0  0  0  0  0  0  0  0  0  0
   -5.1000   -0.9420    0.3679 C   0  0  0  0  0  0  0  0  0  0  0  0
   -5.0694   -2.1127    0.0553 O   0  0  0  0  0  0  0  0  0  0  0  0
   -5.3589   -0.5286    1.6588 N   0  0  0  0  0  0  0  0  0  0  0  0
   -5.3464   -1.5166    2.7275 C   0  0  0  0  0  0  0  0  0  0  0  0
   -3.9682   -1.7300    3.3281 C   0  0  0  0  0  0  0  0  0  0  0  0
   -3.6116   -2.6776    3.9762 O   0  0  0  0  0  0  0  0  0  0  0  0
   -3.1524   -0.6921    3.0655 O   0  0  0  0  0  0  0  0  0  0  0  0
   -0.1539    0.0359   -1.9774 H   0  0  0  0  0  0  0  0  0  0  0  0
   -0.1694   -1.7458    2.0781 H   0  0  0  0  0  0  0  0  0  0  0  0
    0.4995   -0.3627    2.6648 H   0  0  0  0  0  0  0  0  0  0  0  0
   -0.2642    1.9284    1.9210 H   0  0  0  0  0  0  0  0  0  0  0  0
   -1.8067    1.3893    2.6000 H   0  0  0  0  0  0  0  0  0  0  0  0
   -1.4337    2.2682   -0.3598 H   0  0  0  0  0  0  0  0  0  0  0  0
   -2.0022    3.3123    0.9492 H   0  0  0  0  0  0  0  0  0  0  0  0
   -2.8294    0.4156   -1.0416 H   0  0  0  0  0  0  0  0  0  0  0  0
   -6.0426   -0.9621   -2.1114 H   0  0  0  0  0  0  0  0  0  0  0  0
   -4.2965   -1.1488   -2.2759 H   0  0  0  0  0  0  0  0  0  0  0  0
   -7.6281    4.1113   -4.7027 H   0  0  0  0  0  0  0  0  0  0  0  0
   -4.7668    4.4460   -4.6363 H   0  0  0  0  0  0  0  0  0  0  0  0
   -2.9498    5.6985   -3.5366 H   0  0  0  0  0  0  0  0  0  0  0  0
   -4.4873    4.4837    0.3423 H   0  0  0  0  0  0  0  0  0  0  0  0
   -6.2857    3.2349   -0.7727 H   0  0  0  0  0  0  0  0  0  0  0  0
   -8.0478    1.7681   -1.8493 H   0  0  0  0  0  0  0  0  0  0  0  0
   -5.1909    0.4448    1.9224 H   0  0  0  0  0  0  0  0  0  0  0  0
   -5.7173   -2.5066    2.3409 H   0  0  0  0  0  0  0  0  0  0  0  0
   -6.0521   -1.2031    3.5349 H   0  0  0  0  0  0  0  0  0  0  0  0
   -2.1879   -0.8373    3.3104 H   0  0  0  0  0  0  0  0  0  0  0  0
  1  2  2  0  0  0  0
  1  4  1  0  0  0  0
  3  1  1  0  0  0  0
  4  5  1  6  0  0  0
  4  7  1  0  0  0  0
  4  6  1  0  0  0  0
  6 37  1  0  0  0  0
  7 38  1  0  0  0  0
  7 39  1  0  0  0  0
  8 41  1  0  0  0  0
  8  7  1  0  0  0  0
  9  8  1  0  0  0  0
  9 10  2  0  0  0  0
 11  9  1  0  0  0  0
 12 11  1  0  0  0  0
 12 13  1  1  0  0  0
 12 28  1  0  0  0  0
 14 12  1  0  0  0  0
 15 16  1  0  0  0  0
 15 14  1  0  0  0  0
 16 17  1  6  0  0  0
 16 27  1  0  0  0  0
 18 16  1  0  0  0  0
 18 20  1  0  0  0  0
 19 45  1  0  0  0  0
 19 18  1  0  0  0  0
 20 25  2  0  0  0  0
 21 22  2  0  0  0  0
 21 20  1  0  0  0  0
 22 23  1  0  0  0  0
 23 24  2  0  0  0  0
 23 26  1  0  0  0  0
 24 48  1  0  0  0  0
 25 49  1  0  0  0  0
 25 24  1  0  0  0  0
 27 50  1  0  0  0  0
 28 30  1  0  0  0  0
 29 28  2  0  0  0  0
 30 51  1  0  0  0  0
 30 31  1  0  0  0  0
 31 32  1  0  0  0  0
 31 53  1  0  0  0  0
 32 33  2  0  0  0  0
 34 54  1  0  0  0  0
 34 32  1  0  0  0  0
 35  3  1  0  0  0  0
 36  6  1  0  0  0  0
 40  8  1  0  0  0  0
 42 11  1  0  0  0  0
 43 14  1  0  0  0  0
 44 14  1  0  0  0  0
 46 21  1  0  0  0  0
 47 22  1  0  0  0  0
 52 31  1  0  0  0  0
M  END
$$$$
