27

Br        -0.04480        0.56720        0.00100
C          1.81450        0.27580        0.03420
C          2.55930        0.23420        1.24770
C          3.88890       -0.00970        1.00230
S          5.15040       -0.12400        2.24730
O          4.44780       -0.20070        3.52610
O          6.11180       -1.12410        1.79170
N          5.92600        1.35840        2.14410
S          4.26560       -0.20410       -0.67470
C          2.59980        0.06230       -1.08050
S          2.16200       -0.00730       -2.81490
O          1.25530        1.10170       -3.11220
O          3.45030       -0.17030       -3.50070
C          1.25110       -1.54040       -2.95180
C          1.96290       -2.74310       -2.97830
C          1.25110       -3.93780       -3.08360
C         -0.14610       -3.91600       -3.17090
C         -0.83910       -2.70190       -3.15770
C         -0.14040       -1.49740       -3.04740
H          2.14300        0.36970        2.24490
H          6.92910        1.22670        2.01840
H          5.69410        1.96140        2.93220
H          3.05280       -2.73360       -2.92590
H          1.78730       -4.88900       -3.10510
H         -0.69820       -4.85490       -3.25500
H         -1.92840       -2.69130       -3.23610
H         -0.65000       -0.53360       -3.04240
