rmsd154.gzmat
 OpenBabel08211713373D

 27 28  0  0  0  0  0  0  0  0999 V2000
    0.0000    0.0000    0.0000 Br  0  0  0  0  0  0  0  0  0  0  0  0
    1.8762    0.0000    0.0000 C   0  0  0  0  0  0  0  0  0  0  0  0
    2.5873    0.0000    1.2252 C   0  0  0  0  0  0  0  0  0  0  0  0
    3.9542    0.0123    1.0253 C   0  0  0  0  0  0  0  0  0  0  0  0
    5.1047    0.0535    2.3310 S   0  0  0  0  0  0  0  0  0  0  0  0
    6.1211    1.0310    2.0286 O   0  0  0  0  0  0  0  0  0  0  0  0
    4.3744    0.0611    3.5734 O   0  0  0  0  0  0  0  0  0  0  0  0
    5.8926   -1.4891    2.2216 N   0  0  0  0  0  0  0  0  0  0  0  0
    4.3213    0.0117   -0.6386 S   0  0  0  0  0  0  0  0  0  0  0  0
    2.6836    0.0123   -1.1166 C   0  0  0  0  0  0  0  0  0  0  0  0
    2.1839    0.0146   -2.8116 S   0  0  0  0  0  0  0  0  0  0  0  0
    3.4082    0.2091   -3.5623 O   0  0  0  0  0  0  0  0  0  0  0  0
    1.3484   -1.1396   -3.0438 O   0  0  0  0  0  0  0  0  0  0  0  0
    1.2028    1.4659   -2.9512 C   0  0  0  0  0  0  0  0  0  0  0  0
    1.8038    2.7197   -2.8493 C   0  0  0  0  0  0  0  0  0  0  0  0
    1.0220    3.8709   -2.9156 C   0  0  0  0  0  0  0  0  0  0  0  0
   -0.3566    3.7675   -3.1006 C   0  0  0  0  0  0  0  0  0  0  0  0
   -0.9509    2.5147   -3.2334 C   0  0  0  0  0  0  0  0  0  0  0  0
   -0.1702    1.3609   -3.1608 C   0  0  0  0  0  0  0  0  0  0  0  0
    2.1015   -0.0048    2.1987 H   0  0  0  0  0  0  0  0  0  0  0  0
    5.6510   -2.1718    2.9220 H   0  0  0  0  0  0  0  0  0  0  0  0
    6.8891   -1.4769    2.0715 H   0  0  0  0  0  0  0  0  0  0  0  0
    2.8860    2.8198   -2.7274 H   0  0  0  0  0  0  0  0  0  0  0  0
    1.4881    4.8500   -2.8259 H   0  0  0  0  0  0  0  0  0  0  0  0
   -0.9669    4.6690   -3.1453 H   0  0  0  0  0  0  0  0  0  0  0  0
   -2.0245    2.4327   -3.3928 H   0  0  0  0  0  0  0  0  0  0  0  0
   -0.6504    0.3799   -3.2716 H   0  0  0  0  0  0  0  0  0  0  0  0
  2  1  1  0  0  0  0
  2  3  1  0  0  0  0
  3 20  1  0  0  0  0
  4  3  2  0  0  0  0
  4  5  1  0  0  0  0
  5  7  2  0  0  0  0
  6  5  2  0  0  0  0
  8  5  1  0  0  0  0
  8 21  1  0  0  0  0
  9  4  1  0  0  0  0
 10  9  1  0  0  0  0
 10  2  2  0  0  0  0
 11 10  1  0  0  0  0
 12 11  2  0  0  0  0
 13 11  2  0  0  0  0
 14 15  2  0  0  0  0
 14 11  1  0  0  0  0
 15 23  1  0  0  0  0
 16 15  1  0  0  0  0
 16 24  1  0  0  0  0
 17 16  2  0  0  0  0
 18 19  2  0  0  0  0
 18 17  1  0  0  0  0
 19 14  1  0  0  0  0
 22  8  1  0  0  0  0
 25 17  1  0  0  0  0
 26 18  1  0  0  0  0
 27 19  1  0  0  0  0
M  END
$$$$
