27
rmsd104.gzmat
Br         0.00000        0.00000        0.00000
C          1.87660        0.00000        0.00000
C          2.58730        0.00000        1.22510
C          3.95450       -0.00110        1.02540
S          5.10370       -0.02410        2.33200
O          4.37470       -0.15520        3.56830
O          6.19300       -0.90190        1.98140
N          5.76780        1.57880        2.31290
S          4.32170        0.00120       -0.63790
C          2.68450       -0.00590       -1.11640
S          2.18730       -0.00230       -2.81230
O          1.42210        1.19700       -3.05910
O          3.40010       -0.27370       -3.55740
C          1.11930       -1.39130       -2.94350
C         -0.23450       -1.19940       -3.21020
C         -1.09050       -2.29820       -3.27830
C         -0.58960       -3.58390       -3.08610
C          0.77060       -3.77540       -2.84340
C          1.62730       -2.67880       -2.77830
H          2.10170       -0.00380        2.19870
H          6.76120        1.65410        2.16060
H          5.47680        2.19840        3.05210
H         -0.64130       -0.19140       -3.36600
H         -2.14920       -2.14850       -3.47990
H         -1.25930       -4.44190       -3.12960
H          1.16440       -4.78100       -2.70920
H          2.69410       -2.84880       -2.60840
