
     RDKit          3D

 27 28  0  0  0  0  0  0  0  0999 V2000
   -0.0966   -0.7451   -0.0171 Br  0  0  0  0  0  0  0  0  0  0  0  0
    1.7513   -0.3897    0.0315 C   0  0  0  0  0  0  0  0  0  0  0  0
    2.4846   -0.3251    1.2510 C   0  0  0  0  0  0  0  0  0  0  0  0
    3.8068   -0.0350    1.0167 C   0  0  0  0  0  0  0  0  0  0  0  0
    5.0541    0.1195    2.2717 S   0  0  0  0  0  0  0  0  0  0  0  0
    5.9852    1.1515    1.8247 O   0  0  0  0  0  0  0  0  0  0  0  0
    4.3395    0.1710    3.5451 O   0  0  0  0  0  0  0  0  0  0  0  0
    5.8793   -1.3362    2.1730 N   0  0  0  0  0  0  0  0  0  0  0  0
    4.1898    0.1762   -0.6569 S   0  0  0  0  0  0  0  0  0  0  0  0
    2.5374   -0.1466   -1.0765 C   0  0  0  0  0  0  0  0  0  0  0  0
    2.1113   -0.0881   -2.8142 S   0  0  0  0  0  0  0  0  0  0  0  0
    3.3985    0.1212   -3.4891 O   0  0  0  0  0  0  0  0  0  0  0  0
    1.2461   -1.2273   -3.1212 O   0  0  0  0  0  0  0  0  0  0  0  0
    1.1487    1.4128   -2.9550 C   0  0  0  0  0  0  0  0  0  0  0  0
    1.8185    2.6396   -2.9732 C   0  0  0  0  0  0  0  0  0  0  0  0
    1.0664    3.8090   -3.0814 C   0  0  0  0  0  0  0  0  0  0  0  0
   -0.3285    3.7389   -3.1798 C   0  0  0  0  0  0  0  0  0  0  0  0
   -0.9789    2.5015   -3.1749 C   0  0  0  0  0  0  0  0  0  0  0  0
   -0.2397    1.3217   -3.0618 C   0  0  0  0  0  0  0  0  0  0  0  0
    2.0653   -0.4771    2.2445 H   0  0  0  0  0  0  0  0  0  0  0  0
    5.6615   -1.9475    2.9587 H   0  0  0  0  0  0  0  0  0  0  0  0
    6.8784   -1.1711    2.0552 H   0  0  0  0  0  0  0  0  0  0  0  0
    2.9076    2.6678   -2.9121 H   0  0  0  0  0  0  0  0  0  0  0  0
    1.5694    4.7783   -3.0965 H   0  0  0  0  0  0  0  0  0  0  0  0
   -0.9121    4.6583   -3.2662 H   0  0  0  0  0  0  0  0  0  0  0  0
   -2.0665    2.4532   -3.2619 H   0  0  0  0  0  0  0  0  0  0  0  0
   -0.7154    0.3408   -3.0629 H   0  0  0  0  0  0  0  0  0  0  0  0
  1  2  1  0
  2  3  1  0
  2 10  2  0
  3  4  2  0
  3 20  1  0
  4  5  1  0
  4  9  1  0
  5  6  2  0
  5  7  2  0
  5  8  1  0
  8 21  1  0
  8 22  1  0
  9 10  1  0
 11 10  1  0
 11 12  2  0
 11 13  2  0
 11 14  1  0
 14 15  2  0
 14 19  1  0
 15 16  1  0
 15 23  1  0
 16 17  2  0
 16 24  1  0
 17 18  1  0
 17 25  1  0
 18 19  2  0
 18 26  1  0
 19 27  1  0
M  END

