rmsd155.gzmat
 OpenBabel08211713373D

 27 28  0  0  0  0  0  0  0  0999 V2000
    0.0000    0.0000    0.0000 Br  0  0  0  0  0  0  0  0  0  0  0  0
    1.8762    0.0000    0.0000 C   0  0  0  0  0  0  0  0  0  0  0  0
    2.5874    0.0000    1.2255 C   0  0  0  0  0  0  0  0  0  0  0  0
    3.9543    0.0146    1.0261 C   0  0  0  0  0  0  0  0  0  0  0  0
    5.1074    0.0500    2.3302 S   0  0  0  0  0  0  0  0  0  0  0  0
    5.9613    1.2010    2.1731 O   0  0  0  0  0  0  0  0  0  0  0  0
    4.4081   -0.2247    3.5596 O   0  0  0  0  0  0  0  0  0  0  0  0
    6.1170   -1.3241    2.0015 N   0  0  0  0  0  0  0  0  0  0  0  0
    4.3211    0.0146   -0.6376 S   0  0  0  0  0  0  0  0  0  0  0  0
    2.6833    0.0107   -1.1165 C   0  0  0  0  0  0  0  0  0  0  0  0
    2.1891   -0.0080   -2.8131 S   0  0  0  0  0  0  0  0  0  0  0  0
    3.4098    0.2254   -3.5589 O   0  0  0  0  0  0  0  0  0  0  0  0
    1.3973   -1.1934   -3.0426 O   0  0  0  0  0  0  0  0  0  0  0  0
    1.1544    1.4030   -2.9729 C   0  0  0  0  0  0  0  0  0  0  0  0
    1.7035    2.6816   -2.8895 C   0  0  0  0  0  0  0  0  0  0  0  0
    0.8753    3.7981   -2.9821 C   0  0  0  0  0  0  0  0  0  0  0  0
   -0.4971    3.6348   -3.1714 C   0  0  0  0  0  0  0  0  0  0  0  0
   -1.0402    2.3562   -3.2806 C   0  0  0  0  0  0  0  0  0  0  0  0
   -0.2125    1.2381   -3.1869 C   0  0  0  0  0  0  0  0  0  0  0  0
    2.1014   -0.0138    2.1988 H   0  0  0  0  0  0  0  0  0  0  0  0
    5.9951   -2.1283    2.5963 H   0  0  0  0  0  0  0  0  0  0  0  0
    7.0979   -1.1366    1.8618 H   0  0  0  0  0  0  0  0  0  0  0  0
    2.7803    2.8274   -2.7635 H   0  0  0  0  0  0  0  0  0  0  0  0
    1.2999    4.7973   -2.9097 H   0  0  0  0  0  0  0  0  0  0  0  0
   -1.1439    4.5088   -3.2378 H   0  0  0  0  0  0  0  0  0  0  0  0
   -2.1094    2.2270   -3.4381 H   0  0  0  0  0  0  0  0  0  0  0  0
   -0.6504    0.2361   -3.2846 H   0  0  0  0  0  0  0  0  0  0  0  0
  2  1  1  0  0  0  0
  2  3  1  0  0  0  0
  3 20  1  0  0  0  0
  4  3  2  0  0  0  0
  4  5  1  0  0  0  0
  5  7  2  0  0  0  0
  6  5  2  0  0  0  0
  8  5  1  0  0  0  0
  8 21  1  0  0  0  0
  9  4  1  0  0  0  0
 10  9  1  0  0  0  0
 10  2  2  0  0  0  0
 11 10  1  0  0  0  0
 12 11  2  0  0  0  0
 13 11  2  0  0  0  0
 14 15  2  0  0  0  0
 14 11  1  0  0  0  0
 15 23  1  0  0  0  0
 16 24  1  0  0  0  0
 16 15  1  0  0  0  0
 17 16  2  0  0  0  0
 18 19  2  0  0  0  0
 18 17  1  0  0  0  0
 19 14  1  0  0  0  0
 22  8  1  0  0  0  0
 25 17  1  0  0  0  0
 26 18  1  0  0  0  0
 27 19  1  0  0  0  0
M  END
$$$$
