27
rmsd171.gzmat
Br         0.00000        0.00000        0.00000
C          1.87670        0.00000        0.00000
C          2.58800        0.00000        1.22520
C          3.95500       -0.00090        1.02530
S          5.10820        0.00240        2.32920
O          6.15980        0.94130        2.02390
O          4.38030        0.03690        3.57240
N          5.83950       -1.56830        2.21950
S          4.32170       -0.00060       -0.63860
C          2.68370        0.00160       -1.11690
S          2.18930       -0.03790       -2.81250
O          3.41390        0.16470       -3.56140
O          1.38160       -1.21690       -3.01890
C          1.17370        1.38240       -3.00740
C          1.74310        2.65460       -2.98610
C          0.93240        3.77890       -3.12960
C         -0.44340        3.62910       -3.30250
C         -1.00790        2.35580       -3.34170
C         -0.19810        1.22970       -3.19950
H          2.10240        0.00130        2.19890
H          5.57900       -2.23910        2.92510
H          6.83500       -1.59240        2.06230
H          2.82280        2.79000       -2.87170
H          1.37380        4.77330       -3.11300
H         -1.07540        4.50950       -3.41270
H         -2.08000        2.23770       -3.48480
H         -0.65320        0.23180       -3.24660
