27

Br        -0.09660       -0.74510       -0.01710
C          1.75130       -0.38970        0.03150
C          2.48460       -0.32510        1.25100
C          3.80680       -0.03500        1.01670
S          5.05410        0.11950        2.27170
O          5.98520        1.15150        1.82470
O          4.33950        0.17100        3.54510
N          5.87930       -1.33620        2.17300
S          4.18980        0.17620       -0.65690
C          2.53740       -0.14660       -1.07650
S          2.11130       -0.08810       -2.81420
O          3.39850        0.12120       -3.48910
O          1.24610       -1.22730       -3.12120
C          1.14870        1.41280       -2.95500
C          1.81850        2.63960       -2.97320
C          1.06640        3.80900       -3.08140
C         -0.32850        3.73890       -3.17980
C         -0.97890        2.50150       -3.17490
C         -0.23970        1.32170       -3.06180
H          2.06530       -0.47710        2.24450
H          5.66150       -1.94750        2.95870
H          6.87840       -1.17110        2.05520
H          2.90760        2.66780       -2.91210
H          1.56940        4.77830       -3.09650
H         -0.91210        4.65830       -3.26620
H         -2.06650        2.45320       -3.26190
H         -0.71540        0.34080       -3.06290
