rmsd128.gzmat
 OpenBabel08211713373D

 27 28  0  0  0  0  0  0  0  0999 V2000
    0.0000    0.0000    0.0000 Br  0  0  0  0  0  0  0  0  0  0  0  0
    1.8764    0.0000    0.0000 C   0  0  0  0  0  0  0  0  0  0  0  0
    2.5868    0.0000    1.2256 C   0  0  0  0  0  0  0  0  0  0  0  0
    3.9537   -0.0134    1.0264 C   0  0  0  0  0  0  0  0  0  0  0  0
    5.1019   -0.0516    2.3341 S   0  0  0  0  0  0  0  0  0  0  0  0
    4.3798    0.1105    3.5704 O   0  0  0  0  0  0  0  0  0  0  0  0
    6.0245   -1.1385    2.1183 O   0  0  0  0  0  0  0  0  0  0  0  0
    6.0273    1.3982    2.0960 N   0  0  0  0  0  0  0  0  0  0  0  0
    4.3217   -0.0119   -0.6371 S   0  0  0  0  0  0  0  0  0  0  0  0
    2.6846   -0.0107   -1.1160 C   0  0  0  0  0  0  0  0  0  0  0  0
    2.1846   -0.0099   -2.8107 S   0  0  0  0  0  0  0  0  0  0  0  0
    1.3625    1.1535   -3.0450 O   0  0  0  0  0  0  0  0  0  0  0  0
    3.4048   -0.2188   -3.5642 O   0  0  0  0  0  0  0  0  0  0  0  0
    1.1854   -1.4495   -2.9419 C   0  0  0  0  0  0  0  0  0  0  0  0
   -0.1839   -1.3246   -3.1644 C   0  0  0  0  0  0  0  0  0  0  0  0
   -0.9827   -2.4659   -3.2309 C   0  0  0  0  0  0  0  0  0  0  0  0
   -0.4095   -3.7268   -3.0806 C   0  0  0  0  0  0  0  0  0  0  0  0
    0.9649   -3.8498   -2.8785 C   0  0  0  0  0  0  0  0  0  0  0  0
    1.7646   -2.7108   -2.8171 C   0  0  0  0  0  0  0  0  0  0  0  0
    2.1009    0.0103    2.1991 H   0  0  0  0  0  0  0  0  0  0  0  0
    7.0206    1.2810    1.9686 H   0  0  0  0  0  0  0  0  0  0  0  0
    5.8428    2.1618    2.7272 H   0  0  0  0  0  0  0  0  0  0  0  0
   -0.6464   -0.3367   -3.2888 H   0  0  0  0  0  0  0  0  0  0  0  0
   -2.0537   -2.3691   -3.3983 H   0  0  0  0  0  0  0  0  0  0  0  0
   -1.0340   -4.6184   -3.1238 H   0  0  0  0  0  0  0  0  0  0  0  0
    1.4145   -4.8343   -2.7698 H   0  0  0  0  0  0  0  0  0  0  0  0
    2.8431   -2.8282   -2.6799 H   0  0  0  0  0  0  0  0  0  0  0  0
  2  1  1  0  0  0  0
  2  3  1  0  0  0  0
  3 20  1  0  0  0  0
  4  3  2  0  0  0  0
  4  5  1  0  0  0  0
  5  6  2  0  0  0  0
  7  5  2  0  0  0  0
  8  5  1  0  0  0  0
  8 22  1  0  0  0  0
  9  4  1  0  0  0  0
 10  9  1  0  0  0  0
 10  2  2  0  0  0  0
 11 10  1  0  0  0  0
 12 11  2  0  0  0  0
 13 11  2  0  0  0  0
 14 19  2  0  0  0  0
 14 11  1  0  0  0  0
 15 14  1  0  0  0  0
 16 15  2  0  0  0  0
 16 17  1  0  0  0  0
 17 18  2  0  0  0  0
 18 19  1  0  0  0  0
 18 26  1  0  0  0  0
 19 27  1  0  0  0  0
 21  8  1  0  0  0  0
 23 15  1  0  0  0  0
 24 16  1  0  0  0  0
 25 17  1  0  0  0  0
M  END
$$$$
