27
rmsd154.gzmat
Br         0.00000        0.00000        0.00000
C          1.87620        0.00000        0.00000
C          2.58730        0.00000        1.22520
C          3.95420        0.01230        1.02530
S          5.10470        0.05350        2.33100
O          6.12110        1.03100        2.02860
O          4.37440        0.06110        3.57340
N          5.89260       -1.48910        2.22160
S          4.32130        0.01170       -0.63860
C          2.68360        0.01230       -1.11660
S          2.18390        0.01460       -2.81160
O          3.40820        0.20910       -3.56230
O          1.34840       -1.13960       -3.04380
C          1.20280        1.46590       -2.95120
C          1.80380        2.71970       -2.84930
C          1.02200        3.87090       -2.91560
C         -0.35660        3.76750       -3.10060
C         -0.95090        2.51470       -3.23340
C         -0.17020        1.36090       -3.16080
H          2.10150       -0.00480        2.19870
H          5.65100       -2.17180        2.92200
H          6.88910       -1.47690        2.07150
H          2.88600        2.81980       -2.72740
H          1.48810        4.85000       -2.82590
H         -0.96690        4.66900       -3.14530
H         -2.02450        2.43270       -3.39280
H         -0.65040        0.37990       -3.27160
