27
rmsd155.gzmat
Br         0.00000        0.00000        0.00000
C          1.87620        0.00000        0.00000
C          2.58740        0.00000        1.22550
C          3.95430        0.01460        1.02610
S          5.10740        0.05000        2.33020
O          5.96130        1.20100        2.17310
O          4.40810       -0.22470        3.55960
N          6.11700       -1.32410        2.00150
S          4.32110        0.01460       -0.63760
C          2.68330        0.01070       -1.11650
S          2.18910       -0.00800       -2.81310
O          3.40980        0.22540       -3.55890
O          1.39730       -1.19340       -3.04260
C          1.15440        1.40300       -2.97290
C          1.70350        2.68160       -2.88950
C          0.87530        3.79810       -2.98210
C         -0.49710        3.63480       -3.17140
C         -1.04020        2.35620       -3.28060
C         -0.21250        1.23810       -3.18690
H          2.10140       -0.01380        2.19880
H          5.99510       -2.12830        2.59630
H          7.09790       -1.13660        1.86180
H          2.78030        2.82740       -2.76350
H          1.29990        4.79730       -2.90970
H         -1.14390        4.50880       -3.23780
H         -2.10940        2.22700       -3.43810
H         -0.65040        0.23610       -3.28460
