88

C         -0.09700        0.07600       -0.03420
C          1.25260       -0.15730        0.27710
C          1.68670       -0.16740        1.60390
C          0.77120        0.04870        2.64120
C         -0.57250        0.28380        2.34290
C         -1.00280        0.29780        1.01210
C         -0.56400        0.04270       -1.46730
O         -0.64230       -1.30120       -1.96630
C         -1.80890       -2.04070       -1.66740
H         -2.12260       -1.87580       -0.61730
C         -1.44500       -3.53760       -1.83480
H         -1.18050       -3.69640       -2.89300
C         -0.21600       -3.96690       -1.00300
H         -0.11940       -5.05730       -1.13210
C         -0.37740       -3.72450        0.51590
H         -0.39460       -2.64090        0.71620
O         -1.63290       -4.27080        0.93590
C         -1.71080       -5.06650        2.11910
C         -1.17920       -4.37150        3.35070
C         -1.48110       -3.02660        3.60310
C         -0.97770       -2.39070        4.74000
C         -0.17050       -3.09400        5.64110
C          0.13830       -4.43550        5.39140
C         -0.35860       -5.06610        4.24890
C          0.84270       -4.34930        1.20290
O          1.03090       -5.55650        1.20350
N          1.67530       -3.43790        1.75700
C          3.01770       -3.73540        2.19630
H          3.16410       -4.81700        2.04440
C          4.05450       -2.92280        1.45050
C          5.04050       -2.45980        2.32920
C          6.07650       -1.65640        1.85210
C          6.10570       -1.32390        0.49160
C          5.11370       -1.79120       -0.38080
C          4.07310       -2.59840        0.09470
C          4.76340       -2.95420        3.73080
C          3.27900       -3.36070        3.69210
H          3.05770       -4.21470        4.35610
O          2.51600       -2.23310        4.07290
O          0.97180       -3.36620       -1.45750
O         -2.55110       -4.37170       -1.53720
C         -2.97480       -1.56370       -2.56630
O         -2.92260       -0.46220       -3.10820
N         -4.03540       -2.39400       -2.63430
C         -5.29300       -2.05470       -3.27550
H         -5.99490       -2.86130       -3.00130
C         -5.89120       -0.72870       -2.84620
C         -6.56330       -0.13380       -3.92050
C         -7.20650        1.09240       -3.74750
C         -7.16890        1.71140       -2.49260
C         -6.49820        1.10840       -1.42090
C         -5.85460       -0.12140       -1.59370
C         -6.46470       -1.00900       -5.14690
C         -5.27350       -1.95580       -4.84150
H         -5.42930       -2.94880       -5.29330
O         -4.06040       -1.47600       -5.34490
H          1.97290       -0.33720       -0.52500
H          2.73500       -0.36000        1.83830
H          1.11900        0.02100        3.67500
H         -1.29040        0.46230        3.14700
H         -2.05310        0.49360        0.77890
H          0.15970        0.54510       -2.12470
H         -1.53420        0.53800       -1.59470
H         -1.18410       -6.01970        1.97040
H         -2.78730       -5.27180        2.23240
H         -2.09650       -2.47160        2.89170
H         -1.21350       -1.34090        4.92550
H          0.22900       -2.59410        6.52600
H          0.78030       -4.98660        6.08240
H         -0.08390       -6.10050        4.03090
H          1.44600       -2.45500        1.65050
H          6.84840       -1.28020        2.52860
H          6.90750       -0.68830        0.10770
H          5.15150       -1.52010       -1.43880
H          3.28000       -2.95540       -0.56810
H          5.39540       -3.82800        3.96740
H          4.93430       -2.19800        4.51130
H          1.58610       -2.50070        4.11020
H          0.72670       -2.45500       -1.70590
H         -2.52350       -4.50900       -0.56780
H         -3.89460       -3.32600       -2.23960
H         -7.72660        1.56930       -4.58250
H         -7.66240        2.67570       -2.34840
H         -6.47370        1.60520       -0.44780
H         -5.32070       -0.59460       -0.76520
H         -7.39750       -1.58700       -5.28130
H         -6.28080       -0.45550       -6.07970
H         -3.71330       -0.79820       -4.73260
